MODEL 1
REMARK VINA RESULT:      -9.1      0.000      0.000
REMARK  Name = 
REMARK  5 active torsions:
REMARK  status: ('A' for Active; 'I' for Inactive)
REMARK    1  A    between atoms: C_1  and  N_2
REMARK    2  A    between atoms: N_2  and  C_3
REMARK    3  A    between atoms: C_7  and  N_8
REMARK    4  A    between atoms: C_9  and  C_11
REMARK    5  A    between atoms: N_25  and  C_26
REMARK                            x       y       z     vdW  Elec       q    Type
REMARK                         _______ _______ _______ _____ _____    ______ ____
ROOT
ATOM      1  C   UNL     1       3.563   4.553  19.058  0.00  0.00    +0.000 A 
ATOM      2  C   UNL     1       3.061   3.334  19.539  0.00  0.00    +0.000 A 
ATOM      3  C   UNL     1       2.012   3.302  20.456  0.00  0.00    +0.000 A 
ATOM      4  C   UNL     1       1.448   4.493  20.918  0.00  0.00    +0.000 A 
ATOM      5  C   UNL     1       1.928   5.725  20.475  0.00  0.00    +0.000 A 
ATOM      6  C   UNL     1       2.971   5.743  19.538  0.00  0.00    +0.000 A 
ENDROOT
BRANCH   1   8
ATOM      7  C   UNL     1       4.430   3.639  16.995  0.00  0.00    +0.000 C 
ATOM      8  N   UNL     1       4.633   4.556  18.112  0.00  0.00    +0.000 N 
ATOM      9  C   UNL     1       5.903   4.864  18.552  0.00  0.00    +0.000 A 
ATOM     10  N   UNL     1       6.263   5.214  19.779  0.00  0.00    +0.000 NA
ATOM     11  N   UNL     1       7.626   5.361  19.838  0.00  0.00    +0.000 NA
ATOM     12  C   UNL     1       8.088   5.130  18.638  0.00  0.00    +0.000 A 
ATOM     13  N   UNL     1       7.054   4.856  17.789  0.00  0.00    +0.000 N 
ATOM     14  C   UNL     1       7.227   4.672  16.374  0.00  0.00    +0.000 C 
ENDBRANCH   1   8
BRANCH   5  15
ATOM     15  N   UNL     1       1.439   6.965  20.937  0.00  0.00    +0.000 N 
ATOM     16  C   UNL     1       1.453   8.163  20.256  0.00  0.00    +0.000 C 
ATOM     17  O   UNL     1       1.959   8.400  19.169  0.00  0.00    +0.000 OA
ATOM     18  H   UNL     1       0.988   7.006  21.848  0.00  0.00    +0.000 HD
BRANCH  16  19
ATOM     19  C   UNL     1       0.715   9.300  20.977  0.00  0.00    +0.000 A 
ATOM     20  C   UNL     1      -0.048   8.866  22.202  0.00  0.00    +0.000 A 
ATOM     21  C   UNL     1      -0.675   9.811  22.911  0.00  0.00    +0.000 A 
ATOM     22  C   UNL     1      -0.559  11.155  22.435  0.00  0.00    +0.000 A 
ATOM     23  C   UNL     1       0.175  11.486  21.227  0.00  0.00    +0.000 A 
ATOM     24  N   UNL     1       0.818  10.517  20.506  0.00  0.00    +0.000 NA
ATOM     25  C   UNL     1       0.122  12.805  21.014  0.00  0.00    +0.000 C 
ATOM     26  C   UNL     1      -0.671  13.450  22.119  0.00  0.00    +0.000 C 
ATOM     27  C   UNL     1      -1.061  12.276  22.974  0.00  0.00    +0.000 C 
ENDBRANCH  16  19
ENDBRANCH   5  15
TORSDOF 3
ENDMDL
MODEL 2
REMARK VINA RESULT:      -8.6      0.761      1.414
REMARK  Name = 
REMARK  5 active torsions:
REMARK  status: ('A' for Active; 'I' for Inactive)
REMARK    1  A    between atoms: C_1  and  N_2
REMARK    2  A    between atoms: N_2  and  C_3
REMARK    3  A    between atoms: C_7  and  N_8
REMARK    4  A    between atoms: C_9  and  C_11
REMARK    5  A    between atoms: N_25  and  C_26
REMARK                            x       y       z     vdW  Elec       q    Type
REMARK                         _______ _______ _______ _____ _____    ______ ____
ROOT
ATOM      1  C   UNL     1       3.528   4.914  18.922  0.00  0.00    +0.000 A 
ATOM      2  C   UNL     1       2.982   3.771  19.527  0.00  0.00    +0.000 A 
ATOM      3  C   UNL     1       1.964   3.879  20.473  0.00  0.00    +0.000 A 
ATOM      4  C   UNL     1       1.476   5.134  20.840  0.00  0.00    +0.000 A 
ATOM      5  C   UNL     1       2.003   6.294  20.272  0.00  0.00    +0.000 A 
ATOM      6  C   UNL     1       3.013   6.172  19.308  0.00  0.00    +0.000 A 
ENDROOT
BRANCH   1   8
ATOM      7  C   UNL     1       4.220   3.879  16.851  0.00  0.00    +0.000 C 
ATOM      8  N   UNL     1       4.565   4.775  17.950  0.00  0.00    +0.000 N 
ATOM      9  C   UNL     1       5.874   4.929  18.354  0.00  0.00    +0.000 A 
ATOM     10  N   UNL     1       6.308   5.244  19.566  0.00  0.00    +0.000 NA
ATOM     11  N   UNL     1       7.678   5.222  19.588  0.00  0.00    +0.000 NA
ATOM     12  C   UNL     1       8.077   4.923  18.380  0.00  0.00    +0.000 A 
ATOM     13  N   UNL     1       6.995   4.771  17.562  0.00  0.00    +0.000 N 
ATOM     14  C   UNL     1       7.106   4.552  16.146  0.00  0.00    +0.000 C 
ENDBRANCH   1   8
BRANCH   5  15
ATOM     15  N   UNL     1       1.592   7.595  20.633  0.00  0.00    +0.000 N 
ATOM     16  C   UNL     1       1.418   8.669  19.787  0.00  0.00    +0.000 C 
ATOM     17  O   UNL     1       1.662   8.727  18.591  0.00  0.00    +0.000 OA
ATOM     18  H   UNL     1       1.354   7.783  21.604  0.00  0.00    +0.000 HD
BRANCH  16  19
ATOM     19  C   UNL     1       0.826   9.911  20.468  0.00  0.00    +0.000 A 
ATOM     20  C   UNL     1       1.175  11.214  19.796  0.00  0.00    +0.000 A 
ATOM     21  C   UNL     1       0.652  12.336  20.305  0.00  0.00    +0.000 A 
ATOM     22  C   UNL     1      -0.194  12.189  21.449  0.00  0.00    +0.000 A 
ATOM     23  C   UNL     1      -0.458  10.896  22.054  0.00  0.00    +0.000 A 
ATOM     24  N   UNL     1       0.075   9.751  21.528  0.00  0.00    +0.000 NA
ATOM     25  C   UNL     1      -1.274  11.048  23.102  0.00  0.00    +0.000 C 
ATOM     26  C   UNL     1      -1.622  12.504  23.249  0.00  0.00    +0.000 C 
ATOM     27  C   UNL     1      -0.856  13.141  22.122  0.00  0.00    +0.000 C 
ENDBRANCH  16  19
ENDBRANCH   5  15
TORSDOF 3
ENDMDL
MODEL 3
REMARK VINA RESULT:      -8.6      4.910      7.382
REMARK  Name = 
REMARK  5 active torsions:
REMARK  status: ('A' for Active; 'I' for Inactive)
REMARK    1  A    between atoms: C_1  and  N_2
REMARK    2  A    between atoms: N_2  and  C_3
REMARK    3  A    between atoms: C_7  and  N_8
REMARK    4  A    between atoms: C_9  and  C_11
REMARK    5  A    between atoms: N_25  and  C_26
REMARK                            x       y       z     vdW  Elec       q    Type
REMARK                         _______ _______ _______ _____ _____    ______ ____
ROOT
ATOM      1  C   UNL     1       4.730   5.214  17.266  0.00  0.00    +0.000 A 
ATOM      2  C   UNL     1       5.187   4.528  16.130  0.00  0.00    +0.000 A 
ATOM      3  C   UNL     1       6.297   4.981  15.418  0.00  0.00    +0.000 A 
ATOM      4  C   UNL     1       6.967   6.137  15.824  0.00  0.00    +0.000 A 
ATOM      5  C   UNL     1       6.535   6.853  16.939  0.00  0.00    +0.000 A 
ATOM      6  C   UNL     1       5.430   6.377  17.658  0.00  0.00    +0.000 A 
ENDROOT
BRANCH   1   8
ATOM      7  C   UNL     1       2.511   5.693  18.096  0.00  0.00    +0.000 C 
ATOM      8  N   UNL     1       3.596   4.723  17.982  0.00  0.00    +0.000 N 
ATOM      9  C   UNL     1       3.791   3.763  18.952  0.00  0.00    +0.000 A 
ATOM     10  N   UNL     1       4.935   3.184  19.288  0.00  0.00    +0.000 NA
ATOM     11  N   UNL     1       4.733   2.342  20.351  0.00  0.00    +0.000 NA
ATOM     12  C   UNL     1       3.460   2.387  20.640  0.00  0.00    +0.000 A 
ATOM     13  N   UNL     1       2.819   3.225  19.773  0.00  0.00    +0.000 N 
ATOM     14  C   UNL     1       1.393   3.398  19.758  0.00  0.00    +0.000 C 
ENDBRANCH   1   8
BRANCH   5  15
ATOM     15  N   UNL     1       7.134   8.054  17.375  0.00  0.00    +0.000 N 
ATOM     16  C   UNL     1       8.132   8.184  18.317  0.00  0.00    +0.000 C 
ATOM     17  O   UNL     1       8.626   7.306  19.009  0.00  0.00    +0.000 OA
ATOM     18  H   UNL     1       6.850   8.930  16.941  0.00  0.00    +0.000 HD
BRANCH  16  19
ATOM     19  C   UNL     1       8.668   9.614  18.466  0.00  0.00    +0.000 A 
ATOM     20  C   UNL     1       8.069  10.605  17.501  0.00  0.00    +0.000 A 
ATOM     21  C   UNL     1       8.451  11.883  17.605  0.00  0.00    +0.000 A 
ATOM     22  C   UNL     1       9.401  12.189  18.630  0.00  0.00    +0.000 A 
ATOM     23  C   UNL     1       9.951  11.168  19.503  0.00  0.00    +0.000 A 
ATOM     24  N   UNL     1       9.554   9.862  19.396  0.00  0.00    +0.000 NA
ATOM     25  C   UNL     1      10.810  11.725  20.363  0.00  0.00    +0.000 C 
ATOM     26  C   UNL     1      10.871  13.207  20.108  0.00  0.00    +0.000 C 
ATOM     27  C   UNL     1       9.917  13.382  18.958  0.00  0.00    +0.000 C 
ENDBRANCH  16  19
ENDBRANCH   5  15
TORSDOF 3
ENDMDL
MODEL 4
REMARK VINA RESULT:      -8.3      0.972      1.801
REMARK  Name = 
REMARK  5 active torsions:
REMARK  status: ('A' for Active; 'I' for Inactive)
REMARK    1  A    between atoms: C_1  and  N_2
REMARK    2  A    between atoms: N_2  and  C_3
REMARK    3  A    between atoms: C_7  and  N_8
REMARK    4  A    between atoms: C_9  and  C_11
REMARK    5  A    between atoms: N_25  and  C_26
REMARK                            x       y       z     vdW  Elec       q    Type
REMARK                         _______ _______ _______ _____ _____    ______ ____
ROOT
ATOM      1  C   UNL     1       3.888   4.489  19.380  0.00  0.00    +0.000 A 
ATOM      2  C   UNL     1       3.216   3.267  19.536  0.00  0.00    +0.000 A 
ATOM      3  C   UNL     1       1.950   3.215  20.119  0.00  0.00    +0.000 A 
ATOM      4  C   UNL     1       1.335   4.386  20.566  0.00  0.00    +0.000 A 
ATOM      5  C   UNL     1       1.977   5.617  20.441  0.00  0.00    +0.000 A 
ATOM      6  C   UNL     1       3.240   5.659  19.836  0.00  0.00    +0.000 A 
ENDROOT
BRANCH   1   8
ATOM      7  C   UNL     1       6.149   5.337  19.490  0.00  0.00    +0.000 C 
ATOM      8  N   UNL     1       5.180   4.515  18.772  0.00  0.00    +0.000 N 
ATOM      9  C   UNL     1       5.272   4.343  17.407  0.00  0.00    +0.000 A 
ATOM     10  N   UNL     1       4.280   4.106  16.560  0.00  0.00    +0.000 NA
ATOM     11  N   UNL     1       4.763   4.078  15.277  0.00  0.00    +0.000 NA
ATOM     12  C   UNL     1       6.054   4.268  15.349  0.00  0.00    +0.000 A 
ATOM     13  N   UNL     1       6.429   4.398  16.655  0.00  0.00    +0.000 N 
ATOM     14  C   UNL     1       7.801   4.503  17.071  0.00  0.00    +0.000 C 
ENDBRANCH   1   8
BRANCH   5  15
ATOM     15  N   UNL     1       1.435   6.831  20.915  0.00  0.00    +0.000 N 
ATOM     16  C   UNL     1       1.415   8.040  20.253  0.00  0.00    +0.000 C 
ATOM     17  O   UNL     1       1.929   8.313  19.179  0.00  0.00    +0.000 OA
ATOM     18  H   UNL     1       0.969   6.840  21.820  0.00  0.00    +0.000 HD
BRANCH  16  19
ATOM     19  C   UNL     1       0.625   9.137  20.981  0.00  0.00    +0.000 A 
ATOM     20  C   UNL     1       0.417   8.881  22.451  0.00  0.00    +0.000 A 
ATOM     21  C   UNL     1      -0.220   9.819  23.162  0.00  0.00    +0.000 A 
ATOM     22  C   UNL     1      -0.646  10.985  22.451  0.00  0.00    +0.000 A 
ATOM     23  C   UNL     1      -0.429  11.142  21.024  0.00  0.00    +0.000 A 
ATOM     24  N   UNL     1       0.226  10.182  20.302  0.00  0.00    +0.000 NA
ATOM     25  C   UNL     1      -0.924  12.317  20.620  0.00  0.00    +0.000 C 
ATOM     26  C   UNL     1      -1.508  13.038  21.804  0.00  0.00    +0.000 C 
ATOM     27  C   UNL     1      -1.270  12.070  22.931  0.00  0.00    +0.000 C 
ENDBRANCH  16  19
ENDBRANCH   5  15
TORSDOF 3
ENDMDL
MODEL 5
REMARK VINA RESULT:      -8.3      5.140      7.103
REMARK  Name = 
REMARK  5 active torsions:
REMARK  status: ('A' for Active; 'I' for Inactive)
REMARK    1  A    between atoms: C_1  and  N_2
REMARK    2  A    between atoms: N_2  and  C_3
REMARK    3  A    between atoms: C_7  and  N_8
REMARK    4  A    between atoms: C_9  and  C_11
REMARK    5  A    between atoms: N_25  and  C_26
REMARK                            x       y       z     vdW  Elec       q    Type
REMARK                         _______ _______ _______ _____ _____    ______ ____
ROOT
ATOM      1  C   UNL     1       4.587   4.910  17.169  0.00  0.00    +0.000 A 
ATOM      2  C   UNL     1       5.077   4.244  16.035  0.00  0.00    +0.000 A 
ATOM      3  C   UNL     1       6.169   4.745  15.326  0.00  0.00    +0.000 A 
ATOM      4  C   UNL     1       6.786   5.929  15.733  0.00  0.00    +0.000 A 
ATOM      5  C   UNL     1       6.320   6.627  16.846  0.00  0.00    +0.000 A 
ATOM      6  C   UNL     1       5.234   6.104  17.562  0.00  0.00    +0.000 A 
ENDROOT
BRANCH   1   8
ATOM      7  C   UNL     1       2.297   5.236  17.871  0.00  0.00    +0.000 C 
ATOM      8  N   UNL     1       3.473   4.371  17.881  0.00  0.00    +0.000 N 
ATOM      9  C   UNL     1       3.714   3.517  18.937  0.00  0.00    +0.000 A 
ATOM     10  N   UNL     1       4.891   3.083  19.364  0.00  0.00    +0.000 NA
ATOM     11  N   UNL     1       4.722   2.314  20.487  0.00  0.00    +0.000 NA
ATOM     12  C   UNL     1       3.438   2.258  20.723  0.00  0.00    +0.000 A 
ATOM     13  N   UNL     1       2.761   2.956  19.765  0.00  0.00    +0.000 N 
ATOM     14  C   UNL     1       1.327   2.987  19.682  0.00  0.00    +0.000 C 
ENDBRANCH   1   8
BRANCH   5  15
ATOM     15  N   UNL     1       6.865   7.853  17.283  0.00  0.00    +0.000 N 
ATOM     16  C   UNL     1       7.917   8.024  18.157  0.00  0.00    +0.000 C 
ATOM     17  O   UNL     1       8.520   7.162  18.778  0.00  0.00    +0.000 OA
ATOM     18  H   UNL     1       6.490   8.720  16.903  0.00  0.00    +0.000 HD
BRANCH  16  19
ATOM     19  C   UNL     1       8.362   9.483  18.320  0.00  0.00    +0.000 A 
ATOM     20  C   UNL     1       9.434   9.693  19.359  0.00  0.00    +0.000 A 
ATOM     21  C   UNL     1       9.909  10.934  19.521  0.00  0.00    +0.000 A 
ATOM     22  C   UNL     1       9.348  11.951  18.685  0.00  0.00    +0.000 A 
ATOM     23  C   UNL     1       8.296  11.669  17.725  0.00  0.00    +0.000 A 
ATOM     24  N   UNL     1       7.816  10.398  17.560  0.00  0.00    +0.000 NA
ATOM     25  C   UNL     1       7.959  12.792  17.083  0.00  0.00    +0.000 C 
ATOM     26  C   UNL     1       8.811  13.924  17.592  0.00  0.00    +0.000 C 
ATOM     27  C   UNL     1       9.667  13.252  18.630  0.00  0.00    +0.000 C 
ENDBRANCH  16  19
ENDBRANCH   5  15
TORSDOF 3
ENDMDL
MODEL 6
REMARK VINA RESULT:      -8.2      1.964      2.338
REMARK  Name = 
REMARK  5 active torsions:
REMARK  status: ('A' for Active; 'I' for Inactive)
REMARK    1  A    between atoms: C_1  and  N_2
REMARK    2  A    between atoms: N_2  and  C_3
REMARK    3  A    between atoms: C_7  and  N_8
REMARK    4  A    between atoms: C_9  and  C_11
REMARK    5  A    between atoms: N_25  and  C_26
REMARK                            x       y       z     vdW  Elec       q    Type
REMARK                         _______ _______ _______ _____ _____    ______ ____
ROOT
ATOM      1  C   UNL     1       3.331   5.440  18.715  0.00  0.00    +0.000 A 
ATOM      2  C   UNL     1       2.927   4.611  19.773  0.00  0.00    +0.000 A 
ATOM      3  C   UNL     1       2.075   5.085  20.769  0.00  0.00    +0.000 A 
ATOM      4  C   UNL     1       1.617   6.403  20.731  0.00  0.00    +0.000 A 
ATOM      5  C   UNL     1       2.007   7.262  19.704  0.00  0.00    +0.000 A 
ATOM      6  C   UNL     1       2.849   6.768  18.698  0.00  0.00    +0.000 A 
ENDROOT
BRANCH   1   8
ATOM      7  C   UNL     1       3.598   3.864  16.901  0.00  0.00    +0.000 C 
ATOM      8  N   UNL     1       4.198   4.926  17.703  0.00  0.00    +0.000 N 
ATOM      9  C   UNL     1       5.560   4.967  17.916  0.00  0.00    +0.000 A 
ATOM     10  N   UNL     1       6.193   5.481  18.961  0.00  0.00    +0.000 NA
ATOM     11  N   UNL     1       7.540   5.257  18.843  0.00  0.00    +0.000 NA
ATOM     12  C   UNL     1       7.728   4.632  17.711  0.00  0.00    +0.000 A 
ATOM     13  N   UNL     1       6.532   4.463  17.074  0.00  0.00    +0.000 N 
ATOM     14  C   UNL     1       6.418   3.912  15.752  0.00  0.00    +0.000 C 
ENDBRANCH   1   8
BRANCH   5  15
ATOM     15  N   UNL     1       1.622   8.617  19.631  0.00  0.00    +0.000 N 
ATOM     16  C   UNL     1       1.617   9.414  18.507  0.00  0.00    +0.000 C 
ATOM     17  O   UNL     1       2.017   9.131  17.388  0.00  0.00    +0.000 OA
ATOM     18  H   UNL     1       1.270   9.073  20.471  0.00  0.00    +0.000 HD
BRANCH  16  19
ATOM     19  C   UNL     1       1.007  10.805  18.731  0.00  0.00    +0.000 A 
ATOM     20  C   UNL     1      -0.427  10.788  19.194  0.00  0.00    +0.000 A 
ATOM     21  C   UNL     1      -1.009  11.963  19.459  0.00  0.00    +0.000 A 
ATOM     22  C   UNL     1      -0.208  13.134  19.275  0.00  0.00    +0.000 A 
ATOM     23  C   UNL     1       1.162  13.065  18.797  0.00  0.00    +0.000 A 
ATOM     24  N   UNL     1       1.755  11.861  18.531  0.00  0.00    +0.000 NA
ATOM     25  C   UNL     1       1.673  14.298  18.716  0.00  0.00    +0.000 C 
ATOM     26  C   UNL     1       0.636  15.291  19.165  0.00  0.00    +0.000 C 
ATOM     27  C   UNL     1      -0.540  14.413  19.496  0.00  0.00    +0.000 C 
ENDBRANCH  16  19
ENDBRANCH   5  15
TORSDOF 3
ENDMDL
MODEL 7
REMARK VINA RESULT:      -8.1      3.386      9.439
REMARK  Name = 
REMARK  5 active torsions:
REMARK  status: ('A' for Active; 'I' for Inactive)
REMARK    1  A    between atoms: C_1  and  N_2
REMARK    2  A    between atoms: N_2  and  C_3
REMARK    3  A    between atoms: C_7  and  N_8
REMARK    4  A    between atoms: C_9  and  C_11
REMARK    5  A    between atoms: N_25  and  C_26
REMARK                            x       y       z     vdW  Elec       q    Type
REMARK                         _______ _______ _______ _____ _____    ______ ____
ROOT
ATOM      1  C   UNL     1      -0.371  11.761  18.675  0.00  0.00    +0.000 A 
ATOM      2  C   UNL     1       0.471  12.883  18.623  0.00  0.00    +0.000 A 
ATOM      3  C   UNL     1       1.830  12.746  18.346  0.00  0.00    +0.000 A 
ATOM      4  C   UNL     1       2.377  11.481  18.124  0.00  0.00    +0.000 A 
ATOM      5  C   UNL     1       1.576  10.341  18.181  0.00  0.00    +0.000 A 
ATOM      6  C   UNL     1       0.207  10.493  18.441  0.00  0.00    +0.000 A 
ENDROOT
BRANCH   1   8
ATOM      7  C   UNL     1      -2.106  11.740  20.358  0.00  0.00    +0.000 C 
ATOM      8  N   UNL     1      -1.762  11.931  18.952  0.00  0.00    +0.000 N 
ATOM      9  C   UNL     1      -2.673  11.651  17.957  0.00  0.00    +0.000 A 
ATOM     10  N   UNL     1      -2.412  11.270  16.714  0.00  0.00    +0.000 NA
ATOM     11  N   UNL     1      -3.585  11.010  16.052  0.00  0.00    +0.000 NA
ATOM     12  C   UNL     1      -4.559  11.263  16.886  0.00  0.00    +0.000 A 
ATOM     13  N   UNL     1      -4.049  11.704  18.073  0.00  0.00    +0.000 N 
ATOM     14  C   UNL     1      -4.870  12.173  19.155  0.00  0.00    +0.000 C 
ENDBRANCH   1   8
BRANCH   5  15
ATOM     15  N   UNL     1       2.071   9.030  18.016  0.00  0.00    +0.000 N 
ATOM     16  C   UNL     1       2.142   8.047  18.980  0.00  0.00    +0.000 C 
ATOM     17  O   UNL     1       1.871   8.143  20.167  0.00  0.00    +0.000 OA
ATOM     18  H   UNL     1       2.381   8.735  17.092  0.00  0.00    +0.000 HD
BRANCH  16  19
ATOM     19  C   UNL     1       2.600   6.682  18.447  0.00  0.00    +0.000 A 
ATOM     20  C   UNL     1       3.895   6.719  17.677  0.00  0.00    +0.000 A 
ATOM     21  C   UNL     1       4.383   5.558  17.225  0.00  0.00    +0.000 A 
ATOM     22  C   UNL     1       3.622   4.383  17.519  0.00  0.00    +0.000 A 
ATOM     23  C   UNL     1       2.366   4.437  18.245  0.00  0.00    +0.000 A 
ATOM     24  N   UNL     1       1.872   5.626  18.709  0.00  0.00    +0.000 NA
ATOM     25  C   UNL     1       1.869   3.203  18.378  0.00  0.00    +0.000 C 
ATOM     26  C   UNL     1       2.809   2.221  17.734  0.00  0.00    +0.000 C 
ATOM     27  C   UNL     1       3.904   3.110  17.209  0.00  0.00    +0.000 C 
ENDBRANCH  16  19
ENDBRANCH   5  15
TORSDOF 3
ENDMDL
MODEL 8
REMARK VINA RESULT:      -8.1      1.276      1.889
REMARK  Name = 
REMARK  5 active torsions:
REMARK  status: ('A' for Active; 'I' for Inactive)
REMARK    1  A    between atoms: C_1  and  N_2
REMARK    2  A    between atoms: N_2  and  C_3
REMARK    3  A    between atoms: C_7  and  N_8
REMARK    4  A    between atoms: C_9  and  C_11
REMARK    5  A    between atoms: N_25  and  C_26
REMARK                            x       y       z     vdW  Elec       q    Type
REMARK                         _______ _______ _______ _____ _____    ______ ____
ROOT
ATOM      1  C   UNL     1       3.521   5.378  18.966  0.00  0.00    +0.000 A 
ATOM      2  C   UNL     1       3.114   4.417  19.904  0.00  0.00    +0.000 A 
ATOM      3  C   UNL     1       2.140   4.714  20.857  0.00  0.00    +0.000 A 
ATOM      4  C   UNL     1       1.559   5.982  20.895  0.00  0.00    +0.000 A 
ATOM      5  C   UNL     1       1.947   6.968  19.988  0.00  0.00    +0.000 A 
ATOM      6  C   UNL     1       2.913   6.653  19.024  0.00  0.00    +0.000 A 
ENDROOT
BRANCH   1   8
ATOM      7  C   UNL     1       4.047   4.115  16.973  0.00  0.00    +0.000 C 
ATOM      8  N   UNL     1       4.515   5.045  17.996  0.00  0.00    +0.000 N 
ATOM      9  C   UNL     1       5.841   5.074  18.373  0.00  0.00    +0.000 A 
ATOM     10  N   UNL     1       6.332   5.426  19.553  0.00  0.00    +0.000 NA
ATOM     11  N   UNL     1       7.692   5.244  19.562  0.00  0.00    +0.000 NA
ATOM     12  C   UNL     1       8.028   4.811  18.376  0.00  0.00    +0.000 A 
ATOM     13  N   UNL     1       6.920   4.726  17.583  0.00  0.00    +0.000 N 
ATOM     14  C   UNL     1       6.977   4.390  16.187  0.00  0.00    +0.000 C 
ENDBRANCH   1   8
BRANCH   5  15
ATOM     15  N   UNL     1       1.437   8.285  20.001  0.00  0.00    +0.000 N 
ATOM     16  C   UNL     1       1.260   9.089  21.106  0.00  0.00    +0.000 C 
ATOM     17  O   UNL     1       1.427   8.796  22.280  0.00  0.00    +0.000 OA
ATOM     18  H   UNL     1       1.204   8.729  19.116  0.00  0.00    +0.000 HD
BRANCH  16  19
ATOM     19  C   UNL     1       0.819  10.521  20.771  0.00  0.00    +0.000 A 
ATOM     20  C   UNL     1       0.808  10.839  19.297  0.00  0.00    +0.000 A 
ATOM     21  C   UNL     1       0.386  12.053  18.926  0.00  0.00    +0.000 A 
ATOM     22  C   UNL     1      -0.018  12.941  19.972  0.00  0.00    +0.000 A 
ATOM     23  C   UNL     1       0.048  12.565  21.373  0.00  0.00    +0.000 A 
ATOM     24  N   UNL     1       0.477  11.321  21.748  0.00  0.00    +0.000 NA
ATOM     25  C   UNL     1      -0.386  13.577  22.132  0.00  0.00    +0.000 C 
ATOM     26  C   UNL     1      -0.793  14.720  21.242  0.00  0.00    +0.000 C 
ATOM     27  C   UNL     1      -0.503  14.186  19.866  0.00  0.00    +0.000 C 
ENDBRANCH  16  19
ENDBRANCH   5  15
TORSDOF 3
ENDMDL
MODEL 9
REMARK VINA RESULT:      -8.1      2.161      8.578
REMARK  Name = 
REMARK  5 active torsions:
REMARK  status: ('A' for Active; 'I' for Inactive)
REMARK    1  A    between atoms: C_1  and  N_2
REMARK    2  A    between atoms: N_2  and  C_3
REMARK    3  A    between atoms: C_7  and  N_8
REMARK    4  A    between atoms: C_9  and  C_11
REMARK    5  A    between atoms: N_25  and  C_26
REMARK                            x       y       z     vdW  Elec       q    Type
REMARK                         _______ _______ _______ _____ _____    ______ ____
ROOT
ATOM      1  C   UNL     1       0.222  10.677  20.526  0.00  0.00    +0.000 A 
ATOM      2  C   UNL     1      -0.410  10.236  21.699  0.00  0.00    +0.000 A 
ATOM      3  C   UNL     1      -0.175   8.957  22.203  0.00  0.00    +0.000 A 
ATOM      4  C   UNL     1       0.692   8.090  21.536  0.00  0.00    +0.000 A 
ATOM      5  C   UNL     1       1.328   8.486  20.359  0.00  0.00    +0.000 A 
ATOM      6  C   UNL     1       1.098   9.780  19.874  0.00  0.00    +0.000 A 
ENDROOT
BRANCH   1   8
ATOM      7  C   UNL     1      -0.664  12.020  18.721  0.00  0.00    +0.000 C 
ATOM      8  N   UNL     1      -0.032  11.995  20.037  0.00  0.00    +0.000 N 
ATOM      9  C   UNL     1       0.794  13.020  20.444  0.00  0.00    +0.000 A 
ATOM     10  N   UNL     1       1.805  12.945  21.298  0.00  0.00    +0.000 NA
ATOM     11  N   UNL     1       2.432  14.162  21.382  0.00  0.00    +0.000 NA
ATOM     12  C   UNL     1       1.782  14.983  20.602  0.00  0.00    +0.000 A 
ATOM     13  N   UNL     1       0.728  14.335  20.025  0.00  0.00    +0.000 N 
ATOM     14  C   UNL     1      -0.247  14.998  19.203  0.00  0.00    +0.000 C 
ENDBRANCH   1   8
BRANCH   5  15
ATOM     15  N   UNL     1       2.176   7.644  19.609  0.00  0.00    +0.000 N 
ATOM     16  C   UNL     1       2.274   6.272  19.708  0.00  0.00    +0.000 C 
ATOM     17  O   UNL     1       1.716   5.538  20.509  0.00  0.00    +0.000 OA
ATOM     18  H   UNL     1       2.761   8.056  18.885  0.00  0.00    +0.000 HD
BRANCH  16  19
ATOM     19  C   UNL     1       3.188   5.635  18.652  0.00  0.00    +0.000 A 
ATOM     20  C   UNL     1       3.259   4.131  18.718  0.00  0.00    +0.000 A 
ATOM     21  C   UNL     1       3.997   3.502  17.796  0.00  0.00    +0.000 A 
ATOM     22  C   UNL     1       4.654   4.324  16.828  0.00  0.00    +0.000 A 
ATOM     23  C   UNL     1       4.556   5.772  16.851  0.00  0.00    +0.000 A 
ATOM     24  N   UNL     1       3.798   6.412  17.793  0.00  0.00    +0.000 NA
ATOM     25  C   UNL     1       5.264   6.288  15.840  0.00  0.00    +0.000 C 
ATOM     26  C   UNL     1       5.885   5.166  15.052  0.00  0.00    +0.000 C 
ATOM     27  C   UNL     1       5.419   3.944  15.795  0.00  0.00    +0.000 C 
ENDBRANCH  16  19
ENDBRANCH   5  15
TORSDOF 3
ENDMDL
