MODEL 1
REMARK VINA RESULT:      -9.2      0.000      0.000
REMARK  Name = 
REMARK  7 active torsions:
REMARK  status: ('A' for Active; 'I' for Inactive)
REMARK    1  A    between atoms: C_2  and  C_15
REMARK    2  A    between atoms: N_3  and  C_4
REMARK    3  A    between atoms: C_4  and  C_5
REMARK    4  A    between atoms: C_20  and  S_21
REMARK    5  A    between atoms: S_21  and  N_24
REMARK    6  A    between atoms: N_24  and  C_25
REMARK    7  A    between atoms: C_25  and  C_26
REMARK                            x       y       z     vdW  Elec       q    Type
REMARK                         _______ _______ _______ _____ _____    ______ ____
ROOT
ATOM      1  C   UNL     1       2.287   6.842  19.073  0.00  0.00    +0.000 A 
ATOM      2  C   UNL     1       1.789   6.626  20.364  0.00  0.00    +0.000 A 
ATOM      3  C   UNL     1       1.783   5.344  20.921  0.00  0.00    +0.000 A 
ATOM      4  C   UNL     1       2.276   4.246  20.203  0.00  0.00    +0.000 A 
ATOM      5 CL   UNL     1       2.210   2.731  21.022  0.00  0.00    +0.000 Cl
ATOM      6  C   UNL     1       2.794   4.449  18.923  0.00  0.00    +0.000 A 
ATOM      7  C   UNL     1       2.793   5.748  18.357  0.00  0.00    +0.000 A 
ENDROOT
BRANCH   1   9
ATOM      8  O   UNL     1       3.050   8.593  17.692  0.00  0.00    +0.000 OA
ATOM      9  C   UNL     1       2.237   8.240  18.543  0.00  0.00    +0.000 C 
ATOM     10  N   UNL     1       1.281   9.096  19.029  0.00  0.00    +0.000 N 
ATOM     11  H   UNL     1       0.631   8.874  19.775  0.00  0.00    +0.000 HD
BRANCH  10  12
ATOM     12  C   UNL     1       1.228  10.472  18.567  0.00  0.00    +0.000 C 
BRANCH  12  13
ATOM     13  C   UNL     1      -0.019  11.203  19.023  0.00  0.00    +0.000 A 
ATOM     14  N   UNL     1       0.148  12.088  20.052  0.00  0.00    +0.000 NA
ATOM     15  C   UNL     1      -0.947  12.736  20.493  0.00  0.00    +0.000 A 
ATOM     16  C   UNL     1      -2.213  12.558  19.964  0.00  0.00    +0.000 A 
ATOM     17  C   UNL     1      -2.386  11.664  18.904  0.00  0.00    +0.000 A 
ATOM     18  C   UNL     1      -3.656  11.462  18.337  0.00  0.00    +0.000 A 
ATOM     19  C   UNL     1      -3.838  10.571  17.280  0.00  0.00    +0.000 A 
ATOM     20  C   UNL     1      -2.750   9.866  16.777  0.00  0.00    +0.000 A 
ATOM     21  C   UNL     1      -1.481  10.054  17.332  0.00  0.00    +0.000 A 
ATOM     22  C   UNL     1      -1.270  10.955  18.405  0.00  0.00    +0.000 A 
ENDBRANCH  12  13
ENDBRANCH  10  12
ENDBRANCH   1   9
BRANCH   6  23
ATOM     23  S   UNL     1       3.349   3.124  17.865  0.00  0.00    +0.000 S 
ATOM     24  O   UNL     1       4.360   2.342  18.534  0.00  0.00    +0.000 OA
ATOM     25  O   UNL     1       2.150   2.489  17.359  0.00  0.00    +0.000 OA
BRANCH  23  26
ATOM     26  N   UNL     1       4.037   3.923  16.551  0.00  0.00    +0.000 NA
ATOM     27  H   UNL     1       3.720   4.885  16.445  0.00  0.00    +0.000 HD
BRANCH  26  28
ATOM     28  C   UNL     1       5.482   3.751  16.347  0.00  0.00    +0.000 C 
BRANCH  28  29
ATOM     29  C   UNL     1       6.271   4.876  16.980  0.00  0.00    +0.000 A 
ATOM     30  C   UNL     1       6.051   6.206  16.590  0.00  0.00    +0.000 A 
ATOM     31  C   UNL     1       6.749   7.250  17.204  0.00  0.00    +0.000 A 
ATOM     32  C   UNL     1       7.670   6.979  18.214  0.00  0.00    +0.000 A 
ATOM     33  C   UNL     1       7.899   5.662  18.608  0.00  0.00    +0.000 A 
ATOM     34  C   UNL     1       7.205   4.615  17.995  0.00  0.00    +0.000 A 
ENDBRANCH  28  29
ENDBRANCH  26  28
ENDBRANCH  23  26
ENDBRANCH   6  23
TORSDOF 7
ENDMDL
MODEL 2
REMARK VINA RESULT:      -8.8      0.861      1.091
REMARK  Name = 
REMARK  7 active torsions:
REMARK  status: ('A' for Active; 'I' for Inactive)
REMARK    1  A    between atoms: C_2  and  C_15
REMARK    2  A    between atoms: N_3  and  C_4
REMARK    3  A    between atoms: C_4  and  C_5
REMARK    4  A    between atoms: C_20  and  S_21
REMARK    5  A    between atoms: S_21  and  N_24
REMARK    6  A    between atoms: N_24  and  C_25
REMARK    7  A    between atoms: C_25  and  C_26
REMARK                            x       y       z     vdW  Elec       q    Type
REMARK                         _______ _______ _______ _____ _____    ______ ____
ROOT
ATOM      1  C   UNL     1       2.113   6.900  18.989  0.00  0.00    +0.000 A 
ATOM      2  C   UNL     1       1.947   6.847  20.379  0.00  0.00    +0.000 A 
ATOM      3  C   UNL     1       1.975   5.624  21.056  0.00  0.00    +0.000 A 
ATOM      4  C   UNL     1       2.171   4.423  20.361  0.00  0.00    +0.000 A 
ATOM      5 CL   UNL     1       2.189   2.998  21.329  0.00  0.00    +0.000 Cl
ATOM      6  C   UNL     1       2.358   4.461  18.978  0.00  0.00    +0.000 A 
ATOM      7  C   UNL     1       2.323   5.701  18.294  0.00  0.00    +0.000 A 
ENDROOT
BRANCH   1   9
ATOM      8  O   UNL     1       2.603   8.423  17.260  0.00  0.00    +0.000 OA
ATOM      9  C   UNL     1       2.047   8.246  18.341  0.00  0.00    +0.000 C 
ATOM     10  N   UNL     1       1.368   9.253  18.979  0.00  0.00    +0.000 N 
ATOM     11  H   UNL     1       0.950   9.176  19.899  0.00  0.00    +0.000 HD
BRANCH  10  12
ATOM     12  C   UNL     1       1.318  10.583  18.398  0.00  0.00    +0.000 C 
BRANCH  12  13
ATOM     13  C   UNL     1       0.124  11.391  18.868  0.00  0.00    +0.000 A 
ATOM     14  N   UNL     1       0.392  12.397  19.755  0.00  0.00    +0.000 NA
ATOM     15  C   UNL     1      -0.653  13.116  20.205  0.00  0.00    +0.000 A 
ATOM     16  C   UNL     1      -1.964  12.897  19.821  0.00  0.00    +0.000 A 
ATOM     17  C   UNL     1      -2.240  11.878  18.906  0.00  0.00    +0.000 A 
ATOM     18  C   UNL     1      -3.559  11.630  18.487  0.00  0.00    +0.000 A 
ATOM     19  C   UNL     1      -3.844  10.615  17.575  0.00  0.00    +0.000 A 
ATOM     20  C   UNL     1      -2.813   9.831  17.071  0.00  0.00    +0.000 A 
ATOM     21  C   UNL     1      -1.497  10.063  17.478  0.00  0.00    +0.000 A 
ATOM     22  C   UNL     1      -1.181  11.089  18.403  0.00  0.00    +0.000 A 
ENDBRANCH  12  13
ENDBRANCH  10  12
ENDBRANCH   1   9
BRANCH   6  23
ATOM     23  S   UNL     1       2.508   3.000  17.965  0.00  0.00    +0.000 S 
ATOM     24  O   UNL     1       1.711   1.930  18.511  0.00  0.00    +0.000 OA
ATOM     25  O   UNL     1       2.305   3.440  16.600  0.00  0.00    +0.000 OA
BRANCH  23  26
ATOM     26  N   UNL     1       4.141   2.598  18.081  0.00  0.00    +0.000 NA
ATOM     27  H   UNL     1       4.592   2.454  17.180  0.00  0.00    +0.000 HD
BRANCH  26  28
ATOM     28  C   UNL     1       4.952   3.372  19.030  0.00  0.00    +0.000 C 
BRANCH  28  29
ATOM     29  C   UNL     1       5.785   4.420  18.326  0.00  0.00    +0.000 A 
ATOM     30  C   UNL     1       5.788   4.503  16.926  0.00  0.00    +0.000 A 
ATOM     31  C   UNL     1       6.523   5.499  16.275  0.00  0.00    +0.000 A 
ATOM     32  C   UNL     1       7.259   6.422  17.015  0.00  0.00    +0.000 A 
ATOM     33  C   UNL     1       7.267   6.348  18.407  0.00  0.00    +0.000 A 
ATOM     34  C   UNL     1       6.536   5.352  19.060  0.00  0.00    +0.000 A 
ENDBRANCH  28  29
ENDBRANCH  26  28
ENDBRANCH  23  26
ENDBRANCH   6  23
TORSDOF 7
ENDMDL
MODEL 3
REMARK VINA RESULT:      -8.8      2.580      4.216
REMARK  Name = 
REMARK  7 active torsions:
REMARK  status: ('A' for Active; 'I' for Inactive)
REMARK    1  A    between atoms: C_2  and  C_15
REMARK    2  A    between atoms: N_3  and  C_4
REMARK    3  A    between atoms: C_4  and  C_5
REMARK    4  A    between atoms: C_20  and  S_21
REMARK    5  A    between atoms: S_21  and  N_24
REMARK    6  A    between atoms: N_24  and  C_25
REMARK    7  A    between atoms: C_25  and  C_26
REMARK                            x       y       z     vdW  Elec       q    Type
REMARK                         _______ _______ _______ _____ _____    ______ ____
ROOT
ATOM      1  C   UNL     1       2.701   6.966  19.222  0.00  0.00    +0.000 A 
ATOM      2  C   UNL     1       2.657   7.920  18.197  0.00  0.00    +0.000 A 
ATOM      3  C   UNL     1       3.462   7.785  17.062  0.00  0.00    +0.000 A 
ATOM      4  C   UNL     1       4.328   6.693  16.921  0.00  0.00    +0.000 A 
ATOM      5 CL   UNL     1       5.251   6.658  15.466  0.00  0.00    +0.000 Cl
ATOM      6  C   UNL     1       4.369   5.724  17.925  0.00  0.00    +0.000 A 
ATOM      7  C   UNL     1       3.558   5.866  19.078  0.00  0.00    +0.000 A 
ENDROOT
BRANCH   1   9
ATOM      8  O   UNL     1       1.461   6.238  21.089  0.00  0.00    +0.000 OA
ATOM      9  C   UNL     1       1.825   7.197  20.412  0.00  0.00    +0.000 C 
ATOM     10  N   UNL     1       1.445   8.481  20.713  0.00  0.00    +0.000 N 
ATOM     11  H   UNL     1       1.663   9.295  20.151  0.00  0.00    +0.000 HD
BRANCH  10  12
ATOM     12  C   UNL     1       0.562   8.738  21.837  0.00  0.00    +0.000 C 
BRANCH  12  13
ATOM     13  C   UNL     1      -0.153  10.071  21.737  0.00  0.00    +0.000 A 
ATOM     14  N   UNL     1      -0.304  10.759  22.909  0.00  0.00    +0.000 NA
ATOM     15  C   UNL     1      -0.956  11.936  22.853  0.00  0.00    +0.000 A 
ATOM     16  C   UNL     1      -1.470  12.479  21.688  0.00  0.00    +0.000 A 
ATOM     17  C   UNL     1      -1.306  11.784  20.487  0.00  0.00    +0.000 A 
ATOM     18  C   UNL     1      -1.808  12.308  19.283  0.00  0.00    +0.000 A 
ATOM     19  C   UNL     1      -1.650  11.622  18.080  0.00  0.00    +0.000 A 
ATOM     20  C   UNL     1      -0.990  10.399  18.065  0.00  0.00    +0.000 A 
ATOM     21  C   UNL     1      -0.486   9.864  19.253  0.00  0.00    +0.000 A 
ATOM     22  C   UNL     1      -0.632  10.542  20.489  0.00  0.00    +0.000 A 
ENDBRANCH  12  13
ENDBRANCH  10  12
ENDBRANCH   1   9
BRANCH   6  23
ATOM     23  S   UNL     1       5.504   4.348  17.919  0.00  0.00    +0.000 S 
ATOM     24  O   UNL     1       5.136   3.403  16.893  0.00  0.00    +0.000 OA
ATOM     25  O   UNL     1       6.831   4.926  17.938  0.00  0.00    +0.000 OA
BRANCH  23  26
ATOM     26  N   UNL     1       5.287   3.644  19.434  0.00  0.00    +0.000 NA
ATOM     27  H   UNL     1       4.957   4.295  20.144  0.00  0.00    +0.000 HD
BRANCH  26  28
ATOM     28  C   UNL     1       4.616   2.337  19.473  0.00  0.00    +0.000 C 
BRANCH  28  29
ATOM     29  C   UNL     1       3.125   2.483  19.685  0.00  0.00    +0.000 A 
ATOM     30  C   UNL     1       2.611   2.746  20.963  0.00  0.00    +0.000 A 
ATOM     31  C   UNL     1       1.237   2.923  21.153  0.00  0.00    +0.000 A 
ATOM     32  C   UNL     1       0.364   2.843  20.070  0.00  0.00    +0.000 A 
ATOM     33  C   UNL     1       0.863   2.579  18.795  0.00  0.00    +0.000 A 
ATOM     34  C   UNL     1       2.235   2.399  18.602  0.00  0.00    +0.000 A 
ENDBRANCH  28  29
ENDBRANCH  26  28
ENDBRANCH  23  26
ENDBRANCH   6  23
TORSDOF 7
ENDMDL
MODEL 4
REMARK VINA RESULT:      -8.7      1.641      2.276
REMARK  Name = 
REMARK  7 active torsions:
REMARK  status: ('A' for Active; 'I' for Inactive)
REMARK    1  A    between atoms: C_2  and  C_15
REMARK    2  A    between atoms: N_3  and  C_4
REMARK    3  A    between atoms: C_4  and  C_5
REMARK    4  A    between atoms: C_20  and  S_21
REMARK    5  A    between atoms: S_21  and  N_24
REMARK    6  A    between atoms: N_24  and  C_25
REMARK    7  A    between atoms: C_25  and  C_26
REMARK                            x       y       z     vdW  Elec       q    Type
REMARK                         _______ _______ _______ _____ _____    ______ ____
ROOT
ATOM      1  C   UNL     1       2.356   7.261  18.930  0.00  0.00    +0.000 A 
ATOM      2  C   UNL     1       1.653   6.873  20.078  0.00  0.00    +0.000 A 
ATOM      3  C   UNL     1       1.852   5.611  20.645  0.00  0.00    +0.000 A 
ATOM      4  C   UNL     1       2.759   4.705  20.080  0.00  0.00    +0.000 A 
ATOM      5 CL   UNL     1       2.904   3.192  20.892  0.00  0.00    +0.000 Cl
ATOM      6  C   UNL     1       3.482   5.084  18.948  0.00  0.00    +0.000 A 
ATOM      7  C   UNL     1       3.274   6.361  18.371  0.00  0.00    +0.000 A 
ENDROOT
BRANCH   1   9
ATOM      8  O   UNL     1       2.508   8.926  17.270  0.00  0.00    +0.000 OA
ATOM      9  C   UNL     1       2.068   8.620  18.376  0.00  0.00    +0.000 C 
ATOM     10  N   UNL     1       1.319   9.493  19.124  0.00  0.00    +0.000 N 
ATOM     11  H   UNL     1       0.990   9.313  20.065  0.00  0.00    +0.000 HD
BRANCH  10  12
ATOM     12  C   UNL     1       1.054  10.834  18.634  0.00  0.00    +0.000 C 
BRANCH  12  13
ATOM     13  C   UNL     1      -0.277  11.386  19.106  0.00  0.00    +0.000 A 
ATOM     14  N   UNL     1      -0.236  12.180  20.218  0.00  0.00    +0.000 NA
ATOM     15  C   UNL     1      -1.407  12.666  20.673  0.00  0.00    +0.000 A 
ATOM     16  C   UNL     1      -2.631  12.409  20.080  0.00  0.00    +0.000 A 
ATOM     17  C   UNL     1      -2.675  11.608  18.937  0.00  0.00    +0.000 A 
ATOM     18  C   UNL     1      -3.899  11.332  18.303  0.00  0.00    +0.000 A 
ATOM     19  C   UNL     1      -3.953  10.532  17.162  0.00  0.00    +0.000 A 
ATOM     20  C   UNL     1      -2.782   9.995  16.640  0.00  0.00    +0.000 A 
ATOM     21  C   UNL     1      -1.557  10.259  17.259  0.00  0.00    +0.000 A 
ATOM     22  C   UNL     1      -1.476  11.069  18.418  0.00  0.00    +0.000 A 
ENDBRANCH  12  13
ENDBRANCH  10  12
ENDBRANCH   1   9
BRANCH   6  23
ATOM     23  S   UNL     1       4.584   3.989  18.071  0.00  0.00    +0.000 S 
ATOM     24  O   UNL     1       5.753   3.714  18.869  0.00  0.00    +0.000 OA
ATOM     25  O   UNL     1       3.760   2.902  17.583  0.00  0.00    +0.000 OA
BRANCH  23  26
ATOM     26  N   UNL     1       5.030   4.875  16.709  0.00  0.00    +0.000 NA
ATOM     27  H   UNL     1       4.610   5.802  16.669  0.00  0.00    +0.000 HD
BRANCH  26  28
ATOM     28  C   UNL     1       6.450   4.852  16.334  0.00  0.00    +0.000 C 
BRANCH  28  29
ATOM     29  C   UNL     1       6.630   4.596  14.854  0.00  0.00    +0.000 A 
ATOM     30  C   UNL     1       5.786   3.702  14.179  0.00  0.00    +0.000 A 
ATOM     31  C   UNL     1       5.924   3.496  12.803  0.00  0.00    +0.000 A 
ATOM     32  C   UNL     1       6.902   4.182  12.087  0.00  0.00    +0.000 A 
ATOM     33  C   UNL     1       7.750   5.071  12.746  0.00  0.00    +0.000 A 
ATOM     34  C   UNL     1       7.616   5.277  14.122  0.00  0.00    +0.000 A 
ENDBRANCH  28  29
ENDBRANCH  26  28
ENDBRANCH  23  26
ENDBRANCH   6  23
TORSDOF 7
ENDMDL
MODEL 5
REMARK VINA RESULT:      -8.7      2.712      4.126
REMARK  Name = 
REMARK  7 active torsions:
REMARK  status: ('A' for Active; 'I' for Inactive)
REMARK    1  A    between atoms: C_2  and  C_15
REMARK    2  A    between atoms: N_3  and  C_4
REMARK    3  A    between atoms: C_4  and  C_5
REMARK    4  A    between atoms: C_20  and  S_21
REMARK    5  A    between atoms: S_21  and  N_24
REMARK    6  A    between atoms: N_24  and  C_25
REMARK    7  A    between atoms: C_25  and  C_26
REMARK                            x       y       z     vdW  Elec       q    Type
REMARK                         _______ _______ _______ _____ _____    ______ ____
ROOT
ATOM      1  C   UNL     1       2.620   7.023  19.362  0.00  0.00    +0.000 A 
ATOM      2  C   UNL     1       2.413   7.739  18.177  0.00  0.00    +0.000 A 
ATOM      3  C   UNL     1       3.257   7.559  17.077  0.00  0.00    +0.000 A 
ATOM      4  C   UNL     1       4.328   6.657  17.134  0.00  0.00    +0.000 A 
ATOM      5 CL   UNL     1       5.276   6.537  15.700  0.00  0.00    +0.000 Cl
ATOM      6  C   UNL     1       4.535   5.921  18.301  0.00  0.00    +0.000 A 
ATOM      7  C   UNL     1       3.682   6.111  19.417  0.00  0.00    +0.000 A 
ENDROOT
BRANCH   1   9
ATOM      8  O   UNL     1       1.230   6.349  21.142  0.00  0.00    +0.000 OA
ATOM      9  C   UNL     1       1.685   7.292  20.498  0.00  0.00    +0.000 C 
ATOM     10  N   UNL     1       1.355   8.592  20.788  0.00  0.00    +0.000 N 
ATOM     11  H   UNL     1       1.650   9.397  20.249  0.00  0.00    +0.000 HD
BRANCH  10  12
ATOM     12  C   UNL     1       0.418   8.887  21.858  0.00  0.00    +0.000 C 
BRANCH  12  13
ATOM     13  C   UNL     1      -0.242  10.244  21.711  0.00  0.00    +0.000 A 
ATOM     14  N   UNL     1      -0.333  10.992  22.852  0.00  0.00    +0.000 NA
ATOM     15  C   UNL     1      -0.935  12.193  22.755  0.00  0.00    +0.000 A 
ATOM     16  C   UNL     1      -1.455  12.703  21.578  0.00  0.00    +0.000 A 
ATOM     17  C   UNL     1      -1.352  11.946  20.408  0.00  0.00    +0.000 A 
ATOM     18  C   UNL     1      -1.861  12.435  19.193  0.00  0.00    +0.000 A 
ATOM     19  C   UNL     1      -1.764  11.687  18.020  0.00  0.00    +0.000 A 
ATOM     20  C   UNL     1      -1.156  10.437  18.048  0.00  0.00    +0.000 A 
ATOM     21  C   UNL     1      -0.646   9.936  19.249  0.00  0.00    +0.000 A 
ATOM     22  C   UNL     1      -0.732  10.677  20.453  0.00  0.00    +0.000 A 
ENDBRANCH  12  13
ENDBRANCH  10  12
ENDBRANCH   1   9
BRANCH   6  23
ATOM     23  S   UNL     1       5.922   4.825  18.541  0.00  0.00    +0.000 S 
ATOM     24  O   UNL     1       6.884   5.000  17.481  0.00  0.00    +0.000 OA
ATOM     25  O   UNL     1       6.320   4.983  19.924  0.00  0.00    +0.000 OA
BRANCH  23  26
ATOM     26  N   UNL     1       5.241   3.288  18.431  0.00  0.00    +0.000 NA
ATOM     27  H   UNL     1       5.762   2.651  17.832  0.00  0.00    +0.000 HD
BRANCH  26  28
ATOM     28  C   UNL     1       4.775   2.674  19.682  0.00  0.00    +0.000 C 
BRANCH  28  29
ATOM     29  C   UNL     1       3.275   2.796  19.837  0.00  0.00    +0.000 A 
ATOM     30  C   UNL     1       2.444   2.839  18.707  0.00  0.00    +0.000 A 
ATOM     31  C   UNL     1       1.055   2.909  18.849  0.00  0.00    +0.000 A 
ATOM     32  C   UNL     1       0.481   2.932  20.118  0.00  0.00    +0.000 A 
ATOM     33  C   UNL     1       1.296   2.892  21.249  0.00  0.00    +0.000 A 
ATOM     34  C   UNL     1       2.685   2.826  21.110  0.00  0.00    +0.000 A 
ENDBRANCH  28  29
ENDBRANCH  26  28
ENDBRANCH  23  26
ENDBRANCH   6  23
TORSDOF 7
ENDMDL
MODEL 6
REMARK VINA RESULT:      -8.7      0.953      1.346
REMARK  Name = 
REMARK  7 active torsions:
REMARK  status: ('A' for Active; 'I' for Inactive)
REMARK    1  A    between atoms: C_2  and  C_15
REMARK    2  A    between atoms: N_3  and  C_4
REMARK    3  A    between atoms: C_4  and  C_5
REMARK    4  A    between atoms: C_20  and  S_21
REMARK    5  A    between atoms: S_21  and  N_24
REMARK    6  A    between atoms: N_24  and  C_25
REMARK    7  A    between atoms: C_25  and  C_26
REMARK                            x       y       z     vdW  Elec       q    Type
REMARK                         _______ _______ _______ _____ _____    ______ ____
ROOT
ATOM      1  C   UNL     1       2.495   6.555  19.287  0.00  0.00    +0.000 A 
ATOM      2  C   UNL     1       1.636   6.368  20.377  0.00  0.00    +0.000 A 
ATOM      3  C   UNL     1       1.621   5.158  21.076  0.00  0.00    +0.000 A 
ATOM      4  C   UNL     1       2.466   4.104  20.704  0.00  0.00    +0.000 A 
ATOM      5 CL   UNL     1       2.342   2.677  21.662  0.00  0.00    +0.000 Cl
ATOM      6  C   UNL     1       3.342   4.281  19.632  0.00  0.00    +0.000 A 
ATOM      7  C   UNL     1       3.350   5.507  18.921  0.00  0.00    +0.000 A 
ENDROOT
BRANCH   1   9
ATOM      8  O   UNL     1       3.255   8.128  17.706  0.00  0.00    +0.000 OA
ATOM      9  C   UNL     1       2.431   7.872  18.581  0.00  0.00    +0.000 C 
ATOM     10  N   UNL     1       1.451   8.765  18.936  0.00  0.00    +0.000 N 
ATOM     11  H   UNL     1       0.792   8.628  19.692  0.00  0.00    +0.000 HD
BRANCH  10  12
ATOM     12  C   UNL     1       1.385  10.068  18.299  0.00  0.00    +0.000 C 
BRANCH  12  13
ATOM     13  C   UNL     1       0.285  10.947  18.861  0.00  0.00    +0.000 A 
ATOM     14  N   UNL     1       0.659  11.820  19.845  0.00  0.00    +0.000 NA
ATOM     15  C   UNL     1      -0.303  12.597  20.378  0.00  0.00    +0.000 A 
ATOM     16  C   UNL     1      -1.629  12.562  19.985  0.00  0.00    +0.000 A 
ATOM     17  C   UNL     1      -2.012  11.681  18.971  0.00  0.00    +0.000 A 
ATOM     18  C   UNL     1      -3.349  11.622  18.540  0.00  0.00    +0.000 A 
ATOM     19  C   UNL     1      -3.741  10.745  17.530  0.00  0.00    +0.000 A 
ATOM     20  C   UNL     1      -2.800   9.911  16.937  0.00  0.00    +0.000 A 
ATOM     21  C   UNL     1      -1.467   9.955  17.355  0.00  0.00    +0.000 A 
ATOM     22  C   UNL     1      -1.044  10.839  18.379  0.00  0.00    +0.000 A 
ENDBRANCH  12  13
ENDBRANCH  10  12
ENDBRANCH   1   9
BRANCH   6  23
ATOM     23  S   UNL     1       4.388   2.986  18.991  0.00  0.00    +0.000 S 
ATOM     24  O   UNL     1       5.061   2.308  20.071  0.00  0.00    +0.000 OA
ATOM     25  O   UNL     1       3.571   2.241  18.056  0.00  0.00    +0.000 OA
BRANCH  23  26
ATOM     26  N   UNL     1       5.521   3.812  18.056  0.00  0.00    +0.000 NA
ATOM     27  H   UNL     1       5.108   4.491  17.419  0.00  0.00    +0.000 HD
BRANCH  26  28
ATOM     28  C   UNL     1       6.724   4.301  18.743  0.00  0.00    +0.000 C 
BRANCH  28  29
ATOM     29  C   UNL     1       7.053   5.723  18.345  0.00  0.00    +0.000 A 
ATOM     30  C   UNL     1       8.074   6.426  19.001  0.00  0.00    +0.000 A 
ATOM     31  C   UNL     1       8.408   7.725  18.606  0.00  0.00    +0.000 A 
ATOM     32  C   UNL     1       7.730   8.333  17.552  0.00  0.00    +0.000 A 
ATOM     33  C   UNL     1       6.711   7.646  16.894  0.00  0.00    +0.000 A 
ATOM     34  C   UNL     1       6.372   6.348  17.288  0.00  0.00    +0.000 A 
ENDBRANCH  28  29
ENDBRANCH  26  28
ENDBRANCH  23  26
ENDBRANCH   6  23
TORSDOF 7
ENDMDL
MODEL 7
REMARK VINA RESULT:      -8.6      2.984      9.104
REMARK  Name = 
REMARK  7 active torsions:
REMARK  status: ('A' for Active; 'I' for Inactive)
REMARK    1  A    between atoms: C_2  and  C_15
REMARK    2  A    between atoms: N_3  and  C_4
REMARK    3  A    between atoms: C_4  and  C_5
REMARK    4  A    between atoms: C_20  and  S_21
REMARK    5  A    between atoms: S_21  and  N_24
REMARK    6  A    between atoms: N_24  and  C_25
REMARK    7  A    between atoms: C_25  and  C_26
REMARK                            x       y       z     vdW  Elec       q    Type
REMARK                         _______ _______ _______ _____ _____    ______ ____
ROOT
ATOM      1  C   UNL     1       1.806   7.800  19.837  0.00  0.00    +0.000 A 
ATOM      2  C   UNL     1       1.211   7.612  21.090  0.00  0.00    +0.000 A 
ATOM      3  C   UNL     1       0.600   8.678  21.759  0.00  0.00    +0.000 A 
ATOM      4  C   UNL     1       0.569   9.958  21.190  0.00  0.00    +0.000 A 
ATOM      5 CL   UNL     1      -0.224  11.168  22.126  0.00  0.00    +0.000 Cl
ATOM      6  C   UNL     1       1.140  10.157  19.932  0.00  0.00    +0.000 A 
ATOM      7  C   UNL     1       1.765   9.077  19.260  0.00  0.00    +0.000 A 
ENDROOT
BRANCH   1   9
ATOM      8  O   UNL     1       2.249   6.374  18.014  0.00  0.00    +0.000 OA
ATOM      9  C   UNL     1       2.457   6.613  19.201  0.00  0.00    +0.000 C 
ATOM     10  N   UNL     1       3.269   5.816  19.968  0.00  0.00    +0.000 N 
ATOM     11  H   UNL     1       3.420   5.932  20.963  0.00  0.00    +0.000 HD
BRANCH  10  12
ATOM     12  C   UNL     1       3.885   4.633  19.394  0.00  0.00    +0.000 C 
BRANCH  12  13
ATOM     13  C   UNL     1       5.287   4.885  18.877  0.00  0.00    +0.000 A 
ATOM     14  N   UNL     1       6.203   5.296  19.806  0.00  0.00    +0.000 NA
ATOM     15  C   UNL     1       7.452   5.549  19.370  0.00  0.00    +0.000 A 
ATOM     16  C   UNL     1       7.852   5.414  18.052  0.00  0.00    +0.000 A 
ATOM     17  C   UNL     1       6.921   4.983  17.103  0.00  0.00    +0.000 A 
ATOM     18  C   UNL     1       7.293   4.827  15.756  0.00  0.00    +0.000 A 
ATOM     19  C   UNL     1       6.371   4.399  14.802  0.00  0.00    +0.000 A 
ATOM     20  C   UNL     1       5.063   4.122  15.181  0.00  0.00    +0.000 A 
ATOM     21  C   UNL     1       4.677   4.273  16.516  0.00  0.00    +0.000 A 
ATOM     22  C   UNL     1       5.595   4.706  17.505  0.00  0.00    +0.000 A 
ENDBRANCH  12  13
ENDBRANCH  10  12
ENDBRANCH   1   9
BRANCH   6  23
ATOM     23  S   UNL     1       1.263  11.755  19.149  0.00  0.00    +0.000 S 
ATOM     24  O   UNL     1       1.264  12.799  20.144  0.00  0.00    +0.000 OA
ATOM     25  O   UNL     1       2.351  11.650  18.198  0.00  0.00    +0.000 OA
BRANCH  23  26
ATOM     26  N   UNL     1      -0.144  11.859  18.228  0.00  0.00    +0.000 NA
ATOM     27  H   UNL     1       0.012  11.742  17.228  0.00  0.00    +0.000 HD
BRANCH  26  28
ATOM     28  C   UNL     1      -1.324  11.144  18.730  0.00  0.00    +0.000 C 
BRANCH  28  29
ATOM     29  C   UNL     1      -2.314  10.856  17.623  0.00  0.00    +0.000 A 
ATOM     30  C   UNL     1      -3.548  11.522  17.582  0.00  0.00    +0.000 A 
ATOM     31  C   UNL     1      -4.446  11.289  16.536  0.00  0.00    +0.000 A 
ATOM     32  C   UNL     1      -4.121  10.394  15.520  0.00  0.00    +0.000 A 
ATOM     33  C   UNL     1      -2.899   9.723  15.551  0.00  0.00    +0.000 A 
ATOM     34  C   UNL     1      -2.000   9.952  16.596  0.00  0.00    +0.000 A 
ENDBRANCH  28  29
ENDBRANCH  26  28
ENDBRANCH  23  26
ENDBRANCH   6  23
TORSDOF 7
ENDMDL
MODEL 8
REMARK VINA RESULT:      -8.6      1.478      2.307
REMARK  Name = 
REMARK  7 active torsions:
REMARK  status: ('A' for Active; 'I' for Inactive)
REMARK    1  A    between atoms: C_2  and  C_15
REMARK    2  A    between atoms: N_3  and  C_4
REMARK    3  A    between atoms: C_4  and  C_5
REMARK    4  A    between atoms: C_20  and  S_21
REMARK    5  A    between atoms: S_21  and  N_24
REMARK    6  A    between atoms: N_24  and  C_25
REMARK    7  A    between atoms: C_25  and  C_26
REMARK                            x       y       z     vdW  Elec       q    Type
REMARK                         _______ _______ _______ _____ _____    ______ ____
ROOT
ATOM      1  C   UNL     1       2.311   6.866  18.945  0.00  0.00    +0.000 A 
ATOM      2  C   UNL     1       1.846   6.659  20.250  0.00  0.00    +0.000 A 
ATOM      3  C   UNL     1       1.863   5.382  20.820  0.00  0.00    +0.000 A 
ATOM      4  C   UNL     1       2.346   4.281  20.099  0.00  0.00    +0.000 A 
ATOM      5 CL   UNL     1       2.311   2.774  20.933  0.00  0.00    +0.000 Cl
ATOM      6  C   UNL     1       2.831   4.475  18.805  0.00  0.00    +0.000 A 
ATOM      7  C   UNL     1       2.806   5.769  18.228  0.00  0.00    +0.000 A 
ENDROOT
BRANCH   1   9
ATOM      8  O   UNL     1       2.936   8.571  17.443  0.00  0.00    +0.000 OA
ATOM      9  C   UNL     1       2.237   8.259  18.404  0.00  0.00    +0.000 C 
ATOM     10  N   UNL     1       1.388   9.156  19.003  0.00  0.00    +0.000 N 
ATOM     11  H   UNL     1       0.842   8.967  19.835  0.00  0.00    +0.000 HD
BRANCH  10  12
ATOM     12  C   UNL     1       1.321  10.527  18.529  0.00  0.00    +0.000 C 
BRANCH  12  13
ATOM     13  C   UNL     1       0.323  11.371  19.297  0.00  0.00    +0.000 A 
ATOM     14  N   UNL     1      -0.149  12.478  18.648  0.00  0.00    +0.000 NA
ATOM     15  C   UNL     1      -1.021  13.259  19.315  0.00  0.00    +0.000 A 
ATOM     16  C   UNL     1      -1.458  13.002  20.603  0.00  0.00    +0.000 A 
ATOM     17  C   UNL     1      -0.986  11.865  21.264  0.00  0.00    +0.000 A 
ATOM     18  C   UNL     1      -1.414  11.567  22.570  0.00  0.00    +0.000 A 
ATOM     19  C   UNL     1      -0.948  10.436  23.238  0.00  0.00    +0.000 A 
ATOM     20  C   UNL     1      -0.045   9.587  22.609  0.00  0.00    +0.000 A 
ATOM     21  C   UNL     1       0.392   9.869  21.312  0.00  0.00    +0.000 A 
ATOM     22  C   UNL     1      -0.068  11.012  20.612  0.00  0.00    +0.000 A 
ENDBRANCH  12  13
ENDBRANCH  10  12
ENDBRANCH   1   9
BRANCH   6  23
ATOM     23  S   UNL     1       3.370   3.145  17.746  0.00  0.00    +0.000 S 
ATOM     24  O   UNL     1       4.337   2.323  18.431  0.00  0.00    +0.000 OA
ATOM     25  O   UNL     1       2.164   2.555  17.202  0.00  0.00    +0.000 OA
BRANCH  23  26
ATOM     26  N   UNL     1       4.116   3.935  16.459  0.00  0.00    +0.000 NA
ATOM     27  H   UNL     1       3.791   4.890  16.321  0.00  0.00    +0.000 HD
BRANCH  26  28
ATOM     28  C   UNL     1       5.572   3.783  16.337  0.00  0.00    +0.000 C 
BRANCH  28  29
ATOM     29  C   UNL     1       6.310   4.900  17.040  0.00  0.00    +0.000 A 
ATOM     30  C   UNL     1       7.124   4.627  18.149  0.00  0.00    +0.000 A 
ATOM     31  C   UNL     1       7.840   5.652  18.774  0.00  0.00    +0.000 A 
ATOM     32  C   UNL     1       7.754   6.958  18.298  0.00  0.00    +0.000 A 
ATOM     33  C   UNL     1       6.946   7.244  17.198  0.00  0.00    +0.000 A 
ATOM     34  C   UNL     1       6.226   6.222  16.573  0.00  0.00    +0.000 A 
ENDBRANCH  28  29
ENDBRANCH  26  28
ENDBRANCH  23  26
ENDBRANCH   6  23
TORSDOF 7
ENDMDL
MODEL 9
REMARK VINA RESULT:      -8.5      1.096      1.633
REMARK  Name = 
REMARK  7 active torsions:
REMARK  status: ('A' for Active; 'I' for Inactive)
REMARK    1  A    between atoms: C_2  and  C_15
REMARK    2  A    between atoms: N_3  and  C_4
REMARK    3  A    between atoms: C_4  and  C_5
REMARK    4  A    between atoms: C_20  and  S_21
REMARK    5  A    between atoms: S_21  and  N_24
REMARK    6  A    between atoms: N_24  and  C_25
REMARK    7  A    between atoms: C_25  and  C_26
REMARK                            x       y       z     vdW  Elec       q    Type
REMARK                         _______ _______ _______ _____ _____    ______ ____
ROOT
ATOM      1  C   UNL     1       2.183   6.827  19.023  0.00  0.00    +0.000 A 
ATOM      2  C   UNL     1       2.103   6.814  20.421  0.00  0.00    +0.000 A 
ATOM      3  C   UNL     1       2.175   5.611  21.129  0.00  0.00    +0.000 A 
ATOM      4  C   UNL     1       2.330   4.391  20.457  0.00  0.00    +0.000 A 
ATOM      5 CL   UNL     1       2.409   2.993  21.462  0.00  0.00    +0.000 Cl
ATOM      6  C   UNL     1       2.432   4.389  19.065  0.00  0.00    +0.000 A 
ATOM      7  C   UNL     1       2.352   5.609  18.350  0.00  0.00    +0.000 A 
ENDROOT
BRANCH   1   9
ATOM      8  O   UNL     1       2.660   8.336  17.276  0.00  0.00    +0.000 OA
ATOM      9  C   UNL     1       2.076   8.155  18.342  0.00  0.00    +0.000 C 
ATOM     10  N   UNL     1       1.327   9.141  18.934  0.00  0.00    +0.000 N 
ATOM     11  H   UNL     1       0.882   9.064  19.840  0.00  0.00    +0.000 HD
BRANCH  10  12
ATOM     12  C   UNL     1       1.234  10.454  18.321  0.00  0.00    +0.000 C 
BRANCH  12  13
ATOM     13  C   UNL     1       0.048  11.258  18.818  0.00  0.00    +0.000 A 
ATOM     14  N   UNL     1       0.322  12.215  19.754  0.00  0.00    +0.000 NA
ATOM     15  C   UNL     1      -0.716  12.929  20.229  0.00  0.00    +0.000 A 
ATOM     16  C   UNL     1      -2.027  12.748  19.823  0.00  0.00    +0.000 A 
ATOM     17  C   UNL     1      -2.309  11.779  18.857  0.00  0.00    +0.000 A 
ATOM     18  C   UNL     1      -3.627  11.572  18.414  0.00  0.00    +0.000 A 
ATOM     19  C   UNL     1      -3.918  10.607  17.451  0.00  0.00    +0.000 A 
ATOM     20  C   UNL     1      -2.894   9.832  16.919  0.00  0.00    +0.000 A 
ATOM     21  C   UNL     1      -1.579  10.023  17.350  0.00  0.00    +0.000 A 
ATOM     22  C   UNL     1      -1.257  10.999  18.326  0.00  0.00    +0.000 A 
ENDBRANCH  12  13
ENDBRANCH  10  12
ENDBRANCH   1   9
BRANCH   6  23
ATOM     23  S   UNL     1       2.521   2.900  18.086  0.00  0.00    +0.000 S 
ATOM     24  O   UNL     1       1.924   1.798  18.799  0.00  0.00    +0.000 OA
ATOM     25  O   UNL     1       2.045   3.262  16.767  0.00  0.00    +0.000 OA
BRANCH  23  26
ATOM     26  N   UNL     1       4.176   2.630  17.920  0.00  0.00    +0.000 NA
ATOM     27  H   UNL     1       4.417   2.039  17.126  0.00  0.00    +0.000 HD
BRANCH  26  28
ATOM     28  C   UNL     1       5.062   3.791  18.082  0.00  0.00    +0.000 C 
BRANCH  28  29
ATOM     29  C   UNL     1       5.697   4.194  16.770  0.00  0.00    +0.000 A 
ATOM     30  C   UNL     1       6.975   4.772  16.747  0.00  0.00    +0.000 A 
ATOM     31  C   UNL     1       7.582   5.105  15.532  0.00  0.00    +0.000 A 
ATOM     32  C   UNL     1       6.922   4.862  14.329  0.00  0.00    +0.000 A 
ATOM     33  C   UNL     1       5.651   4.290  14.339  0.00  0.00    +0.000 A 
ATOM     34  C   UNL     1       5.040   3.958  15.552  0.00  0.00    +0.000 A 
ENDBRANCH  28  29
ENDBRANCH  26  28
ENDBRANCH  23  26
ENDBRANCH   6  23
TORSDOF 7
ENDMDL
