MODEL 1
REMARK VINA RESULT:      -8.8      0.000      0.000
REMARK  Name = 
REMARK  4 active torsions:
REMARK  status: ('A' for Active; 'I' for Inactive)
REMARK    1  A    between atoms: C_2  and  C_23
REMARK    2  A    between atoms: N_3  and  C_4
REMARK    3  A    between atoms: C_8  and  C_9
REMARK    4  A    between atoms: C_11  and  C_12
REMARK                            x       y       z     vdW  Elec       q    Type
REMARK                         _______ _______ _______ _____ _____    ______ ____
ROOT
ATOM      1  C   UNL     1       4.718   4.980  17.033  0.00  0.00    +0.000 A 
ATOM      2  C   UNL     1       5.037   4.186  18.142  0.00  0.00    +0.000 A 
ATOM      3  C   UNL     1       4.495   4.438  19.397  0.00  0.00    +0.000 A 
ATOM      4  C   UNL     1       3.645   5.518  19.567  0.00  0.00    +0.000 A 
ATOM      5  C   UNL     1       3.352   6.378  18.496  0.00  0.00    +0.000 A 
ATOM      6  C   UNL     1       3.892   6.101  17.224  0.00  0.00    +0.000 A 
ENDROOT
BRANCH   5   7
ATOM      7  C   UNL     1       2.519   7.534  18.796  0.00  0.00    +0.000 A 
ATOM      8  N   UNL     1       1.848   7.779  19.900  0.00  0.00    +0.000 NA
ATOM      9  C   UNL     1       1.306   9.016  19.665  0.00  0.00    +0.000 A 
ATOM     10  N   UNL     1       1.599   9.516  18.454  0.00  0.00    +0.000 NA
ATOM     11  O   UNL     1       2.411   8.534  17.875  0.00  0.00    +0.000 OA
BRANCH   9  12
ATOM     12  C   UNL     1       0.509   9.693  20.684  0.00  0.00    +0.000 A 
ATOM     13  C   UNL     1      -0.294  10.801  20.370  0.00  0.00    +0.000 A 
ATOM     14  C   UNL     1      -1.041  11.445  21.362  0.00  0.00    +0.000 A 
ATOM     15  C   UNL     1      -0.986  10.983  22.672  0.00  0.00    +0.000 A 
ATOM     16  F   UNL     1      -1.701  11.606  23.620  0.00  0.00    +0.000 F 
ATOM     17  C   UNL     1      -0.198   9.888  22.997  0.00  0.00    +0.000 A 
ATOM     18  F   UNL     1      -0.145   9.444  24.261  0.00  0.00    +0.000 F 
ATOM     19  C   UNL     1       0.548   9.241  22.016  0.00  0.00    +0.000 A 
ENDBRANCH   9  12
ENDBRANCH   5   7
BRANCH   1  22
ATOM     20  O   UNL     1       7.297   5.671  15.908  0.00  0.00    +0.000 OA
ATOM     21  C   UNL     1       6.452   5.072  15.246  0.00  0.00    +0.000 C 
ATOM     22  N   UNL     1       5.208   4.680  15.737  0.00  0.00    +0.000 N 
ATOM     23  H   UNL     1       4.677   4.046  15.149  0.00  0.00    +0.000 HD
BRANCH  21  24
ATOM     24  C   UNL     1       6.739   4.706  13.880  0.00  0.00    +0.000 A 
ATOM     25  C   UNL     1       6.265   3.621  13.162  0.00  0.00    +0.000 A 
ATOM     26  C   UNL     1       6.868   3.676  11.888  0.00  0.00    +0.000 A 
ATOM     27  C   UNL     1       7.673   4.791  11.900  0.00  0.00    +0.000 A 
ATOM     28  O   UNL     1       7.596   5.434  13.100  0.00  0.00    +0.000 OA
ENDBRANCH  21  24
ENDBRANCH   1  22
TORSDOF 4
ENDMDL
MODEL 2
REMARK VINA RESULT:      -8.7      0.724      1.378
REMARK  Name = 
REMARK  4 active torsions:
REMARK  status: ('A' for Active; 'I' for Inactive)
REMARK    1  A    between atoms: C_2  and  C_23
REMARK    2  A    between atoms: N_3  and  C_4
REMARK    3  A    between atoms: C_8  and  C_9
REMARK    4  A    between atoms: C_11  and  C_12
REMARK                            x       y       z     vdW  Elec       q    Type
REMARK                         _______ _______ _______ _____ _____    ______ ____
ROOT
ATOM      1  C   UNL     1       4.458   4.686  17.408  0.00  0.00    +0.000 A 
ATOM      2  C   UNL     1       4.617   3.828  18.504  0.00  0.00    +0.000 A 
ATOM      3  C   UNL     1       3.991   4.079  19.721  0.00  0.00    +0.000 A 
ATOM      4  C   UNL     1       3.219   5.219  19.866  0.00  0.00    +0.000 A 
ATOM      5  C   UNL     1       3.088   6.139  18.813  0.00  0.00    +0.000 A 
ATOM      6  C   UNL     1       3.711   5.864  17.579  0.00  0.00    +0.000 A 
ENDROOT
BRANCH   5   7
ATOM      7  C   UNL     1       2.328   7.349  19.094  0.00  0.00    +0.000 A 
ATOM      8  N   UNL     1       1.648   7.639  20.180  0.00  0.00    +0.000 NA
ATOM      9  C   UNL     1       1.197   8.910  19.934  0.00  0.00    +0.000 A 
ATOM     10  N   UNL     1       1.554   9.388  18.731  0.00  0.00    +0.000 NA
ATOM     11  O   UNL     1       2.312   8.353  18.171  0.00  0.00    +0.000 OA
BRANCH   9  12
ATOM     12  C   UNL     1       0.422   9.639  20.934  0.00  0.00    +0.000 A 
ATOM     13  C   UNL     1       0.352   9.203  22.267  0.00  0.00    +0.000 A 
ATOM     14  C   UNL     1      -0.405   9.907  23.209  0.00  0.00    +0.000 A 
ATOM     15  C   UNL     1      -1.095  11.050  22.820  0.00  0.00    +0.000 A 
ATOM     16  F   UNL     1      -1.822  11.720  23.726  0.00  0.00    +0.000 F 
ATOM     17  C   UNL     1      -1.034  11.494  21.506  0.00  0.00    +0.000 A 
ATOM     18  F   UNL     1      -1.701  12.595  21.132  0.00  0.00    +0.000 F 
ATOM     19  C   UNL     1      -0.282  10.799  20.563  0.00  0.00    +0.000 A 
ENDBRANCH   9  12
ENDBRANCH   5   7
BRANCH   1  22
ATOM     20  O   UNL     1       6.419   6.241  15.948  0.00  0.00    +0.000 OA
ATOM     21  C   UNL     1       5.950   5.206  15.481  0.00  0.00    +0.000 C 
ATOM     22  N   UNL     1       5.031   4.393  16.145  0.00  0.00    +0.000 N 
ATOM     23  H   UNL     1       4.857   3.486  15.728  0.00  0.00    +0.000 HD
BRANCH  21  24
ATOM     24  C   UNL     1       6.375   4.749  14.179  0.00  0.00    +0.000 A 
ATOM     25  C   UNL     1       5.841   3.730  13.408  0.00  0.00    +0.000 A 
ATOM     26  C   UNL     1       6.630   3.642  12.242  0.00  0.00    +0.000 A 
ATOM     27  C   UNL     1       7.597   4.611  12.367  0.00  0.00    +0.000 A 
ATOM     28  O   UNL     1       7.448   5.300  13.534  0.00  0.00    +0.000 OA
ENDBRANCH  21  24
ENDBRANCH   1  22
TORSDOF 4
ENDMDL
MODEL 3
REMARK VINA RESULT:      -8.5      4.620      9.842
REMARK  Name = 
REMARK  4 active torsions:
REMARK  status: ('A' for Active; 'I' for Inactive)
REMARK    1  A    between atoms: C_2  and  C_23
REMARK    2  A    between atoms: N_3  and  C_4
REMARK    3  A    between atoms: C_8  and  C_9
REMARK    4  A    between atoms: C_11  and  C_12
REMARK                            x       y       z     vdW  Elec       q    Type
REMARK                         _______ _______ _______ _____ _____    ______ ____
ROOT
ATOM      1  C   UNL     1       2.279   5.362  20.665  0.00  0.00    +0.000 A 
ATOM      2  C   UNL     1       1.927   4.095  21.147  0.00  0.00    +0.000 A 
ATOM      3  C   UNL     1       2.619   2.952  20.761  0.00  0.00    +0.000 A 
ATOM      4  C   UNL     1       3.658   3.060  19.853  0.00  0.00    +0.000 A 
ATOM      5  C   UNL     1       3.999   4.303  19.294  0.00  0.00    +0.000 A 
ATOM      6  C   UNL     1       3.304   5.457  19.708  0.00  0.00    +0.000 A 
ENDROOT
BRANCH   5   7
ATOM      7  C   UNL     1       5.048   4.298  18.283  0.00  0.00    +0.000 A 
ATOM      8  N   UNL     1       4.908   4.258  16.977  0.00  0.00    +0.000 NA
ATOM      9  C   UNL     1       6.200   4.342  16.524  0.00  0.00    +0.000 A 
ATOM     10  N   UNL     1       7.115   4.403  17.505  0.00  0.00    +0.000 NA
ATOM     11  O   UNL     1       6.351   4.379  18.678  0.00  0.00    +0.000 OA
BRANCH   9  12
ATOM     12  C   UNL     1       6.493   4.381  15.095  0.00  0.00    +0.000 A 
ATOM     13  C   UNL     1       5.757   3.617  14.175  0.00  0.00    +0.000 A 
ATOM     14  C   UNL     1       6.060   3.658  12.810  0.00  0.00    +0.000 A 
ATOM     15  C   UNL     1       7.102   4.462  12.361  0.00  0.00    +0.000 A 
ATOM     16  F   UNL     1       7.391   4.495  11.053  0.00  0.00    +0.000 F 
ATOM     17  C   UNL     1       7.837   5.224  13.259  0.00  0.00    +0.000 A 
ATOM     18  F   UNL     1       8.842   5.998  12.825  0.00  0.00    +0.000 F 
ATOM     19  C   UNL     1       7.541   5.190  14.619  0.00  0.00    +0.000 A 
ENDBRANCH   9  12
ENDBRANCH   5   7
BRANCH   1  22
ATOM     20  O   UNL     1       2.094   7.917  19.311  0.00  0.00    +0.000 OA
ATOM     21  C   UNL     1       1.603   7.748  20.425  0.00  0.00    +0.000 C 
ATOM     22  N   UNL     1       1.626   6.537  21.115  0.00  0.00    +0.000 N 
ATOM     23  H   UNL     1       1.040   6.485  21.941  0.00  0.00    +0.000 HD
BRANCH  21  24
ATOM     24  C   UNL     1       0.923   8.839  21.082  0.00  0.00    +0.000 A 
ATOM     25  C   UNL     1       0.639  10.101  20.585  0.00  0.00    +0.000 A 
ATOM     26  C   UNL     1       0.002  10.815  21.621  0.00  0.00    +0.000 A 
ATOM     27  C   UNL     1      -0.069   9.951  22.688  0.00  0.00    +0.000 A 
ATOM     28  O   UNL     1       0.476   8.741  22.372  0.00  0.00    +0.000 OA
ENDBRANCH  21  24
ENDBRANCH   1  22
TORSDOF 4
ENDMDL
MODEL 4
REMARK VINA RESULT:      -8.5      2.271      2.685
REMARK  Name = 
REMARK  4 active torsions:
REMARK  status: ('A' for Active; 'I' for Inactive)
REMARK    1  A    between atoms: C_2  and  C_23
REMARK    2  A    between atoms: N_3  and  C_4
REMARK    3  A    between atoms: C_8  and  C_9
REMARK    4  A    between atoms: C_11  and  C_12
REMARK                            x       y       z     vdW  Elec       q    Type
REMARK                         _______ _______ _______ _____ _____    ______ ____
ROOT
ATOM      1  C   UNL     1       4.252   4.727  17.507  0.00  0.00    +0.000 A 
ATOM      2  C   UNL     1       4.284   3.710  18.470  0.00  0.00    +0.000 A 
ATOM      3  C   UNL     1       3.605   3.829  19.677  0.00  0.00    +0.000 A 
ATOM      4  C   UNL     1       2.907   4.993  19.953  0.00  0.00    +0.000 A 
ATOM      5  C   UNL     1       2.904   6.063  19.044  0.00  0.00    +0.000 A 
ATOM      6  C   UNL     1       3.580   5.923  17.815  0.00  0.00    +0.000 A 
ENDROOT
BRANCH   5   7
ATOM      7  C   UNL     1       2.214   7.275  19.464  0.00  0.00    +0.000 A 
ATOM      8  N   UNL     1       2.025   8.376  18.772  0.00  0.00    +0.000 NA
ATOM      9  C   UNL     1       1.271   9.148  19.617  0.00  0.00    +0.000 A 
ATOM     10  N   UNL     1       1.022   8.569  20.803  0.00  0.00    +0.000 NA
ATOM     11  O   UNL     1       1.645   7.319  20.702  0.00  0.00    +0.000 OA
BRANCH   9  12
ATOM     12  C   UNL     1       0.790  10.463  19.206  0.00  0.00    +0.000 A 
ATOM     13  C   UNL     1       1.677  11.528  18.975  0.00  0.00    +0.000 A 
ATOM     14  C   UNL     1       1.198  12.785  18.592  0.00  0.00    +0.000 A 
ATOM     15  C   UNL     1      -0.170  12.982  18.441  0.00  0.00    +0.000 A 
ATOM     16  F   UNL     1      -0.625  14.190  18.078  0.00  0.00    +0.000 F 
ATOM     17  C   UNL     1      -1.058  11.938  18.664  0.00  0.00    +0.000 A 
ATOM     18  F   UNL     1      -2.377  12.130  18.520  0.00  0.00    +0.000 F 
ATOM     19  C   UNL     1      -0.589  10.684  19.044  0.00  0.00    +0.000 A 
ENDBRANCH   9  12
ENDBRANCH   5   7
BRANCH   1  22
ATOM     20  O   UNL     1       6.958   5.458  16.773  0.00  0.00    +0.000 OA
ATOM     21  C   UNL     1       6.180   4.982  15.950  0.00  0.00    +0.000 C 
ATOM     22  N   UNL     1       4.879   4.577  16.245  0.00  0.00    +0.000 N 
ATOM     23  H   UNL     1       4.405   4.045  15.524  0.00  0.00    +0.000 HD
BRANCH  21  24
ATOM     24  C   UNL     1       6.612   4.783  14.587  0.00  0.00    +0.000 A 
ATOM     25  C   UNL     1       6.119   3.892  13.649  0.00  0.00    +0.000 A 
ATOM     26  C   UNL     1       6.899   4.049  12.484  0.00  0.00    +0.000 A 
ATOM     27  C   UNL     1       7.820   5.026  12.776  0.00  0.00    +0.000 A 
ATOM     28  O   UNL     1       7.652   5.491  14.046  0.00  0.00    +0.000 OA
ENDBRANCH  21  24
ENDBRANCH   1  22
TORSDOF 4
ENDMDL
MODEL 5
REMARK VINA RESULT:      -8.4      4.021      5.264
REMARK  Name = 
REMARK  4 active torsions:
REMARK  status: ('A' for Active; 'I' for Inactive)
REMARK    1  A    between atoms: C_2  and  C_23
REMARK    2  A    between atoms: N_3  and  C_4
REMARK    3  A    between atoms: C_8  and  C_9
REMARK    4  A    between atoms: C_11  and  C_12
REMARK                            x       y       z     vdW  Elec       q    Type
REMARK                         _______ _______ _______ _____ _____    ______ ____
ROOT
ATOM      1  C   UNL     1       2.262   7.322  19.078  0.00  0.00    +0.000 A 
ATOM      2  C   UNL     1       2.278   8.077  17.898  0.00  0.00    +0.000 A 
ATOM      3  C   UNL     1       1.808   9.385  17.865  0.00  0.00    +0.000 A 
ATOM      4  C   UNL     1       1.279   9.947  19.014  0.00  0.00    +0.000 A 
ATOM      5  C   UNL     1       1.182   9.202  20.201  0.00  0.00    +0.000 A 
ATOM      6  C   UNL     1       1.680   7.884  20.228  0.00  0.00    +0.000 A 
ENDROOT
BRANCH   5   7
ATOM      7  C   UNL     1       0.531   9.853  21.329  0.00  0.00    +0.000 A 
ATOM      8  N   UNL     1      -0.193  10.950  21.318  0.00  0.00    +0.000 NA
ATOM      9  C   UNL     1      -0.604  11.064  22.621  0.00  0.00    +0.000 A 
ATOM     10  N   UNL     1      -0.136  10.095  23.424  0.00  0.00    +0.000 NA
ATOM     11  O   UNL     1       0.616   9.284  22.565  0.00  0.00    +0.000 OA
BRANCH   9  12
ATOM     12  C   UNL     1      -1.490  12.146  23.037  0.00  0.00    +0.000 A 
ATOM     13  C   UNL     1      -1.062  13.484  23.038  0.00  0.00    +0.000 A 
ATOM     14  C   UNL     1      -1.921  14.508  23.453  0.00  0.00    +0.000 A 
ATOM     15  C   UNL     1      -3.211  14.197  23.868  0.00  0.00    +0.000 A 
ATOM     16  F   UNL     1      -4.029  15.180  24.267  0.00  0.00    +0.000 F 
ATOM     17  C   UNL     1      -3.648  12.879  23.871  0.00  0.00    +0.000 A 
ATOM     18  F   UNL     1      -4.891  12.580  24.273  0.00  0.00    +0.000 F 
ATOM     19  C   UNL     1      -2.800  11.855  23.459  0.00  0.00    +0.000 A 
ENDBRANCH   9  12
ENDBRANCH   5   7
BRANCH   1  22
ATOM     20  O   UNL     1       1.361   4.957  17.667  0.00  0.00    +0.000 OA
ATOM     21  C   UNL     1       2.306   4.911  18.451  0.00  0.00    +0.000 C 
ATOM     22  N   UNL     1       2.811   6.016  19.134  0.00  0.00    +0.000 N 
ATOM     23  H   UNL     1       3.694   5.878  19.613  0.00  0.00    +0.000 HD
BRANCH  21  24
ATOM     24  C   UNL     1       2.984   3.657  18.683  0.00  0.00    +0.000 A 
ATOM     25  C   UNL     1       2.928   2.496  17.932  0.00  0.00    +0.000 A 
ATOM     26  C   UNL     1       3.729   1.542  18.592  0.00  0.00    +0.000 A 
ATOM     27  C   UNL     1       4.229   2.174  19.705  0.00  0.00    +0.000 A 
ATOM     28  O   UNL     1       3.795   3.465  19.769  0.00  0.00    +0.000 OA
ENDBRANCH  21  24
ENDBRANCH   1  22
TORSDOF 4
ENDMDL
MODEL 6
REMARK VINA RESULT:      -8.2      4.831     10.423
REMARK  Name = 
REMARK  4 active torsions:
REMARK  status: ('A' for Active; 'I' for Inactive)
REMARK    1  A    between atoms: C_2  and  C_23
REMARK    2  A    between atoms: N_3  and  C_4
REMARK    3  A    between atoms: C_8  and  C_9
REMARK    4  A    between atoms: C_11  and  C_12
REMARK                            x       y       z     vdW  Elec       q    Type
REMARK                         _______ _______ _______ _____ _____    ______ ____
ROOT
ATOM      1  C   UNL     1      -1.355  11.838  18.383  0.00  0.00    +0.000 A 
ATOM      2  C   UNL     1      -0.546  12.976  18.494  0.00  0.00    +0.000 A 
ATOM      3  C   UNL     1       0.836  12.879  18.606  0.00  0.00    +0.000 A 
ATOM      4  C   UNL     1       1.429  11.628  18.645  0.00  0.00    +0.000 A 
ATOM      5  C   UNL     1       0.649  10.460  18.604  0.00  0.00    +0.000 A 
ATOM      6  C   UNL     1      -0.749  10.572  18.469  0.00  0.00    +0.000 A 
ENDROOT
BRANCH   5   7
ATOM      7  C   UNL     1       1.360   9.196  18.738  0.00  0.00    +0.000 A 
ATOM      8  N   UNL     1       1.979   8.516  17.800  0.00  0.00    +0.000 NA
ATOM      9  C   UNL     1       2.518   7.459  18.487  0.00  0.00    +0.000 A 
ATOM     10  N   UNL     1       2.227   7.460  19.797  0.00  0.00    +0.000 NA
ATOM     11  O   UNL     1       1.460   8.618  19.969  0.00  0.00    +0.000 OA
BRANCH   9  12
ATOM     12  C   UNL     1       3.346   6.467  17.809  0.00  0.00    +0.000 A 
ATOM     13  C   UNL     1       4.478   6.841  17.066  0.00  0.00    +0.000 A 
ATOM     14  C   UNL     1       5.253   5.877  16.413  0.00  0.00    +0.000 A 
ATOM     15  C   UNL     1       4.898   4.535  16.499  0.00  0.00    +0.000 A 
ATOM     16  F   UNL     1       5.642   3.616  15.868  0.00  0.00    +0.000 F 
ATOM     17  C   UNL     1       3.782   4.151  17.231  0.00  0.00    +0.000 A 
ATOM     18  F   UNL     1       3.440   2.857  17.312  0.00  0.00    +0.000 F 
ATOM     19  C   UNL     1       3.007   5.104  17.885  0.00  0.00    +0.000 A 
ENDBRANCH   9  12
ENDBRANCH   5   7
BRANCH   1  22
ATOM     20  O   UNL     1      -3.387  12.371  20.378  0.00  0.00    +0.000 OA
ATOM     21  C   UNL     1      -3.684  12.163  19.205  0.00  0.00    +0.000 C 
ATOM     22  N   UNL     1      -2.756  11.935  18.190  0.00  0.00    +0.000 N 
ATOM     23  H   UNL     1      -3.119  11.950  17.243  0.00  0.00    +0.000 HD
BRANCH  21  24
ATOM     24  C   UNL     1      -5.071  12.179  18.803  0.00  0.00    +0.000 A 
ATOM     25  C   UNL     1      -5.597  12.133  17.523  0.00  0.00    +0.000 A 
ATOM     26  C   UNL     1      -6.999  12.218  17.653  0.00  0.00    +0.000 A 
ATOM     27  C   UNL     1      -7.249  12.307  19.001  0.00  0.00    +0.000 A 
ATOM     28  O   UNL     1      -6.087  12.273  19.715  0.00  0.00    +0.000 OA
ENDBRANCH  21  24
ENDBRANCH   1  22
TORSDOF 4
ENDMDL
MODEL 7
REMARK VINA RESULT:      -8.2      4.107      5.330
REMARK  Name = 
REMARK  4 active torsions:
REMARK  status: ('A' for Active; 'I' for Inactive)
REMARK    1  A    between atoms: C_2  and  C_23
REMARK    2  A    between atoms: N_3  and  C_4
REMARK    3  A    between atoms: C_8  and  C_9
REMARK    4  A    between atoms: C_11  and  C_12
REMARK                            x       y       z     vdW  Elec       q    Type
REMARK                         _______ _______ _______ _____ _____    ______ ____
ROOT
ATOM      1  C   UNL     1       2.250   7.312  19.108  0.00  0.00    +0.000 A 
ATOM      2  C   UNL     1       2.260   8.063  17.925  0.00  0.00    +0.000 A 
ATOM      3  C   UNL     1       1.783   9.368  17.887  0.00  0.00    +0.000 A 
ATOM      4  C   UNL     1       1.253   9.932  19.035  0.00  0.00    +0.000 A 
ATOM      5  C   UNL     1       1.162   9.192  20.225  0.00  0.00    +0.000 A 
ATOM      6  C   UNL     1       1.668   7.876  20.256  0.00  0.00    +0.000 A 
ENDROOT
BRANCH   5   7
ATOM      7  C   UNL     1       0.510   9.844  21.351  0.00  0.00    +0.000 A 
ATOM      8  N   UNL     1      -0.203  10.948  21.341  0.00  0.00    +0.000 NA
ATOM      9  C   UNL     1      -0.622  11.060  22.641  0.00  0.00    +0.000 A 
ATOM     10  N   UNL     1      -0.168  10.083  23.443  0.00  0.00    +0.000 NA
ATOM     11  O   UNL     1       0.583   9.269  22.586  0.00  0.00    +0.000 OA
BRANCH   9  12
ATOM     12  C   UNL     1      -1.500  12.149  23.057  0.00  0.00    +0.000 A 
ATOM     13  C   UNL     1      -2.818  11.906  23.478  0.00  0.00    +0.000 A 
ATOM     14  C   UNL     1      -3.650  12.964  23.861  0.00  0.00    +0.000 A 
ATOM     15  C   UNL     1      -3.168  14.267  23.823  0.00  0.00    +0.000 A 
ATOM     16  F   UNL     1      -3.970  15.277  24.187  0.00  0.00    +0.000 F 
ATOM     17  C   UNL     1      -1.867  14.521  23.409  0.00  0.00    +0.000 A 
ATOM     18  F   UNL     1      -1.403  15.779  23.371  0.00  0.00    +0.000 F 
ATOM     19  C   UNL     1      -1.032  13.475  23.028  0.00  0.00    +0.000 A 
ENDBRANCH   9  12
ENDBRANCH   5   7
BRANCH   1  22
ATOM     20  O   UNL     1       1.408   4.955  17.648  0.00  0.00    +0.000 OA
ATOM     21  C   UNL     1       2.329   4.908  18.459  0.00  0.00    +0.000 C 
ATOM     22  N   UNL     1       2.806   6.010  19.168  0.00  0.00    +0.000 N 
ATOM     23  H   UNL     1       3.675   5.873  19.672  0.00  0.00    +0.000 HD
BRANCH  21  24
ATOM     24  C   UNL     1       3.008   3.657  18.701  0.00  0.00    +0.000 A 
ATOM     25  C   UNL     1       2.895   2.467  18.002  0.00  0.00    +0.000 A 
ATOM     26  C   UNL     1       3.726   1.530  18.650  0.00  0.00    +0.000 A 
ATOM     27  C   UNL     1       4.301   2.200  19.704  0.00  0.00    +0.000 A 
ATOM     28  O   UNL     1       3.883   3.498  19.741  0.00  0.00    +0.000 OA
ENDBRANCH  21  24
ENDBRANCH   1  22
TORSDOF 4
ENDMDL
MODEL 8
REMARK VINA RESULT:      -8.2      4.847     10.237
REMARK  Name = 
REMARK  4 active torsions:
REMARK  status: ('A' for Active; 'I' for Inactive)
REMARK    1  A    between atoms: C_2  and  C_23
REMARK    2  A    between atoms: N_3  and  C_4
REMARK    3  A    between atoms: C_8  and  C_9
REMARK    4  A    between atoms: C_11  and  C_12
REMARK                            x       y       z     vdW  Elec       q    Type
REMARK                         _______ _______ _______ _____ _____    ______ ____
ROOT
ATOM      1  C   UNL     1      -1.361  11.829  18.647  0.00  0.00    +0.000 A 
ATOM      2  C   UNL     1      -0.521  12.947  18.570  0.00  0.00    +0.000 A 
ATOM      3  C   UNL     1       0.862  12.817  18.515  0.00  0.00    +0.000 A 
ATOM      4  C   UNL     1       1.429  11.556  18.573  0.00  0.00    +0.000 A 
ATOM      5  C   UNL     1       0.627  10.412  18.718  0.00  0.00    +0.000 A 
ATOM      6  C   UNL     1      -0.775  10.555  18.752  0.00  0.00    +0.000 A 
ENDROOT
BRANCH   5   7
ATOM      7  C   UNL     1       1.323   9.140  18.857  0.00  0.00    +0.000 A 
ATOM      8  N   UNL     1       1.884   8.421  17.911  0.00  0.00    +0.000 NA
ATOM      9  C   UNL     1       2.439   7.376  18.603  0.00  0.00    +0.000 A 
ATOM     10  N   UNL     1       2.212   7.421  19.926  0.00  0.00    +0.000 NA
ATOM     11  O   UNL     1       1.473   8.597  20.099  0.00  0.00    +0.000 OA
BRANCH   9  12
ATOM     12  C   UNL     1       3.217   6.349  17.917  0.00  0.00    +0.000 A 
ATOM     13  C   UNL     1       2.831   4.999  17.944  0.00  0.00    +0.000 A 
ATOM     14  C   UNL     1       3.596   4.026  17.291  0.00  0.00    +0.000 A 
ATOM     15  C   UNL     1       4.749   4.400  16.610  0.00  0.00    +0.000 A 
ATOM     16  F   UNL     1       5.479   3.464  15.989  0.00  0.00    +0.000 F 
ATOM     17  C   UNL     1       5.141   5.732  16.574  0.00  0.00    +0.000 A 
ATOM     18  F   UNL     1       6.254   6.091  15.919  0.00  0.00    +0.000 F 
ATOM     19  C   UNL     1       4.386   6.706  17.220  0.00  0.00    +0.000 A 
ENDBRANCH   9  12
ENDBRANCH   5   7
BRANCH   1  22
ATOM     20  O   UNL     1      -3.183  10.987  16.558  0.00  0.00    +0.000 OA
ATOM     21  C   UNL     1      -3.590  11.555  17.569  0.00  0.00    +0.000 C 
ATOM     22  N   UNL     1      -2.772  11.954  18.625  0.00  0.00    +0.000 N 
ATOM     23  H   UNL     1      -3.249  12.252  19.469  0.00  0.00    +0.000 HD
BRANCH  21  24
ATOM     24  C   UNL     1      -5.001  11.816  17.726  0.00  0.00    +0.000 A 
ATOM     25  C   UNL     1      -5.876  11.286  18.659  0.00  0.00    +0.000 A 
ATOM     26  C   UNL     1      -7.151  11.817  18.374  0.00  0.00    +0.000 A 
ATOM     27  C   UNL     1      -6.982  12.641  17.286  0.00  0.00    +0.000 A 
ATOM     28  O   UNL     1      -5.678  12.660  16.888  0.00  0.00    +0.000 OA
ENDBRANCH  21  24
ENDBRANCH   1  22
TORSDOF 4
ENDMDL
MODEL 9
REMARK VINA RESULT:      -8.2      2.506      2.985
REMARK  Name = 
REMARK  4 active torsions:
REMARK  status: ('A' for Active; 'I' for Inactive)
REMARK    1  A    between atoms: C_2  and  C_23
REMARK    2  A    between atoms: N_3  and  C_4
REMARK    3  A    between atoms: C_8  and  C_9
REMARK    4  A    between atoms: C_11  and  C_12
REMARK                            x       y       z     vdW  Elec       q    Type
REMARK                         _______ _______ _______ _____ _____    ______ ____
ROOT
ATOM      1  C   UNL     1       3.794   4.908  17.996  0.00  0.00    +0.000 A 
ATOM      2  C   UNL     1       3.705   3.894  18.958  0.00  0.00    +0.000 A 
ATOM      3  C   UNL     1       2.975   4.063  20.129  0.00  0.00    +0.000 A 
ATOM      4  C   UNL     1       2.347   5.273  20.370  0.00  0.00    +0.000 A 
ATOM      5  C   UNL     1       2.466   6.339  19.463  0.00  0.00    +0.000 A 
ATOM      6  C   UNL     1       3.192   6.149  18.270  0.00  0.00    +0.000 A 
ENDROOT
BRANCH   5   7
ATOM      7  C   UNL     1       1.842   7.597  19.849  0.00  0.00    +0.000 A 
ATOM      8  N   UNL     1       1.747   8.700  19.141  0.00  0.00    +0.000 NA
ATOM      9  C   UNL     1       1.017   9.528  19.954  0.00  0.00    +0.000 A 
ATOM     10  N   UNL     1       0.690   8.979  21.135  0.00  0.00    +0.000 NA
ATOM     11  O   UNL     1       1.234   7.691  21.066  0.00  0.00    +0.000 OA
BRANCH   9  12
ATOM     12  C   UNL     1       0.637  10.868  19.515  0.00  0.00    +0.000 A 
ATOM     13  C   UNL     1      -0.662  11.362  19.716  0.00  0.00    +0.000 A 
ATOM     14  C   UNL     1      -1.013  12.644  19.277  0.00  0.00    +0.000 A 
ATOM     15  C   UNL     1      -0.066  13.434  18.635  0.00  0.00    +0.000 A 
ATOM     16  F   UNL     1      -0.407  14.659  18.213  0.00  0.00    +0.000 F 
ATOM     17  C   UNL     1       1.222  12.957  18.431  0.00  0.00    +0.000 A 
ATOM     18  F   UNL     1       2.134  13.719  17.810  0.00  0.00    +0.000 F 
ATOM     19  C   UNL     1       1.580  11.684  18.865  0.00  0.00    +0.000 A 
ENDBRANCH   9  12
ENDBRANCH   5   7
BRANCH   1  22
ATOM     20  O   UNL     1       6.478   5.749  17.299  0.00  0.00    +0.000 OA
ATOM     21  C   UNL     1       5.758   5.173  16.487  0.00  0.00    +0.000 C 
ATOM     22  N   UNL     1       4.473   4.712  16.767  0.00  0.00    +0.000 N 
ATOM     23  H   UNL     1       4.056   4.106  16.070  0.00  0.00    +0.000 HD
BRANCH  21  24
ATOM     24  C   UNL     1       6.249   4.910  15.154  0.00  0.00    +0.000 A 
ATOM     25  C   UNL     1       5.681   4.122  14.167  0.00  0.00    +0.000 A 
ATOM     26  C   UNL     1       6.560   4.148  13.065  0.00  0.00    +0.000 A 
ATOM     27  C   UNL     1       7.612   4.950  13.440  0.00  0.00    +0.000 A 
ATOM     28  O   UNL     1       7.432   5.430  14.703  0.00  0.00    +0.000 OA
ENDBRANCH  21  24
ENDBRANCH   1  22
TORSDOF 4
ENDMDL
