MODEL 1
REMARK VINA RESULT:      -7.7      0.000      0.000
REMARK  Name = 
REMARK  3 active torsions:
REMARK  status: ('A' for Active; 'I' for Inactive)
REMARK    1  A    between atoms: C_1  and  C_2
REMARK    2  A    between atoms: C_3  and  C_4
REMARK    3  A    between atoms: C_14  and  C_15
REMARK                            x       y       z     vdW  Elec       q    Type
REMARK                         _______ _______ _______ _____ _____    ______ ____
ROOT
ATOM      1  C   UNL     1       1.681  10.822  18.777  0.00  0.00    +0.000 C 
ATOM      2  C   UNL     1       1.236   9.868  19.849  0.00  0.00    +0.000 A 
ATOM      3  C   UNL     1       0.435  10.201  20.946  0.00  0.00    +0.000 A 
ATOM      4  S   UNL     1      -0.028   8.777  21.793  0.00  0.00    +0.000 S 
ATOM      5  C   UNL     1       1.024   7.785  20.895  0.00  0.00    +0.000 A 
ATOM      6  N   UNL     1       1.204   6.472  21.197  0.00  0.00    +0.000 NA
ATOM      7  C   UNL     1       1.905   5.794  20.337  0.00  0.00    +0.000 A 
ATOM      8  N   UNL     1       2.431   6.297  19.156  0.00  0.00    +0.000 N 
ATOM      9  C   UNL     1       2.317   7.680  18.863  0.00  0.00    +0.000 A 
ATOM     10  O   UNL     1       2.823   8.187  17.860  0.00  0.00    +0.000 OA
ATOM     11  C   UNL     1       1.561   8.450  19.826  0.00  0.00    +0.000 A 
ATOM     12  C   UNL     1       3.110   5.439  18.188  0.00  0.00    +0.000 C 
ATOM     13  C   UNL     1       2.170   4.413  17.542  0.00  0.00    +0.000 C 
ATOM     14  C   UNL     1       1.909   3.168  18.392  0.00  0.00    +0.000 C 
ATOM     15  C   UNL     1       1.269   3.447  19.748  0.00  0.00    +0.000 C 
ATOM     16  C   UNL     1       2.131   4.325  20.643  0.00  0.00    +0.000 C 
ENDROOT
BRANCH   3  17
ATOM     17  C   UNL     1      -0.224  11.493  21.205  0.00  0.00    +0.000 C 
ATOM     18  O   UNL     1       0.066  12.092  22.249  0.00  0.00    +0.000 OA
ATOM     19  N   UNL     1      -1.121  12.098  20.291  0.00  0.00    +0.000 N 
ATOM     20  C   UNL     1      -0.801  13.456  19.979  0.00  0.00    +0.000 A 
ATOM     21  C   UNL     1      -0.414  14.466  20.840  0.00  0.00    +0.000 A 
ATOM     22  C   UNL     1       0.482  15.417  20.361  0.00  0.00    +0.000 A 
ATOM     23  C   UNL     1       0.987  15.303  19.058  0.00  0.00    +0.000 A 
ATOM     24  C   UNL     1       0.432  14.388  18.157  0.00  0.00    +0.000 A 
ATOM     25  C   UNL     1      -0.548  13.529  18.615  0.00  0.00    +0.000 A 
ATOM     26  C   UNL     1      -1.299  12.466  17.884  0.00  0.00    +0.000 C 
ATOM     27  C   UNL     1      -1.822  11.605  19.062  0.00  0.00    +0.000 C 
ATOM     28  C   UNL     1      -1.925  10.128  18.723  0.00  0.00    +0.000 C 
ENDBRANCH   3  17
TORSDOF 1
ENDMDL
MODEL 2
REMARK VINA RESULT:      -7.4      1.871      2.868
REMARK  Name = 
REMARK  3 active torsions:
REMARK  status: ('A' for Active; 'I' for Inactive)
REMARK    1  A    between atoms: C_1  and  C_2
REMARK    2  A    between atoms: C_3  and  C_4
REMARK    3  A    between atoms: C_14  and  C_15
REMARK                            x       y       z     vdW  Elec       q    Type
REMARK                         _______ _______ _______ _____ _____    ______ ____
ROOT
ATOM      1  C   UNL     1       0.699   7.630  21.558  0.00  0.00    +0.000 C 
ATOM      2  C   UNL     1       1.256   8.259  20.312  0.00  0.00    +0.000 A 
ATOM      3  C   UNL     1       0.983   9.558  19.871  0.00  0.00    +0.000 A 
ATOM      4  S   UNL     1       1.998   9.956  18.540  0.00  0.00    +0.000 S 
ATOM      5  C   UNL     1       2.580   8.363  18.385  0.00  0.00    +0.000 A 
ATOM      6  N   UNL     1       3.393   7.994  17.361  0.00  0.00    +0.000 NA
ATOM      7  C   UNL     1       3.893   6.797  17.451  0.00  0.00    +0.000 A 
ATOM      8  N   UNL     1       3.688   5.918  18.504  0.00  0.00    +0.000 N 
ATOM      9  C   UNL     1       2.784   6.259  19.543  0.00  0.00    +0.000 A 
ATOM     10  O   UNL     1       2.517   5.487  20.467  0.00  0.00    +0.000 OA
ATOM     11  C   UNL     1       2.201   7.578  19.440  0.00  0.00    +0.000 A 
ATOM     12  C   UNL     1       4.379   4.634  18.583  0.00  0.00    +0.000 C 
ATOM     13  C   UNL     1       5.895   4.787  18.771  0.00  0.00    +0.000 C 
ATOM     14  C   UNL     1       6.668   5.071  17.483  0.00  0.00    +0.000 C 
ATOM     15  C   UNL     1       6.259   6.354  16.766  0.00  0.00    +0.000 C 
ATOM     16  C   UNL     1       4.803   6.348  16.323  0.00  0.00    +0.000 C 
ENDROOT
BRANCH   3  17
ATOM     17  C   UNL     1       0.214  10.595  20.582  0.00  0.00    +0.000 C 
ATOM     18  O   UNL     1       0.553  10.875  21.739  0.00  0.00    +0.000 OA
ATOM     19  N   UNL     1      -0.846  11.317  19.981  0.00  0.00    +0.000 N 
ATOM     20  C   UNL     1      -0.721  12.737  20.103  0.00  0.00    +0.000 A 
ATOM     21  C   UNL     1      -0.356  13.474  21.214  0.00  0.00    +0.000 A 
ATOM     22  C   UNL     1       0.365  14.645  21.005  0.00  0.00    +0.000 A 
ATOM     23  C   UNL     1       0.725  15.017  19.702  0.00  0.00    +0.000 A 
ATOM     24  C   UNL     1       0.178  14.357  18.596  0.00  0.00    +0.000 A 
ATOM     25  C   UNL     1      -0.638  13.266  18.822  0.00  0.00    +0.000 A 
ATOM     26  C   UNL     1      -1.342  12.386  17.843  0.00  0.00    +0.000 C 
ATOM     27  C   UNL     1      -1.623  11.135  18.713  0.00  0.00    +0.000 C 
ATOM     28  C   UNL     1      -1.595   9.838  17.924  0.00  0.00    +0.000 C 
ENDBRANCH   3  17
TORSDOF 1
ENDMDL
MODEL 3
REMARK VINA RESULT:      -7.2      9.193     10.905
REMARK  Name = 
REMARK  3 active torsions:
REMARK  status: ('A' for Active; 'I' for Inactive)
REMARK    1  A    between atoms: C_1  and  C_2
REMARK    2  A    between atoms: C_3  and  C_4
REMARK    3  A    between atoms: C_14  and  C_15
REMARK                            x       y       z     vdW  Elec       q    Type
REMARK                         _______ _______ _______ _____ _____    ______ ____
ROOT
ATOM      1  C   UNL     1       9.629  12.255  21.319  0.00  0.00    +0.000 C 
ATOM      2  C   UNL     1       9.362  13.445  22.197  0.00  0.00    +0.000 A 
ATOM      3  C   UNL     1       9.704  14.767  21.892  0.00  0.00    +0.000 A 
ATOM      4  S   UNL     1       9.014  15.837  23.048  0.00  0.00    +0.000 S 
ATOM      5  C   UNL     1       8.512  14.568  24.066  0.00  0.00    +0.000 A 
ATOM      6  N   UNL     1       7.963  14.803  25.287  0.00  0.00    +0.000 NA
ATOM      7  C   UNL     1       7.478  13.757  25.889  0.00  0.00    +0.000 A 
ATOM      8  N   UNL     1       7.452  12.471  25.369  0.00  0.00    +0.000 N 
ATOM      9  C   UNL     1       8.087  12.196  24.131  0.00  0.00    +0.000 A 
ATOM     10  O   UNL     1       8.150  11.059  23.658  0.00  0.00    +0.000 OA
ATOM     11  C   UNL     1       8.654  13.347  23.464  0.00  0.00    +0.000 A 
ATOM     12  C   UNL     1       6.785  11.373  26.063  0.00  0.00    +0.000 C 
ATOM     13  C   UNL     1       5.264  11.561  26.148  0.00  0.00    +0.000 C 
ATOM     14  C   UNL     1       4.802  12.490  27.271  0.00  0.00    +0.000 C 
ATOM     15  C   UNL     1       5.341  13.914  27.182  0.00  0.00    +0.000 C 
ATOM     16  C   UNL     1       6.860  13.979  27.257  0.00  0.00    +0.000 C 
ENDROOT
BRANCH   3  17
ATOM     17  C   UNL     1      10.270  15.269  20.628  0.00  0.00    +0.000 C 
ATOM     18  O   UNL     1      11.433  15.693  20.642  0.00  0.00    +0.000 OA
ATOM     19  N   UNL     1       9.566  15.232  19.399  0.00  0.00    +0.000 N 
ATOM     20  C   UNL     1      10.299  14.628  18.330  0.00  0.00    +0.000 A 
ATOM     21  C   UNL     1      11.627  14.810  17.990  0.00  0.00    +0.000 A 
ATOM     22  C   UNL     1      12.314  13.722  17.460  0.00  0.00    +0.000 A 
ATOM     23  C   UNL     1      11.664  12.487  17.325  0.00  0.00    +0.000 A 
ATOM     24  C   UNL     1      10.279  12.389  17.496  0.00  0.00    +0.000 A 
ATOM     25  C   UNL     1       9.588  13.513  17.906  0.00  0.00    +0.000 A 
ATOM     26  C   UNL     1       8.129  13.689  18.168  0.00  0.00    +0.000 C 
ATOM     27  C   UNL     1       8.135  14.967  19.043  0.00  0.00    +0.000 C 
ATOM     28  C   UNL     1       7.024  14.988  20.079  0.00  0.00    +0.000 C 
ENDBRANCH   3  17
TORSDOF 1
ENDMDL
MODEL 4
REMARK VINA RESULT:      -7.1      7.041      8.745
REMARK  Name = 
REMARK  3 active torsions:
REMARK  status: ('A' for Active; 'I' for Inactive)
REMARK    1  A    between atoms: C_1  and  C_2
REMARK    2  A    between atoms: C_3  and  C_4
REMARK    3  A    between atoms: C_14  and  C_15
REMARK                            x       y       z     vdW  Elec       q    Type
REMARK                         _______ _______ _______ _____ _____    ______ ____
ROOT
ATOM      1  C   UNL     1       4.977  14.882  18.193  0.00  0.00    +0.000 C 
ATOM      2  C   UNL     1       6.123  15.424  19.000  0.00  0.00    +0.000 A 
ATOM      3  C   UNL     1       6.025  16.428  19.970  0.00  0.00    +0.000 A 
ATOM      4  S   UNL     1       7.517  16.583  20.812  0.00  0.00    +0.000 S 
ATOM      5  C   UNL     1       8.340  15.547  19.740  0.00  0.00    +0.000 A 
ATOM      6  N   UNL     1       9.681  15.348  19.825  0.00  0.00    +0.000 NA
ATOM      7  C   UNL     1      10.154  14.413  19.054  0.00  0.00    +0.000 A 
ATOM      8  N   UNL     1       9.401  13.611  18.209  0.00  0.00    +0.000 N 
ATOM      9  C   UNL     1       8.013  13.856  18.054  0.00  0.00    +0.000 A 
ATOM     10  O   UNL     1       7.312  13.215  17.268  0.00  0.00    +0.000 OA
ATOM     11  C   UNL     1       7.479  14.911  18.887  0.00  0.00    +0.000 A 
ATOM     12  C   UNL     1       9.996  12.507  17.462  0.00  0.00    +0.000 C 
ATOM     13  C   UNL     1      10.504  11.379  18.372  0.00  0.00    +0.000 C 
ATOM     14  C   UNL     1      11.877  11.637  18.993  0.00  0.00    +0.000 C 
ATOM     15  C   UNL     1      11.954  12.880  19.874  0.00  0.00    +0.000 C 
ATOM     16  C   UNL     1      11.650  14.164  19.117  0.00  0.00    +0.000 C 
ENDROOT
BRANCH   3  17
ATOM     17  C   UNL     1       4.793  17.056  20.477  0.00  0.00    +0.000 C 
ATOM     18  O   UNL     1       4.592  18.245  20.197  0.00  0.00    +0.000 OA
ATOM     19  N   UNL     1       3.811  16.347  21.213  0.00  0.00    +0.000 N 
ATOM     20  C   UNL     1       2.485  16.490  20.697  0.00  0.00    +0.000 A 
ATOM     21  C   UNL     1       1.856  17.639  20.254  0.00  0.00    +0.000 A 
ATOM     22  C   UNL     1       0.948  17.517  19.207  0.00  0.00    +0.000 A 
ATOM     23  C   UNL     1       0.729  16.263  18.618  0.00  0.00    +0.000 A 
ATOM     24  C   UNL     1       1.232  15.100  19.212  0.00  0.00    +0.000 A 
ATOM     25  C   UNL     1       2.036  15.229  20.328  0.00  0.00    +0.000 A 
ATOM     26  C   UNL     1       2.702  14.174  21.147  0.00  0.00    +0.000 C 
ATOM     27  C   UNL     1       3.795  15.001  21.869  0.00  0.00    +0.000 C 
ATOM     28  C   UNL     1       5.065  14.211  22.134  0.00  0.00    +0.000 C 
ENDBRANCH   3  17
TORSDOF 1
ENDMDL
MODEL 5
REMARK VINA RESULT:      -7.1      3.334      8.802
REMARK  Name = 
REMARK  3 active torsions:
REMARK  status: ('A' for Active; 'I' for Inactive)
REMARK    1  A    between atoms: C_1  and  C_2
REMARK    2  A    between atoms: C_3  and  C_4
REMARK    3  A    between atoms: C_14  and  C_15
REMARK                            x       y       z     vdW  Elec       q    Type
REMARK                         _______ _______ _______ _____ _____    ______ ____
ROOT
ATOM      1  C   UNL     1       2.563   4.995  20.102  0.00  0.00    +0.000 C 
ATOM      2  C   UNL     1       2.804   6.087  19.098  0.00  0.00    +0.000 A 
ATOM      3  C   UNL     1       3.489   5.934  17.888  0.00  0.00    +0.000 A 
ATOM      4  S   UNL     1       3.336   7.362  16.939  0.00  0.00    +0.000 S 
ATOM      5  C   UNL     1       2.622   8.244  18.208  0.00  0.00    +0.000 A 
ATOM      6  N   UNL     1       2.354   9.571  18.096  0.00  0.00    +0.000 NA
ATOM      7  C   UNL     1       1.663  10.084  19.072  0.00  0.00    +0.000 A 
ATOM      8  N   UNL     1       1.169   9.382  20.161  0.00  0.00    +0.000 N 
ATOM      9  C   UNL     1       1.502   8.014  20.331  0.00  0.00    +0.000 A 
ATOM     10  O   UNL     1       1.143   7.362  21.314  0.00  0.00    +0.000 OA
ATOM     11  C   UNL     1       2.293   7.438  19.265  0.00  0.00    +0.000 A 
ATOM     12  C   UNL     1       0.304  10.011  21.156  0.00  0.00    +0.000 C 
ATOM     13  C   UNL     1      -1.056  10.429  20.580  0.00  0.00    +0.000 C 
ATOM     14  C   UNL     1      -1.043  11.756  19.821  0.00  0.00    +0.000 C 
ATOM     15  C   UNL     1      -0.111  11.788  18.614  0.00  0.00    +0.000 C 
ATOM     16  C   UNL     1       1.349  11.566  18.984  0.00  0.00    +0.000 C 
ENDROOT
BRANCH   3  17
ATOM     17  C   UNL     1       3.992   4.679  17.303  0.00  0.00    +0.000 C 
ATOM     18  O   UNL     1       3.207   3.997  16.633  0.00  0.00    +0.000 OA
ATOM     19  N   UNL     1       5.339   4.257  17.426  0.00  0.00    +0.000 N 
ATOM     20  C   UNL     1       5.955   3.919  16.180  0.00  0.00    +0.000 A 
ATOM     21  C   UNL     1       5.431   3.181  15.136  0.00  0.00    +0.000 A 
ATOM     22  C   UNL     1       5.811   3.527  13.843  0.00  0.00    +0.000 A 
ATOM     23  C   UNL     1       6.669   4.618  13.639  0.00  0.00    +0.000 A 
ATOM     24  C   UNL     1       7.329   5.216  14.718  0.00  0.00    +0.000 A 
ATOM     25  C   UNL     1       7.031   4.777  15.994  0.00  0.00    +0.000 A 
ATOM     26  C   UNL     1       7.573   5.233  17.307  0.00  0.00    +0.000 C 
ATOM     27  C   UNL     1       6.484   4.712  18.278  0.00  0.00    +0.000 C 
ATOM     28  C   UNL     1       6.288   5.604  19.492  0.00  0.00    +0.000 C 
ENDBRANCH   3  17
TORSDOF 1
ENDMDL
MODEL 6
REMARK VINA RESULT:      -7.0      8.826     10.430
REMARK  Name = 
REMARK  3 active torsions:
REMARK  status: ('A' for Active; 'I' for Inactive)
REMARK    1  A    between atoms: C_1  and  C_2
REMARK    2  A    between atoms: C_3  and  C_4
REMARK    3  A    between atoms: C_14  and  C_15
REMARK                            x       y       z     vdW  Elec       q    Type
REMARK                         _______ _______ _______ _____ _____    ______ ____
ROOT
ATOM      1  C   UNL     1       7.553  11.589  23.792  0.00  0.00    +0.000 C 
ATOM      2  C   UNL     1       7.470  12.776  22.874  0.00  0.00    +0.000 A 
ATOM      3  C   UNL     1       6.756  13.951  23.133  0.00  0.00    +0.000 A 
ATOM      4  S   UNL     1       7.115  15.136  21.939  0.00  0.00    +0.000 S 
ATOM      5  C   UNL     1       7.971  14.033  20.964  0.00  0.00    +0.000 A 
ATOM      6  N   UNL     1       8.438  14.376  19.735  0.00  0.00    +0.000 NA
ATOM      7  C   UNL     1       9.211  13.497  19.169  0.00  0.00    +0.000 A 
ATOM      8  N   UNL     1       9.605  12.292  19.732  0.00  0.00    +0.000 N 
ATOM      9  C   UNL     1       9.067  11.886  20.980  0.00  0.00    +0.000 A 
ATOM     10  O   UNL     1       9.334  10.797  21.492  0.00  0.00    +0.000 OA
ATOM     11  C   UNL     1       8.185  12.845  21.609  0.00  0.00    +0.000 A 
ATOM     12  C   UNL     1      10.567  11.412  19.075  0.00  0.00    +0.000 C 
ATOM     13  C   UNL     1      11.969  12.030  18.980  0.00  0.00    +0.000 C 
ATOM     14  C   UNL     1      12.150  13.015  17.824  0.00  0.00    +0.000 C 
ATOM     15  C   UNL     1      11.220  14.223  17.866  0.00  0.00    +0.000 C 
ATOM     16  C   UNL     1       9.748  13.843  17.792  0.00  0.00    +0.000 C 
ENDROOT
BRANCH   3  17
ATOM     17  C   UNL     1       6.059  14.309  24.381  0.00  0.00    +0.000 C 
ATOM     18  O   UNL     1       4.822  14.294  24.377  0.00  0.00    +0.000 OA
ATOM     19  N   UNL     1       6.741  14.610  25.586  0.00  0.00    +0.000 N 
ATOM     20  C   UNL     1       6.277  13.863  26.714  0.00  0.00    +0.000 A 
ATOM     21  C   UNL     1       4.974  13.589  27.085  0.00  0.00    +0.000 A 
ATOM     22  C   UNL     1       4.721  12.369  27.705  0.00  0.00    +0.000 A 
ATOM     23  C   UNL     1       5.768  11.456  27.897  0.00  0.00    +0.000 A 
ATOM     24  C   UNL     1       7.096  11.841  27.688  0.00  0.00    +0.000 A 
ATOM     25  C   UNL     1       7.341  13.104  27.185  0.00  0.00    +0.000 A 
ATOM     26  C   UNL     1       8.640  13.765  26.865  0.00  0.00    +0.000 C 
ATOM     27  C   UNL     1       8.175  14.893  25.911  0.00  0.00    +0.000 C 
ATOM     28  C   UNL     1       9.199  15.231  24.841  0.00  0.00    +0.000 C 
ENDBRANCH   3  17
TORSDOF 1
ENDMDL
MODEL 7
REMARK VINA RESULT:      -6.8      8.678     10.327
REMARK  Name = 
REMARK  3 active torsions:
REMARK  status: ('A' for Active; 'I' for Inactive)
REMARK    1  A    between atoms: C_1  and  C_2
REMARK    2  A    between atoms: C_3  and  C_4
REMARK    3  A    between atoms: C_14  and  C_15
REMARK                            x       y       z     vdW  Elec       q    Type
REMARK                         _______ _______ _______ _____ _____    ______ ____
ROOT
ATOM      1  C   UNL     1       5.664  14.252  22.079  0.00  0.00    +0.000 C 
ATOM      2  C   UNL     1       6.863  13.418  22.430  0.00  0.00    +0.000 A 
ATOM      3  C   UNL     1       6.970  12.588  23.551  0.00  0.00    +0.000 A 
ATOM      4  S   UNL     1       8.403  11.641  23.451  0.00  0.00    +0.000 S 
ATOM      5  C   UNL     1       8.993  12.504  22.107  0.00  0.00    +0.000 A 
ATOM      6  N   UNL     1      10.233  12.277  21.599  0.00  0.00    +0.000 NA
ATOM      7  C   UNL     1      10.495  12.885  20.480  0.00  0.00    +0.000 A 
ATOM      8  N   UNL     1       9.611  13.691  19.777  0.00  0.00    +0.000 N 
ATOM      9  C   UNL     1       8.341  13.997  20.331  0.00  0.00    +0.000 A 
ATOM     10  O   UNL     1       7.546  14.760  19.779  0.00  0.00    +0.000 OA
ATOM     11  C   UNL     1       8.048  13.347  21.590  0.00  0.00    +0.000 A 
ATOM     12  C   UNL     1       9.946  14.245  18.469  0.00  0.00    +0.000 C 
ATOM     13  C   UNL     1      10.099  13.166  17.388  0.00  0.00    +0.000 C 
ATOM     14  C   UNL     1      11.455  12.460  17.385  0.00  0.00    +0.000 C 
ATOM     15  C   UNL     1      11.796  11.731  18.681  0.00  0.00    +0.000 C 
ATOM     16  C   UNL     1      11.872  12.660  19.883  0.00  0.00    +0.000 C 
ENDROOT
BRANCH   3  17
ATOM     17  C   UNL     1       5.912  12.271  24.526  0.00  0.00    +0.000 C 
ATOM     18  O   UNL     1       5.213  11.271  24.318  0.00  0.00    +0.000 OA
ATOM     19  N   UNL     1       5.703  13.021  25.710  0.00  0.00    +0.000 N 
ATOM     20  C   UNL     1       5.654  12.227  26.898  0.00  0.00    +0.000 A 
ATOM     21  C   UNL     1       4.998  11.028  27.101  0.00  0.00    +0.000 A 
ATOM     22  C   UNL     1       5.584  10.107  27.964  0.00  0.00    +0.000 A 
ATOM     23  C   UNL     1       6.819  10.402  28.561  0.00  0.00    +0.000 A 
ATOM     24  C   UNL     1       7.356  11.691  28.486  0.00  0.00    +0.000 A 
ATOM     25  C   UNL     1       6.695  12.634  27.722  0.00  0.00    +0.000 A 
ATOM     26  C   UNL     1       7.040  14.063  27.467  0.00  0.00    +0.000 C 
ATOM     27  C   UNL     1       6.213  14.347  26.188  0.00  0.00    +0.000 C 
ATOM     28  C   UNL     1       6.876  15.346  25.255  0.00  0.00    +0.000 C 
ENDBRANCH   3  17
TORSDOF 1
ENDMDL
MODEL 8
REMARK VINA RESULT:      -6.7      5.241      7.122
REMARK  Name = 
REMARK  3 active torsions:
REMARK  status: ('A' for Active; 'I' for Inactive)
REMARK    1  A    between atoms: C_1  and  C_2
REMARK    2  A    between atoms: C_3  and  C_4
REMARK    3  A    between atoms: C_14  and  C_15
REMARK                            x       y       z     vdW  Elec       q    Type
REMARK                         _______ _______ _______ _____ _____    ______ ____
ROOT
ATOM      1  C   UNL     1      -3.991  15.222  20.913  0.00  0.00    +0.000 C 
ATOM      2  C   UNL     1      -3.871  14.210  22.017  0.00  0.00    +0.000 A 
ATOM      3  C   UNL     1      -4.748  14.089  23.101  0.00  0.00    +0.000 A 
ATOM      4  S   UNL     1      -4.386  12.666  23.997  0.00  0.00    +0.000 S 
ATOM      5  C   UNL     1      -2.947  12.374  23.136  0.00  0.00    +0.000 A 
ATOM      6  N   UNL     1      -2.093  11.377  23.484  0.00  0.00    +0.000 NA
ATOM      7  C   UNL     1      -1.119  11.160  22.650  0.00  0.00    +0.000 A 
ATOM      8  N   UNL     1      -0.923  11.833  21.453  0.00  0.00    +0.000 N 
ATOM      9  C   UNL     1      -1.760  12.926  21.111  0.00  0.00    +0.000 A 
ATOM     10  O   UNL     1      -1.588  13.598  20.092  0.00  0.00    +0.000 OA
ATOM     11  C   UNL     1      -2.832  13.193  22.045  0.00  0.00    +0.000 A 
ATOM     12  C   UNL     1       0.131  11.452  20.518  0.00  0.00    +0.000 C 
ATOM     13  C   UNL     1      -0.092  10.061  19.906  0.00  0.00    +0.000 C 
ATOM     14  C   UNL     1       0.343   8.899  20.799  0.00  0.00    +0.000 C 
ATOM     15  C   UNL     1      -0.374   8.826  22.143  0.00  0.00    +0.000 C 
ATOM     16  C   UNL     1      -0.142  10.056  23.008  0.00  0.00    +0.000 C 
ENDROOT
BRANCH   3  17
ATOM     17  C   UNL     1      -6.006  14.826  23.313  0.00  0.00    +0.000 C 
ATOM     18  O   UNL     1      -6.020  15.710  24.179  0.00  0.00    +0.000 OA
ATOM     19  N   UNL     1      -7.168  14.608  22.533  0.00  0.00    +0.000 N 
ATOM     20  C   UNL     1      -7.725  15.802  21.977  0.00  0.00    +0.000 A 
ATOM     21  C   UNL     1      -7.916  17.026  22.590  0.00  0.00    +0.000 A 
ATOM     22  C   UNL     1      -7.785  18.170  21.808  0.00  0.00    +0.000 A 
ATOM     23  C   UNL     1      -7.433  18.051  20.456  0.00  0.00    +0.000 A 
ATOM     24  C   UNL     1      -7.436  16.802  19.826  0.00  0.00    +0.000 A 
ATOM     25  C   UNL     1      -7.690  15.682  20.594  0.00  0.00    +0.000 A 
ATOM     26  C   UNL     1      -7.751  14.246  20.190  0.00  0.00    +0.000 C 
ATOM     27  C   UNL     1      -7.566  13.542  21.558  0.00  0.00    +0.000 C 
ATOM     28  C   UNL     1      -6.826  12.220  21.455  0.00  0.00    +0.000 C 
ENDBRANCH   3  17
TORSDOF 1
ENDMDL
MODEL 9
REMARK VINA RESULT:      -6.6      5.340      6.907
REMARK  Name = 
REMARK  3 active torsions:
REMARK  status: ('A' for Active; 'I' for Inactive)
REMARK    1  A    between atoms: C_1  and  C_2
REMARK    2  A    between atoms: C_3  and  C_4
REMARK    3  A    between atoms: C_14  and  C_15
REMARK                            x       y       z     vdW  Elec       q    Type
REMARK                         _______ _______ _______ _____ _____    ______ ____
ROOT
ATOM      1  C   UNL     1       0.904  12.948  18.616  0.00  0.00    +0.000 C 
ATOM      2  C   UNL     1      -0.125  13.328  19.643  0.00  0.00    +0.000 A 
ATOM      3  C   UNL     1       0.105  14.152  20.751  0.00  0.00    +0.000 A 
ATOM      4  S   UNL     1      -1.383  14.518  21.533  0.00  0.00    +0.000 S 
ATOM      5  C   UNL     1      -2.261  13.399  20.597  0.00  0.00    +0.000 A 
ATOM      6  N   UNL     1      -3.570  13.130  20.843  0.00  0.00    +0.000 NA
ATOM      7  C   UNL     1      -4.160  12.383  19.957  0.00  0.00    +0.000 A 
ATOM      8  N   UNL     1      -3.572  11.890  18.801  0.00  0.00    +0.000 N 
ATOM      9  C   UNL     1      -2.189  12.099  18.568  0.00  0.00    +0.000 A 
ATOM     10  O   UNL     1      -1.604  11.627  17.591  0.00  0.00    +0.000 OA
ATOM     11  C   UNL     1      -1.515  12.907  19.561  0.00  0.00    +0.000 A 
ATOM     12  C   UNL     1      -4.338  11.152  17.801  0.00  0.00    +0.000 C 
ATOM     13  C   UNL     1      -5.397  12.019  17.106  0.00  0.00    +0.000 C 
ATOM     14  C   UNL     1      -6.692  12.195  17.900  0.00  0.00    +0.000 C 
ATOM     15  C   UNL     1      -6.517  12.856  19.263  0.00  0.00    +0.000 C 
ATOM     16  C   UNL     1      -5.622  12.057  20.200  0.00  0.00    +0.000 C 
ENDROOT
BRANCH   3  17
ATOM     17  C   UNL     1       1.336  14.899  21.063  0.00  0.00    +0.000 C 
ATOM     18  O   UNL     1       2.085  14.442  21.936  0.00  0.00    +0.000 OA
ATOM     19  N   UNL     1       1.723  16.073  20.370  0.00  0.00    +0.000 N 
ATOM     20  C   UNL     1       3.061  16.035  19.868  0.00  0.00    +0.000 A 
ATOM     21  C   UNL     1       4.204  15.589  20.504  0.00  0.00    +0.000 A 
ATOM     22  C   UNL     1       5.185  14.983  19.726  0.00  0.00    +0.000 A 
ATOM     23  C   UNL     1       4.973  14.812  18.350  0.00  0.00    +0.000 A 
ATOM     24  C   UNL     1       3.900  15.442  17.711  0.00  0.00    +0.000 A 
ATOM     25  C   UNL     1       2.997  16.145  18.485  0.00  0.00    +0.000 A 
ATOM     26  C   UNL     1       1.777  16.900  18.073  0.00  0.00    +0.000 C 
ATOM     27  C   UNL     1       1.010  16.984  19.417  0.00  0.00    +0.000 C 
ATOM     28  C   UNL     1      -0.499  16.962  19.247  0.00  0.00    +0.000 C 
ENDBRANCH   3  17
TORSDOF 1
ENDMDL
