MODEL 1
REMARK VINA RESULT:      -9.3      0.000      0.000
REMARK  Name = 
REMARK  7 active torsions:
REMARK  status: ('A' for Active; 'I' for Inactive)
REMARK    1  A    between atoms: C_1  and  C_2
REMARK    2  A    between atoms: N_4  and  C_5
REMARK    3  A    between atoms: C_6  and  C_7
REMARK    4  A    between atoms: C_11  and  C_12
REMARK    5  A    between atoms: C_12  and  O_14
REMARK    6  A    between atoms: O_14  and  C_15
REMARK    7  A    between atoms: C_15  and  C_16
REMARK                            x       y       z     vdW  Elec       q    Type
REMARK                         _______ _______ _______ _____ _____    ______ ____
ROOT
ATOM      1  O   UNL     1       1.824   7.264  20.366  0.00  0.00    +0.000 OA
ENDROOT
BRANCH   1   2
ATOM      2  C   UNL     1       2.086   6.485  19.278  0.00  0.00    +0.000 C 
ATOM      3  O   UNL     1       2.343   6.945  18.172  0.00  0.00    +0.000 OA
BRANCH   2  10
ATOM      4  C   UNL     1       2.695   4.094  18.662  0.00  0.00    +0.000 A 
ATOM      5  C   UNL     1       2.646   2.697  18.889  0.00  0.00    +0.000 A 
ATOM      6  C   UNL     1       3.437   1.678  18.104  0.00  0.00    +0.000 C 
ATOM      7  C   UNL     1       1.835   2.209  19.925  0.00  0.00    +0.000 A 
ATOM      8  C   UNL     1       1.133   3.082  20.755  0.00  0.00    +0.000 A 
ATOM      9  C   UNL     1       1.234   4.468  20.573  0.00  0.00    +0.000 A 
ATOM     10  C   UNL     1       2.015   4.996  19.531  0.00  0.00    +0.000 A 
BRANCH   4  14
ATOM     11  C   UNL     1       5.389   5.301  16.351  0.00  0.00    +0.000 C 
ATOM     12  C   UNL     1       4.813   4.834  17.661  0.00  0.00    +0.000 C 
ATOM     13  O   UNL     1       5.518   4.655  18.646  0.00  0.00    +0.000 OA
ATOM     14  N   UNL     1       3.448   4.620  17.579  0.00  0.00    +0.000 N 
ATOM     15  H   UNL     1       3.145   4.296  16.655  0.00  0.00    +0.000 HD
ENDBRANCH   4  14
ENDBRANCH   2  10
ENDBRANCH   1   2
BRANCH   1  16
ATOM     16  C   UNL     1       1.804   8.710  20.117  0.00  0.00    +0.000 C 
BRANCH  16  17
ATOM     17  C   UNL     1       0.428   9.293  20.282  0.00  0.00    +0.000 A 
ATOM     18  C   UNL     1      -0.273   9.045  21.411  0.00  0.00    +0.000 A 
ATOM     19  C   UNL     1      -0.329  10.339  22.168  0.00  0.00    +0.000 A 
ATOM     20  O   UNL     1      -0.002  10.399  23.336  0.00  0.00    +0.000 OA
ATOM     21  O   UNL     1      -0.822  11.415  21.449  0.00  0.00    +0.000 OA
ATOM     22  C   UNL     1      -1.097  11.159  20.094  0.00  0.00    +0.000 A 
ATOM     23  C   UNL     1      -2.287  11.677  19.612  0.00  0.00    +0.000 A 
ATOM     24  C   UNL     1      -2.666  11.263  18.358  0.00  0.00    +0.000 A 
ATOM     25  C   UNL     1      -1.789  10.560  17.521  0.00  0.00    +0.000 A 
ATOM     26  C   UNL     1      -0.592  10.023  18.019  0.00  0.00    +0.000 A 
ATOM     27  C   UNL     1      -0.314  10.215  19.378  0.00  0.00    +0.000 A 
ATOM     28  C   UNL     1      -2.411  10.405  16.161  0.00  0.00    +0.000 C 
ATOM     29  C   UNL     1      -3.847  10.950  16.344  0.00  0.00    +0.000 C 
ATOM     30  C   UNL     1      -4.060  11.255  17.825  0.00  0.00    +0.000 C 
ENDBRANCH  16  17
ENDBRANCH   1  16
TORSDOF 5
ENDMDL
MODEL 2
REMARK VINA RESULT:      -9.2      1.433      1.679
REMARK  Name = 
REMARK  7 active torsions:
REMARK  status: ('A' for Active; 'I' for Inactive)
REMARK    1  A    between atoms: C_1  and  C_2
REMARK    2  A    between atoms: N_4  and  C_5
REMARK    3  A    between atoms: C_6  and  C_7
REMARK    4  A    between atoms: C_11  and  C_12
REMARK    5  A    between atoms: C_12  and  O_14
REMARK    6  A    between atoms: O_14  and  C_15
REMARK    7  A    between atoms: C_15  and  C_16
REMARK                            x       y       z     vdW  Elec       q    Type
REMARK                         _______ _______ _______ _____ _____    ______ ____
ROOT
ATOM      1  O   UNL     1       2.457   7.908  18.495  0.00  0.00    +0.000 OA
ENDROOT
BRANCH   1   2
ATOM      2  C   UNL     1       3.319   6.980  17.989  0.00  0.00    +0.000 C 
ATOM      3  O   UNL     1       4.309   7.275  17.332  0.00  0.00    +0.000 OA
BRANCH   2  10
ATOM      4  C   UNL     1       3.876   4.693  18.951  0.00  0.00    +0.000 A 
ATOM      5  C   UNL     1       3.542   3.347  19.240  0.00  0.00    +0.000 A 
ATOM      6  C   UNL     1       4.404   2.413  20.056  0.00  0.00    +0.000 C 
ATOM      7  C   UNL     1       2.324   2.836  18.768  0.00  0.00    +0.000 A 
ATOM      8  C   UNL     1       1.428   3.650  18.076  0.00  0.00    +0.000 A 
ATOM      9  C   UNL     1       1.727   5.000  17.848  0.00  0.00    +0.000 A 
ATOM     10  C   UNL     1       2.948   5.544  18.282  0.00  0.00    +0.000 A 
BRANCH   4  14
ATOM     11  C   UNL     1       7.459   5.766  19.196  0.00  0.00    +0.000 C 
ATOM     12  C   UNL     1       6.288   5.018  18.617  0.00  0.00    +0.000 C 
ATOM     13  O   UNL     1       6.394   4.344  17.601  0.00  0.00    +0.000 OA
ATOM     14  N   UNL     1       5.131   5.223  19.349  0.00  0.00    +0.000 N 
ATOM     15  H   UNL     1       5.082   6.154  19.775  0.00  0.00    +0.000 HD
ENDBRANCH   4  14
ENDBRANCH   2  10
ENDBRANCH   1   2
BRANCH   1  16
ATOM     16  C   UNL     1       2.101   7.733  19.908  0.00  0.00    +0.000 C 
BRANCH  16  17
ATOM     17  C   UNL     1       0.944   8.606  20.312  0.00  0.00    +0.000 A 
ATOM     18  C   UNL     1       0.395   8.462  21.538  0.00  0.00    +0.000 A 
ATOM     19  C   UNL     1       0.766   9.689  22.316  0.00  0.00    +0.000 A 
ATOM     20  O   UNL     1       1.279   9.607  23.414  0.00  0.00    +0.000 OA
ATOM     21  O   UNL     1       0.431  10.889  21.710  0.00  0.00    +0.000 OA
ATOM     22  C   UNL     1      -0.110  10.778  20.416  0.00  0.00    +0.000 A 
ATOM     23  C   UNL     1      -1.206  11.582  20.150  0.00  0.00    +0.000 A 
ATOM     24  C   UNL     1      -1.867  11.336  18.971  0.00  0.00    +0.000 A 
ATOM     25  C   UNL     1      -1.325  10.500  17.986  0.00  0.00    +0.000 A 
ATOM     26  C   UNL     1      -0.223   9.675  18.266  0.00  0.00    +0.000 A 
ATOM     27  C   UNL     1       0.305   9.722  19.562  0.00  0.00    +0.000 A 
ATOM     28  C   UNL     1      -2.174  10.568  16.748  0.00  0.00    +0.000 C 
ATOM     29  C   UNL     1      -3.395  11.415  17.180  0.00  0.00    +0.000 C 
ATOM     30  C   UNL     1      -3.291  11.678  18.680  0.00  0.00    +0.000 C 
ENDBRANCH  16  17
ENDBRANCH   1  16
TORSDOF 5
ENDMDL
MODEL 3
REMARK VINA RESULT:      -9.0      2.949      8.119
REMARK  Name = 
REMARK  7 active torsions:
REMARK  status: ('A' for Active; 'I' for Inactive)
REMARK    1  A    between atoms: C_1  and  C_2
REMARK    2  A    between atoms: N_4  and  C_5
REMARK    3  A    between atoms: C_6  and  C_7
REMARK    4  A    between atoms: C_11  and  C_12
REMARK    5  A    between atoms: C_12  and  O_14
REMARK    6  A    between atoms: O_14  and  C_15
REMARK    7  A    between atoms: C_15  and  C_16
REMARK                            x       y       z     vdW  Elec       q    Type
REMARK                         _______ _______ _______ _____ _____    ______ ____
ROOT
ATOM      1  O   UNL     1       2.108   8.689  19.111  0.00  0.00    +0.000 OA
ENDROOT
BRANCH   1   2
ATOM      2  C   UNL     1       1.031   9.527  19.121  0.00  0.00    +0.000 C 
ATOM      3  O   UNL     1       0.611  10.087  18.117  0.00  0.00    +0.000 OA
BRANCH   2  10
ATOM      4  C   UNL     1       0.064  11.049  20.914  0.00  0.00    +0.000 A 
ATOM      5  C   UNL     1      -0.535  11.261  22.180  0.00  0.00    +0.000 A 
ATOM      6  C   UNL     1      -1.043  12.596  22.669  0.00  0.00    +0.000 C 
ATOM      7  C   UNL     1      -0.700  10.165  23.041  0.00  0.00    +0.000 A 
ATOM      8  C   UNL     1      -0.336   8.880  22.640  0.00  0.00    +0.000 A 
ATOM      9  C   UNL     1       0.195   8.660  21.361  0.00  0.00    +0.000 A 
ATOM     10  C   UNL     1       0.400   9.734  20.479  0.00  0.00    +0.000 A 
BRANCH   4  14
ATOM     11  C   UNL     1       1.499  13.997  19.094  0.00  0.00    +0.000 C 
ATOM     12  C   UNL     1       1.408  12.978  20.199  0.00  0.00    +0.000 C 
ATOM     13  O   UNL     1       2.247  12.918  21.090  0.00  0.00    +0.000 OA
ATOM     14  N   UNL     1       0.313  12.144  20.046  0.00  0.00    +0.000 N 
ATOM     15  H   UNL     1       0.072  11.972  19.065  0.00  0.00    +0.000 HD
ENDBRANCH   4  14
ENDBRANCH   2  10
ENDBRANCH   1   2
BRANCH   1  16
ATOM     16  C   UNL     1       2.780   8.541  17.816  0.00  0.00    +0.000 C 
BRANCH  16  17
ATOM     17  C   UNL     1       3.440   7.197  17.672  0.00  0.00    +0.000 A 
ATOM     18  C   UNL     1       4.357   7.004  16.698  0.00  0.00    +0.000 A 
ATOM     19  C   UNL     1       5.684   6.871  17.384  0.00  0.00    +0.000 A 
ATOM     20  O   UNL     1       6.638   7.541  17.046  0.00  0.00    +0.000 OA
ATOM     21  O   UNL     1       5.734   5.904  18.375  0.00  0.00    +0.000 OA
ATOM     22  C   UNL     1       4.511   5.268  18.658  0.00  0.00    +0.000 A 
ATOM     23  C   UNL     1       4.570   3.894  18.820  0.00  0.00    +0.000 A 
ATOM     24  C   UNL     1       3.363   3.240  18.891  0.00  0.00    +0.000 A 
ATOM     25  C   UNL     1       2.158   3.937  19.039  0.00  0.00    +0.000 A 
ATOM     26  C   UNL     1       2.101   5.328  18.857  0.00  0.00    +0.000 A 
ATOM     27  C   UNL     1       3.292   5.984  18.521  0.00  0.00    +0.000 A 
ATOM     28  C   UNL     1       1.039   2.960  19.269  0.00  0.00    +0.000 C 
ATOM     29  C   UNL     1       1.703   1.578  19.061  0.00  0.00    +0.000 C 
ATOM     30  C   UNL     1       3.131   1.800  18.570  0.00  0.00    +0.000 C 
ENDBRANCH  16  17
ENDBRANCH   1  16
TORSDOF 5
ENDMDL
MODEL 4
REMARK VINA RESULT:      -9.0      3.279      6.205
REMARK  Name = 
REMARK  7 active torsions:
REMARK  status: ('A' for Active; 'I' for Inactive)
REMARK    1  A    between atoms: C_1  and  C_2
REMARK    2  A    between atoms: N_4  and  C_5
REMARK    3  A    between atoms: C_6  and  C_7
REMARK    4  A    between atoms: C_11  and  C_12
REMARK    5  A    between atoms: C_12  and  O_14
REMARK    6  A    between atoms: O_14  and  C_15
REMARK    7  A    between atoms: C_15  and  C_16
REMARK                            x       y       z     vdW  Elec       q    Type
REMARK                         _______ _______ _______ _____ _____    ______ ____
ROOT
ATOM      1  O   UNL     1       3.872   3.761  16.590  0.00  0.00    +0.000 OA
ENDROOT
BRANCH   1   2
ATOM      2  C   UNL     1       5.224   3.929  16.512  0.00  0.00    +0.000 C 
ATOM      3  O   UNL     1       5.945   4.015  17.498  0.00  0.00    +0.000 OA
BRANCH   2  10
ATOM      4  C   UNL     1       6.869   4.890  14.828  0.00  0.00    +0.000 A 
ATOM      5  C   UNL     1       7.400   4.986  13.518  0.00  0.00    +0.000 A 
ATOM      6  C   UNL     1       8.638   5.771  13.156  0.00  0.00    +0.000 C 
ATOM      7  C   UNL     1       6.763   4.291  12.479  0.00  0.00    +0.000 A 
ATOM      8  C   UNL     1       5.662   3.474  12.735  0.00  0.00    +0.000 A 
ATOM      9  C   UNL     1       5.178   3.326  14.042  0.00  0.00    +0.000 A 
ATOM     10  C   UNL     1       5.772   4.025  15.106  0.00  0.00    +0.000 A 
BRANCH   4  14
ATOM     11  C   UNL     1       7.591   7.306  17.602  0.00  0.00    +0.000 C 
ATOM     12  C   UNL     1       6.832   6.759  16.423  0.00  0.00    +0.000 C 
ATOM     13  O   UNL     1       5.788   7.268  16.037  0.00  0.00    +0.000 OA
ATOM     14  N   UNL     1       7.443   5.635  15.891  0.00  0.00    +0.000 N 
ATOM     15  H   UNL     1       7.926   5.068  16.595  0.00  0.00    +0.000 HD
ENDBRANCH   4  14
ENDBRANCH   2  10
ENDBRANCH   1   2
BRANCH   1  16
ATOM     16  C   UNL     1       3.383   3.146  17.829  0.00  0.00    +0.000 C 
BRANCH  16  17
ATOM     17  C   UNL     1       2.488   4.072  18.606  0.00  0.00    +0.000 A 
ATOM     18  C   UNL     1       1.344   3.597  19.146  0.00  0.00    +0.000 A 
ATOM     19  C   UNL     1       1.550   3.583  20.632  0.00  0.00    +0.000 A 
ATOM     20  O   UNL     1       1.335   2.585  21.288  0.00  0.00    +0.000 OA
ATOM     21  O   UNL     1       1.947   4.794  21.177  0.00  0.00    +0.000 OA
ATOM     22  C   UNL     1       2.195   5.820  20.248  0.00  0.00    +0.000 A 
ATOM     23  C   UNL     1       1.694   7.068  20.580  0.00  0.00    +0.000 A 
ATOM     24  C   UNL     1       1.748   8.025  19.596  0.00  0.00    +0.000 A 
ATOM     25  C   UNL     1       2.484   7.828  18.420  0.00  0.00    +0.000 A 
ATOM     26  C   UNL     1       2.976   6.557  18.080  0.00  0.00    +0.000 A 
ATOM     27  C   UNL     1       2.699   5.502  18.959  0.00  0.00    +0.000 A 
ATOM     28  C   UNL     1       2.506   9.103  17.624  0.00  0.00    +0.000 C 
ATOM     29  C   UNL     1       1.538  10.036  18.388  0.00  0.00    +0.000 C 
ATOM     30  C   UNL     1       0.874   9.231  19.502  0.00  0.00    +0.000 C 
ENDBRANCH  16  17
ENDBRANCH   1  16
TORSDOF 5
ENDMDL
MODEL 5
REMARK VINA RESULT:      -9.0      1.202      1.219
REMARK  Name = 
REMARK  7 active torsions:
REMARK  status: ('A' for Active; 'I' for Inactive)
REMARK    1  A    between atoms: C_1  and  C_2
REMARK    2  A    between atoms: N_4  and  C_5
REMARK    3  A    between atoms: C_6  and  C_7
REMARK    4  A    between atoms: C_11  and  C_12
REMARK    5  A    between atoms: C_12  and  O_14
REMARK    6  A    between atoms: O_14  and  C_15
REMARK    7  A    between atoms: C_15  and  C_16
REMARK                            x       y       z     vdW  Elec       q    Type
REMARK                         _______ _______ _______ _____ _____    ______ ____
ROOT
ATOM      1  O   UNL     1       2.517   7.173  19.658  0.00  0.00    +0.000 OA
ENDROOT
BRANCH   1   2
ATOM      2  C   UNL     1       2.428   5.992  18.981  0.00  0.00    +0.000 C 
ATOM      3  O   UNL     1       2.259   5.926  17.771  0.00  0.00    +0.000 OA
BRANCH   2  10
ATOM      4  C   UNL     1       3.563   3.801  19.599  0.00  0.00    +0.000 A 
ATOM      5  C   UNL     1       3.681   2.641  20.403  0.00  0.00    +0.000 A 
ATOM      6  C   UNL     1       4.812   1.646  20.302  0.00  0.00    +0.000 C 
ATOM      7  C   UNL     1       2.707   2.396  21.382  0.00  0.00    +0.000 A 
ATOM      8  C   UNL     1       1.671   3.304  21.604  0.00  0.00    +0.000 A 
ATOM      9  C   UNL     1       1.592   4.485  20.853  0.00  0.00    +0.000 A 
ATOM     10  C   UNL     1       2.533   4.755  19.846  0.00  0.00    +0.000 A 
BRANCH   4  14
ATOM     11  C   UNL     1       6.545   4.712  17.518  0.00  0.00    +0.000 C 
ATOM     12  C   UNL     1       5.710   4.661  18.769  0.00  0.00    +0.000 C 
ATOM     13  O   UNL     1       6.120   5.102  19.835  0.00  0.00    +0.000 OA
ATOM     14  N   UNL     1       4.489   4.045  18.551  0.00  0.00    +0.000 N 
ATOM     15  H   UNL     1       4.530   3.308  17.840  0.00  0.00    +0.000 HD
ENDBRANCH   4  14
ENDBRANCH   2  10
ENDBRANCH   1   2
BRANCH   1  16
ATOM     16  C   UNL     1       2.104   8.363  18.907  0.00  0.00    +0.000 C 
BRANCH  16  17
ATOM     17  C   UNL     1       0.907   9.035  19.524  0.00  0.00    +0.000 A 
ATOM     18  C   UNL     1       0.530   8.706  20.779  0.00  0.00    +0.000 A 
ATOM     19  C   UNL     1       0.841   9.894  21.640  0.00  0.00    +0.000 A 
ATOM     20  O   UNL     1       1.487   9.779  22.661  0.00  0.00    +0.000 OA
ATOM     21  O   UNL     1       0.294  11.090  21.205  0.00  0.00    +0.000 OA
ATOM     22  C   UNL     1      -0.380  11.030  19.972  0.00  0.00    +0.000 A 
ATOM     23  C   UNL     1      -1.589  11.703  19.912  0.00  0.00    +0.000 A 
ATOM     24  C   UNL     1      -2.351  11.484  18.790  0.00  0.00    +0.000 A 
ATOM     25  C   UNL     1      -1.834  10.821  17.670  0.00  0.00    +0.000 A 
ATOM     26  C   UNL     1      -0.616  10.126  17.740  0.00  0.00    +0.000 A 
ATOM     27  C   UNL     1       0.054  10.121  18.970  0.00  0.00    +0.000 A 
ATOM     28  C   UNL     1      -2.827  10.891  16.544  0.00  0.00    +0.000 C 
ATOM     29  C   UNL     1      -4.080  11.526  17.191  0.00  0.00    +0.000 C 
ATOM     30  C   UNL     1      -3.830  11.660  18.692  0.00  0.00    +0.000 C 
ENDBRANCH  16  17
ENDBRANCH   1  16
TORSDOF 5
ENDMDL
MODEL 6
REMARK VINA RESULT:      -9.0      1.041      1.208
REMARK  Name = 
REMARK  7 active torsions:
REMARK  status: ('A' for Active; 'I' for Inactive)
REMARK    1  A    between atoms: C_1  and  C_2
REMARK    2  A    between atoms: N_4  and  C_5
REMARK    3  A    between atoms: C_6  and  C_7
REMARK    4  A    between atoms: C_11  and  C_12
REMARK    5  A    between atoms: C_12  and  O_14
REMARK    6  A    between atoms: O_14  and  C_15
REMARK    7  A    between atoms: C_15  and  C_16
REMARK                            x       y       z     vdW  Elec       q    Type
REMARK                         _______ _______ _______ _____ _____    ______ ____
ROOT
ATOM      1  O   UNL     1       1.667   7.619  17.979  0.00  0.00    +0.000 OA
ENDROOT
BRANCH   1   2
ATOM      2  C   UNL     1       2.787   6.891  18.253  0.00  0.00    +0.000 C 
ATOM      3  O   UNL     1       3.913   7.247  17.931  0.00  0.00    +0.000 OA
BRANCH   2  10
ATOM      4  C   UNL     1       2.917   4.353  18.368  0.00  0.00    +0.000 A 
ATOM      5  C   UNL     1       2.695   3.122  19.033  0.00  0.00    +0.000 A 
ATOM      6  C   UNL     1       3.183   1.784  18.532  0.00  0.00    +0.000 C 
ATOM      7  C   UNL     1       2.001   3.128  20.252  0.00  0.00    +0.000 A 
ATOM      8  C   UNL     1       1.586   4.326  20.832  0.00  0.00    +0.000 A 
ATOM      9  C   UNL     1       1.865   5.550  20.208  0.00  0.00    +0.000 A 
ATOM     10  C   UNL     1       2.535   5.585  18.974  0.00  0.00    +0.000 A 
BRANCH   4  14
ATOM     11  C   UNL     1       5.345   4.274  15.513  0.00  0.00    +0.000 C 
ATOM     12  C   UNL     1       4.929   4.334  16.958  0.00  0.00    +0.000 C 
ATOM     13  O   UNL     1       5.751   4.314  17.866  0.00  0.00    +0.000 OA
ATOM     14  N   UNL     1       3.552   4.380  17.099  0.00  0.00    +0.000 N 
ATOM     15  H   UNL     1       3.054   3.868  16.365  0.00  0.00    +0.000 HD
ENDBRANCH   4  14
ENDBRANCH   2  10
ENDBRANCH   1   2
BRANCH   1  16
ATOM     16  C   UNL     1       1.775   9.060  18.232  0.00  0.00    +0.000 C 
BRANCH  16  17
ATOM     17  C   UNL     1       0.568   9.601  18.948  0.00  0.00    +0.000 A 
ATOM     18  C   UNL     1       0.362   9.282  20.245  0.00  0.00    +0.000 A 
ATOM     19  C   UNL     1       0.599  10.535  21.033  0.00  0.00    +0.000 A 
ATOM     20  O   UNL     1       1.352  10.547  21.985  0.00  0.00    +0.000 OA
ATOM     21  O   UNL     1      -0.139  11.633  20.621  0.00  0.00    +0.000 OA
ATOM     22  C   UNL     1      -0.917  11.436  19.466  0.00  0.00    +0.000 A 
ATOM     23  C   UNL     1      -2.203  11.948  19.511  0.00  0.00    +0.000 A 
ATOM     24  C   UNL     1      -3.037  11.586  18.480  0.00  0.00    +0.000 A 
ATOM     25  C   UNL     1      -2.551  10.946  17.333  0.00  0.00    +0.000 A 
ATOM     26  C   UNL     1      -1.252  10.414  17.298  0.00  0.00    +0.000 A 
ATOM     27  C   UNL     1      -0.469  10.547  18.453  0.00  0.00    +0.000 A 
ATOM     28  C   UNL     1      -3.651  10.841  16.314  0.00  0.00    +0.000 C 
ATOM     29  C   UNL     1      -4.906  11.341  17.068  0.00  0.00    +0.000 C 
ATOM     30  C   UNL     1      -4.529  11.569  18.530  0.00  0.00    +0.000 C 
ENDBRANCH  16  17
ENDBRANCH   1  16
TORSDOF 5
ENDMDL
MODEL 7
REMARK VINA RESULT:      -8.9      3.132      7.971
REMARK  Name = 
REMARK  7 active torsions:
REMARK  status: ('A' for Active; 'I' for Inactive)
REMARK    1  A    between atoms: C_1  and  C_2
REMARK    2  A    between atoms: N_4  and  C_5
REMARK    3  A    between atoms: C_6  and  C_7
REMARK    4  A    between atoms: C_11  and  C_12
REMARK    5  A    between atoms: C_12  and  O_14
REMARK    6  A    between atoms: O_14  and  C_15
REMARK    7  A    between atoms: C_15  and  C_16
REMARK                            x       y       z     vdW  Elec       q    Type
REMARK                         _______ _______ _______ _____ _____    ______ ____
ROOT
ATOM      1  O   UNL     1       1.971   8.132  20.545  0.00  0.00    +0.000 OA
ENDROOT
BRANCH   1   2
ATOM      2  C   UNL     1       1.142   9.088  20.037  0.00  0.00    +0.000 C 
ATOM      3  O   UNL     1       1.055   9.331  18.840  0.00  0.00    +0.000 OA
BRANCH   2  10
ATOM      4  C   UNL     1       0.159  11.257  20.929  0.00  0.00    +0.000 A 
ATOM      5  C   UNL     1      -0.592  11.986  21.885  0.00  0.00    +0.000 A 
ATOM      6  C   UNL     1      -0.952  13.446  21.750  0.00  0.00    +0.000 C 
ATOM      7  C   UNL     1      -1.065  11.318  23.024  0.00  0.00    +0.000 A 
ATOM      8  C   UNL     1      -0.853   9.950  23.191  0.00  0.00    +0.000 A 
ATOM      9  C   UNL     1      -0.168   9.215  22.214  0.00  0.00    +0.000 A 
ATOM     10  C   UNL     1       0.344   9.851  21.070  0.00  0.00    +0.000 A 
BRANCH   4  14
ATOM     11  C   UNL     1       2.290  13.202  18.536  0.00  0.00    +0.000 C 
ATOM     12  C   UNL     1       1.849  12.702  19.886  0.00  0.00    +0.000 C 
ATOM     13  O   UNL     1       2.472  12.969  20.906  0.00  0.00    +0.000 OA
ATOM     14  N   UNL     1       0.714  11.913  19.800  0.00  0.00    +0.000 N 
ATOM     15  H   UNL     1       0.660  11.378  18.928  0.00  0.00    +0.000 HD
ENDBRANCH   4  14
ENDBRANCH   2  10
ENDBRANCH   1   2
BRANCH   1  16
ATOM     16  C   UNL     1       1.346   6.831  20.808  0.00  0.00    +0.000 C 
BRANCH  16  17
ATOM     17  C   UNL     1       2.120   5.696  20.195  0.00  0.00    +0.000 A 
ATOM     18  C   UNL     1       2.450   4.626  20.952  0.00  0.00    +0.000 A 
ATOM     19  C   UNL     1       1.616   3.483  20.455  0.00  0.00    +0.000 A 
ATOM     20  O   UNL     1       0.950   2.812  21.217  0.00  0.00    +0.000 OA
ATOM     21  O   UNL     1       1.714   3.236  19.095  0.00  0.00    +0.000 OA
ATOM     22  C   UNL     1       2.495   4.156  18.371  0.00  0.00    +0.000 A 
ATOM     23  C   UNL     1       3.356   3.609  17.435  0.00  0.00    +0.000 A 
ATOM     24  C   UNL     1       4.266   4.470  16.871  0.00  0.00    +0.000 A 
ATOM     25  C   UNL     1       4.170   5.857  17.046  0.00  0.00    +0.000 A 
ATOM     26  C   UNL     1       3.307   6.406  18.008  0.00  0.00    +0.000 A 
ATOM     27  C   UNL     1       2.554   5.514  18.783  0.00  0.00    +0.000 A 
ATOM     28  C   UNL     1       5.183   6.543  16.172  0.00  0.00    +0.000 C 
ATOM     29  C   UNL     1       6.019   5.380  15.587  0.00  0.00    +0.000 C 
ATOM     30  C   UNL     1       5.569   4.082  16.254  0.00  0.00    +0.000 C 
ENDBRANCH  16  17
ENDBRANCH   1  16
TORSDOF 5
ENDMDL
MODEL 8
REMARK VINA RESULT:      -8.9      1.314      2.741
REMARK  Name = 
REMARK  7 active torsions:
REMARK  status: ('A' for Active; 'I' for Inactive)
REMARK    1  A    between atoms: C_1  and  C_2
REMARK    2  A    between atoms: N_4  and  C_5
REMARK    3  A    between atoms: C_6  and  C_7
REMARK    4  A    between atoms: C_11  and  C_12
REMARK    5  A    between atoms: C_12  and  O_14
REMARK    6  A    between atoms: O_14  and  C_15
REMARK    7  A    between atoms: C_15  and  C_16
REMARK                            x       y       z     vdW  Elec       q    Type
REMARK                         _______ _______ _______ _____ _____    ______ ____
ROOT
ATOM      1  O   UNL     1       1.622   8.062  19.048  0.00  0.00    +0.000 OA
ENDROOT
BRANCH   1   2
ATOM      2  C   UNL     1       2.329   6.932  19.338  0.00  0.00    +0.000 C 
ATOM      3  O   UNL     1       2.220   6.328  20.397  0.00  0.00    +0.000 OA
BRANCH   2  10
ATOM      4  C   UNL     1       3.462   5.095  17.993  0.00  0.00    +0.000 A 
ATOM      5  C   UNL     1       4.346   4.659  16.975  0.00  0.00    +0.000 A 
ATOM      6  C   UNL     1       4.500   3.220  16.541  0.00  0.00    +0.000 C 
ATOM      7  C   UNL     1       5.118   5.613  16.297  0.00  0.00    +0.000 A 
ATOM      8  C   UNL     1       4.980   6.972  16.574  0.00  0.00    +0.000 A 
ATOM      9  C   UNL     1       4.057   7.410  17.533  0.00  0.00    +0.000 A 
ATOM     10  C   UNL     1       3.283   6.485  18.253  0.00  0.00    +0.000 A 
BRANCH   4  14
ATOM     11  C   UNL     1       0.970   2.591  19.248  0.00  0.00    +0.000 C 
ATOM     12  C   UNL     1       1.506   3.643  18.314  0.00  0.00    +0.000 C 
ATOM     13  O   UNL     1       0.914   3.956  17.288  0.00  0.00    +0.000 OA
ATOM     14  N   UNL     1       2.717   4.153  18.750  0.00  0.00    +0.000 N 
ATOM     15  H   UNL     1       3.288   3.464  19.250  0.00  0.00    +0.000 HD
ENDBRANCH   4  14
ENDBRANCH   2  10
ENDBRANCH   1   2
BRANCH   1  16
ATOM     16  C   UNL     1       1.516   9.037  20.139  0.00  0.00    +0.000 C 
BRANCH  16  17
ATOM     17  C   UNL     1       0.143   9.645  20.223  0.00  0.00    +0.000 A 
ATOM     18  C   UNL     1      -0.579   9.509  21.358  0.00  0.00    +0.000 A 
ATOM     19  C   UNL     1      -0.635  10.868  21.990  0.00  0.00    +0.000 A 
ATOM     20  O   UNL     1      -0.328  11.035  23.153  0.00  0.00    +0.000 OA
ATOM     21  O   UNL     1      -1.105  11.877  21.164  0.00  0.00    +0.000 OA
ATOM     22  C   UNL     1      -1.360  11.497  19.834  0.00  0.00    +0.000 A 
ATOM     23  C   UNL     1      -2.536  11.978  19.285  0.00  0.00    +0.000 A 
ATOM     24  C   UNL     1      -2.897  11.452  18.068  0.00  0.00    +0.000 A 
ATOM     25  C   UNL     1      -2.013  10.666  17.317  0.00  0.00    +0.000 A 
ATOM     26  C   UNL     1      -0.830  10.167  17.884  0.00  0.00    +0.000 A 
ATOM     27  C   UNL     1      -0.574  10.483  19.224  0.00  0.00    +0.000 A 
ATOM     28  C   UNL     1      -2.613  10.390  15.966  0.00  0.00    +0.000 C 
ATOM     29  C   UNL     1      -4.047  10.961  16.072  0.00  0.00    +0.000 C 
ATOM     30  C   UNL     1      -4.283  11.406  17.513  0.00  0.00    +0.000 C 
ENDBRANCH  16  17
ENDBRANCH   1  16
TORSDOF 5
ENDMDL
MODEL 9
REMARK VINA RESULT:      -8.9      2.686      8.188
REMARK  Name = 
REMARK  7 active torsions:
REMARK  status: ('A' for Active; 'I' for Inactive)
REMARK    1  A    between atoms: C_1  and  C_2
REMARK    2  A    between atoms: N_4  and  C_5
REMARK    3  A    between atoms: C_6  and  C_7
REMARK    4  A    between atoms: C_11  and  C_12
REMARK    5  A    between atoms: C_12  and  O_14
REMARK    6  A    between atoms: O_14  and  C_15
REMARK    7  A    between atoms: C_15  and  C_16
REMARK                            x       y       z     vdW  Elec       q    Type
REMARK                         _______ _______ _______ _____ _____    ______ ____
ROOT
ATOM      1  O   UNL     1       2.200   8.712  19.074  0.00  0.00    +0.000 OA
ENDROOT
BRANCH   1   2
ATOM      2  C   UNL     1       1.003   9.366  19.062  0.00  0.00    +0.000 C 
ATOM      3  O   UNL     1       0.455   9.739  18.034  0.00  0.00    +0.000 OA
BRANCH   2  10
ATOM      4  C   UNL     1       0.101  10.950  20.836  0.00  0.00    +0.000 A 
ATOM      5  C   UNL     1      -0.467  11.204  22.108  0.00  0.00    +0.000 A 
ATOM      6  C   UNL     1      -0.942  12.560  22.573  0.00  0.00    +0.000 C 
ATOM      7  C   UNL     1      -0.632  10.133  23.000  0.00  0.00    +0.000 A 
ATOM      8  C   UNL     1      -0.298   8.833  22.625  0.00  0.00    +0.000 A 
ATOM      9  C   UNL     1       0.201   8.571  21.342  0.00  0.00    +0.000 A 
ATOM     10  C   UNL     1       0.405   9.619  20.428  0.00  0.00    +0.000 A 
BRANCH   4  14
ATOM     11  C   UNL     1      -0.150  13.754  18.360  0.00  0.00    +0.000 C 
ATOM     12  C   UNL     1      -0.649  12.576  19.153  0.00  0.00    +0.000 C 
ATOM     13  O   UNL     1      -1.817  12.212  19.099  0.00  0.00    +0.000 OA
ATOM     14  N   UNL     1       0.350  12.018  19.934  0.00  0.00    +0.000 N 
ATOM     15  H   UNL     1       1.032  12.705  20.268  0.00  0.00    +0.000 HD
ENDBRANCH   4  14
ENDBRANCH   2  10
ENDBRANCH   1   2
BRANCH   1  16
ATOM     16  C   UNL     1       2.834   8.534  17.763  0.00  0.00    +0.000 C 
BRANCH  16  17
ATOM     17  C   UNL     1       3.487   7.185  17.628  0.00  0.00    +0.000 A 
ATOM     18  C   UNL     1       4.409   6.983  16.661  0.00  0.00    +0.000 A 
ATOM     19  C   UNL     1       5.730   6.843  17.357  0.00  0.00    +0.000 A 
ATOM     20  O   UNL     1       6.690   7.506  17.022  0.00  0.00    +0.000 OA
ATOM     21  O   UNL     1       5.767   5.880  18.352  0.00  0.00    +0.000 OA
ATOM     22  C   UNL     1       4.538   5.253  18.629  0.00  0.00    +0.000 A 
ATOM     23  C   UNL     1       4.587   3.880  18.797  0.00  0.00    +0.000 A 
ATOM     24  C   UNL     1       3.376   3.233  18.862  0.00  0.00    +0.000 A 
ATOM     25  C   UNL     1       2.174   3.939  18.999  0.00  0.00    +0.000 A 
ATOM     26  C   UNL     1       2.127   5.330  18.812  0.00  0.00    +0.000 A 
ATOM     27  C   UNL     1       3.325   5.977  18.481  0.00  0.00    +0.000 A 
ATOM     28  C   UNL     1       1.047   2.970  19.225  0.00  0.00    +0.000 C 
ATOM     29  C   UNL     1       1.704   1.583  19.027  0.00  0.00    +0.000 C 
ATOM     30  C   UNL     1       3.137   1.794  18.545  0.00  0.00    +0.000 C 
ENDBRANCH  16  17
ENDBRANCH   1  16
TORSDOF 5
ENDMDL
