MODEL 1
REMARK VINA RESULT:      -8.7      0.000      0.000
REMARK  Name = 
REMARK  4 active torsions:
REMARK  status: ('A' for Active; 'I' for Inactive)
REMARK    1  A    between atoms: C_2  and  C_3
REMARK    2  A    between atoms: C_7  and  C_8
REMARK    3  A    between atoms: C_8  and  S_9
REMARK    4  A    between atoms: S_9  and  C_12
REMARK                            x       y       z     vdW  Elec       q    Type
REMARK                         _______ _______ _______ _____ _____    ______ ____
ROOT
ATOM      1  C   UNL     1       1.091   9.252  18.867  0.00  0.00    +0.000 A 
ATOM      2  C   UNL     1       0.998   9.233  20.267  0.00  0.00    +0.000 A 
ATOM      3  C   UNL     1      -0.129   9.715  20.922  0.00  0.00    +0.000 A 
ATOM      4  C   UNL     1      -1.102  10.397  20.202  0.00  0.00    +0.000 A 
ATOM      5  C   UNL     1      -0.972  10.558  18.816  0.00  0.00    +0.000 A 
ATOM      6  C   UNL     1       0.099   9.931  18.153  0.00  0.00    +0.000 A 
ENDROOT
BRANCH   1   8
ATOM      7  O   UNL     1       2.610   9.260  17.085  0.00  0.00    +0.000 OA
ATOM      8  C   UNL     1       2.228   8.648  18.084  0.00  0.00    +0.000 C 
ATOM      9  N   UNL     1       2.761   7.413  18.444  0.00  0.00    +0.000 N 
ATOM     10  C   UNL     1       3.983   7.032  17.721  0.00  0.00    +0.000 C 
ATOM     11  C   UNL     1       4.538   5.675  17.984  0.00  0.00    +0.000 C 
ATOM     12  C   UNL     1       3.658   4.817  18.856  0.00  0.00    +0.000 C 
ATOM     13  C   UNL     1       2.401   5.221  19.621  0.00  0.00    +0.000 C 
ATOM     14  C   UNL     1       1.055   4.673  19.019  0.00  0.00    +0.000 C 
ATOM     15  C   UNL     1       1.102   3.286  18.378  0.00  0.00    +0.000 C 
ATOM     16  C   UNL     1       1.536   2.105  19.247  0.00  0.00    +0.000 C 
ATOM     17  C   UNL     1       1.686   2.287  20.757  0.00  0.00    +0.000 C 
ATOM     18  C   UNL     1       2.810   3.208  21.214  0.00  0.00    +0.000 C 
ATOM     19  C   UNL     1       2.465   4.694  21.101  0.00  0.00    +0.000 C 
ATOM     20  C   UNL     1       2.361   6.728  19.667  0.00  0.00    +0.000 C 
ENDBRANCH   1   8
BRANCH   5  21
ATOM     21  C   UNL     1      -1.822  11.525  18.039  0.00  0.00    +0.000 C 
BRANCH  21  22
ATOM     22  S   UNL     1      -3.263  10.768  17.307  0.00  0.00    +0.000 S 
ATOM     23  O   UNL     1      -3.477  11.249  15.992  0.00  0.00    +0.000 OA
ATOM     24  O   UNL     1      -3.218   9.322  17.605  0.00  0.00    +0.000 OA
BRANCH  22  25
ATOM     25  C   UNL     1      -4.554  11.413  18.361  0.00  0.00    +0.000 A 
ATOM     26  C   UNL     1      -5.856  11.002  18.127  0.00  0.00    +0.000 A 
ATOM     27  C   UNL     1      -6.897  11.546  18.896  0.00  0.00    +0.000 A 
ATOM     28  C   UNL     1      -6.610  12.478  19.900  0.00  0.00    +0.000 A 
ATOM     29  C   UNL     1      -5.299  12.867  20.145  0.00  0.00    +0.000 A 
ATOM     30  C   UNL     1      -4.252  12.328  19.370  0.00  0.00    +0.000 A 
ENDBRANCH  22  25
ENDBRANCH  21  22
ENDBRANCH   5  21
TORSDOF 4
ENDMDL
MODEL 2
REMARK VINA RESULT:      -8.6      3.054      4.577
REMARK  Name = 
REMARK  4 active torsions:
REMARK  status: ('A' for Active; 'I' for Inactive)
REMARK    1  A    between atoms: C_2  and  C_3
REMARK    2  A    between atoms: C_7  and  C_8
REMARK    3  A    between atoms: C_8  and  S_9
REMARK    4  A    between atoms: S_9  and  C_12
REMARK                            x       y       z     vdW  Elec       q    Type
REMARK                         _______ _______ _______ _____ _____    ______ ____
ROOT
ATOM      1  C   UNL     1       1.813   7.711  19.519  0.00  0.00    +0.000 A 
ATOM      2  C   UNL     1       2.342   8.151  18.296  0.00  0.00    +0.000 A 
ATOM      3  C   UNL     1       2.139   9.451  17.847  0.00  0.00    +0.000 A 
ATOM      4  C   UNL     1       1.246  10.276  18.518  0.00  0.00    +0.000 A 
ATOM      5  C   UNL     1       0.589   9.819  19.670  0.00  0.00    +0.000 A 
ATOM      6  C   UNL     1       0.925   8.556  20.191  0.00  0.00    +0.000 A 
ENDROOT
BRANCH   1   8
ATOM      7  O   UNL     1       1.658   6.154  21.261  0.00  0.00    +0.000 OA
ATOM      8  C   UNL     1       2.083   6.356  20.123  0.00  0.00    +0.000 C 
ATOM      9  N   UNL     1       2.848   5.415  19.439  0.00  0.00    +0.000 N 
ATOM     10  C   UNL     1       2.873   4.078  20.050  0.00  0.00    +0.000 C 
ATOM     11  C   UNL     1       3.761   3.058  19.426  0.00  0.00    +0.000 C 
ATOM     12  C   UNL     1       4.639   3.605  18.330  0.00  0.00    +0.000 C 
ATOM     13  C   UNL     1       4.597   4.987  17.685  0.00  0.00    +0.000 C 
ATOM     14  C   UNL     1       5.785   5.939  18.081  0.00  0.00    +0.000 C 
ATOM     15  C   UNL     1       7.147   5.282  18.305  0.00  0.00    +0.000 C 
ATOM     16  C   UNL     1       7.771   4.501  17.148  0.00  0.00    +0.000 C 
ATOM     17  C   UNL     1       7.150   4.585  15.754  0.00  0.00    +0.000 C 
ATOM     18  C   UNL     1       5.765   3.970  15.597  0.00  0.00    +0.000 C 
ATOM     19  C   UNL     1       4.639   4.865  16.118  0.00  0.00    +0.000 C 
ATOM     20  C   UNL     1       3.285   5.628  18.065  0.00  0.00    +0.000 C 
ENDBRANCH   1   8
BRANCH   5  21
ATOM     21  C   UNL     1      -0.590  10.542  20.259  0.00  0.00    +0.000 C 
BRANCH  21  22
ATOM     22  S   UNL     1      -0.206  11.401  21.775  0.00  0.00    +0.000 S 
ATOM     23  O   UNL     1       0.144  10.490  22.802  0.00  0.00    +0.000 OA
ATOM     24  O   UNL     1       0.651  12.555  21.439  0.00  0.00    +0.000 OA
BRANCH  22  25
ATOM     25  C   UNL     1      -1.798  12.112  22.170  0.00  0.00    +0.000 A 
ATOM     26  C   UNL     1      -2.439  12.861  21.197  0.00  0.00    +0.000 A 
ATOM     27  C   UNL     1      -3.658  13.487  21.504  0.00  0.00    +0.000 A 
ATOM     28  C   UNL     1      -4.221  13.334  22.777  0.00  0.00    +0.000 A 
ATOM     29  C   UNL     1      -3.583  12.562  23.740  0.00  0.00    +0.000 A 
ATOM     30  C   UNL     1      -2.356  11.937  23.436  0.00  0.00    +0.000 A 
ENDBRANCH  22  25
ENDBRANCH  21  22
ENDBRANCH   5  21
TORSDOF 4
ENDMDL
MODEL 3
REMARK VINA RESULT:      -8.5      4.008      9.684
REMARK  Name = 
REMARK  4 active torsions:
REMARK  status: ('A' for Active; 'I' for Inactive)
REMARK    1  A    between atoms: C_2  and  C_3
REMARK    2  A    between atoms: C_7  and  C_8
REMARK    3  A    between atoms: C_8  and  S_9
REMARK    4  A    between atoms: S_9  and  C_12
REMARK                            x       y       z     vdW  Elec       q    Type
REMARK                         _______ _______ _______ _____ _____    ______ ____
ROOT
ATOM      1  C   UNL     1       1.212   8.511  19.880  0.00  0.00    +0.000 A 
ATOM      2  C   UNL     1       1.567   9.164  18.689  0.00  0.00    +0.000 A 
ATOM      3  C   UNL     1       2.374   8.546  17.741  0.00  0.00    +0.000 A 
ATOM      4  C   UNL     1       2.996   7.342  18.048  0.00  0.00    +0.000 A 
ATOM      5  C   UNL     1       2.773   6.729  19.289  0.00  0.00    +0.000 A 
ATOM      6  C   UNL     1       1.836   7.294  20.172  0.00  0.00    +0.000 A 
ENDROOT
BRANCH   1   8
ATOM      7  O   UNL     1      -0.570   8.292  21.384  0.00  0.00    +0.000 OA
ATOM      8  C   UNL     1       0.254   9.071  20.901  0.00  0.00    +0.000 C 
ATOM      9  N   UNL     1       0.265  10.427  21.215  0.00  0.00    +0.000 N 
ATOM     10  C   UNL     1      -0.581  10.803  22.358  0.00  0.00    +0.000 C 
ATOM     11  C   UNL     1      -0.697  12.254  22.674  0.00  0.00    +0.000 C 
ATOM     12  C   UNL     1      -0.037  13.152  21.659  0.00  0.00    +0.000 C 
ATOM     13  C   UNL     1       0.856  12.759  20.487  0.00  0.00    +0.000 C 
ATOM     14  C   UNL     1       0.190  12.904  19.069  0.00  0.00    +0.000 C 
ATOM     15  C   UNL     1      -0.785  14.066  18.883  0.00  0.00    +0.000 C 
ATOM     16  C   UNL     1      -0.266  15.486  19.108  0.00  0.00    +0.000 C 
ATOM     17  C   UNL     1       1.233  15.728  19.282  0.00  0.00    +0.000 C 
ATOM     18  C   UNL     1       1.864  15.154  20.544  0.00  0.00    +0.000 C 
ATOM     19  C   UNL     1       2.148  13.654  20.456  0.00  0.00    +0.000 C 
ATOM     20  C   UNL     1       1.288  11.330  20.702  0.00  0.00    +0.000 C 
ENDBRANCH   1   8
BRANCH   5  21
ATOM     21  C   UNL     1       3.632   5.601  19.789  0.00  0.00    +0.000 C 
BRANCH  21  22
ATOM     22  S   UNL     1       3.494   4.119  18.806  0.00  0.00    +0.000 S 
ATOM     23  O   UNL     1       3.681   2.961  19.602  0.00  0.00    +0.000 OA
ATOM     24  O   UNL     1       2.322   4.268  17.920  0.00  0.00    +0.000 OA
BRANCH  22  25
ATOM     25  C   UNL     1       4.909   4.297  17.729  0.00  0.00    +0.000 A 
ATOM     26  C   UNL     1       4.738   4.046  16.377  0.00  0.00    +0.000 A 
ATOM     27  C   UNL     1       5.848   4.111  15.520  0.00  0.00    +0.000 A 
ATOM     28  C   UNL     1       7.107   4.449  16.032  0.00  0.00    +0.000 A 
ATOM     29  C   UNL     1       7.266   4.723  17.384  0.00  0.00    +0.000 A 
ATOM     30  C   UNL     1       6.154   4.651  18.249  0.00  0.00    +0.000 A 
ENDBRANCH  22  25
ENDBRANCH  21  22
ENDBRANCH   5  21
TORSDOF 4
ENDMDL
MODEL 4
REMARK VINA RESULT:      -8.5      3.271      4.766
REMARK  Name = 
REMARK  4 active torsions:
REMARK  status: ('A' for Active; 'I' for Inactive)
REMARK    1  A    between atoms: C_2  and  C_3
REMARK    2  A    between atoms: C_7  and  C_8
REMARK    3  A    between atoms: C_8  and  S_9
REMARK    4  A    between atoms: S_9  and  C_12
REMARK                            x       y       z     vdW  Elec       q    Type
REMARK                         _______ _______ _______ _____ _____    ______ ____
ROOT
ATOM      1  C   UNL     1       1.804   7.828  19.515  0.00  0.00    +0.000 A 
ATOM      2  C   UNL     1       2.228   8.198  18.229  0.00  0.00    +0.000 A 
ATOM      3  C   UNL     1       2.077   9.500  17.767  0.00  0.00    +0.000 A 
ATOM      4  C   UNL     1       1.330  10.408  18.505  0.00  0.00    +0.000 A 
ATOM      5  C   UNL     1       0.771  10.030  19.734  0.00  0.00    +0.000 A 
ATOM      6  C   UNL     1       1.063   8.756  20.254  0.00  0.00    +0.000 A 
ENDROOT
BRANCH   1   8
ATOM      7  O   UNL     1       1.577   6.276  21.255  0.00  0.00    +0.000 OA
ATOM      8  C   UNL     1       2.034   6.469  20.127  0.00  0.00    +0.000 C 
ATOM      9  N   UNL     1       2.797   5.513  19.462  0.00  0.00    +0.000 N 
ATOM     10  C   UNL     1       2.782   4.176  20.075  0.00  0.00    +0.000 C 
ATOM     11  C   UNL     1       3.666   3.139  19.474  0.00  0.00    +0.000 C 
ATOM     12  C   UNL     1       4.580   3.668  18.399  0.00  0.00    +0.000 C 
ATOM     13  C   UNL     1       4.580   5.050  17.752  0.00  0.00    +0.000 C 
ATOM     14  C   UNL     1       5.776   5.979  18.176  0.00  0.00    +0.000 C 
ATOM     15  C   UNL     1       7.119   5.297  18.434  0.00  0.00    +0.000 C 
ATOM     16  C   UNL     1       7.756   4.503  17.292  0.00  0.00    +0.000 C 
ATOM     17  C   UNL     1       7.171   4.596  15.884  0.00  0.00    +0.000 C 
ATOM     18  C   UNL     1       5.778   4.008  15.694  0.00  0.00    +0.000 C 
ATOM     19  C   UNL     1       4.657   4.924  16.187  0.00  0.00    +0.000 C 
ATOM     20  C   UNL     1       3.272   5.715  18.099  0.00  0.00    +0.000 C 
ENDBRANCH   1   8
BRANCH   5  21
ATOM     21  C   UNL     1      -0.277  10.858  20.425  0.00  0.00    +0.000 C 
BRANCH  21  22
ATOM     22  S   UNL     1       0.278  12.504  20.831  0.00  0.00    +0.000 S 
ATOM     23  O   UNL     1       1.584  12.480  21.380  0.00  0.00    +0.000 OA
ATOM     24  O   UNL     1      -0.072  13.392  19.704  0.00  0.00    +0.000 OA
BRANCH  22  25
ATOM     25  C   UNL     1      -0.872  12.936  22.129  0.00  0.00    +0.000 A 
ATOM     26  C   UNL     1      -1.931  12.078  22.376  0.00  0.00    +0.000 A 
ATOM     27  C   UNL     1      -2.888  12.427  23.344  0.00  0.00    +0.000 A 
ATOM     28  C   UNL     1      -2.752  13.622  24.060  0.00  0.00    +0.000 A 
ATOM     29  C   UNL     1      -1.673  14.466  23.823  0.00  0.00    +0.000 A 
ATOM     30  C   UNL     1      -0.716  14.121  22.848  0.00  0.00    +0.000 A 
ENDBRANCH  22  25
ENDBRANCH  21  22
ENDBRANCH   5  21
TORSDOF 4
ENDMDL
MODEL 5
REMARK VINA RESULT:      -8.5      2.440      4.167
REMARK  Name = 
REMARK  4 active torsions:
REMARK  status: ('A' for Active; 'I' for Inactive)
REMARK    1  A    between atoms: C_2  and  C_3
REMARK    2  A    between atoms: C_7  and  C_8
REMARK    3  A    between atoms: C_8  and  S_9
REMARK    4  A    between atoms: S_9  and  C_12
REMARK                            x       y       z     vdW  Elec       q    Type
REMARK                         _______ _______ _______ _____ _____    ______ ____
ROOT
ATOM      1  C   UNL     1       1.803   7.857  19.502  0.00  0.00    +0.000 A 
ATOM      2  C   UNL     1       2.090   8.206  18.174  0.00  0.00    +0.000 A 
ATOM      3  C   UNL     1       1.993   9.522  17.736  0.00  0.00    +0.000 A 
ATOM      4  C   UNL     1       1.427  10.481  18.566  0.00  0.00    +0.000 A 
ATOM      5  C   UNL     1       0.999  10.136  19.855  0.00  0.00    +0.000 A 
ATOM      6  C   UNL     1       1.244   8.835  20.331  0.00  0.00    +0.000 A 
ENDROOT
BRANCH   1   8
ATOM      7  O   UNL     1       1.503   6.258  21.187  0.00  0.00    +0.000 OA
ATOM      8  C   UNL     1       1.991   6.476  20.077  0.00  0.00    +0.000 C 
ATOM      9  N   UNL     1       2.752   5.525  19.403  0.00  0.00    +0.000 N 
ATOM     10  C   UNL     1       2.695   4.171  19.973  0.00  0.00    +0.000 C 
ATOM     11  C   UNL     1       3.573   3.135  19.362  0.00  0.00    +0.000 C 
ATOM     12  C   UNL     1       4.524   3.678  18.326  0.00  0.00    +0.000 C 
ATOM     13  C   UNL     1       4.566   5.078  17.722  0.00  0.00    +0.000 C 
ATOM     14  C   UNL     1       5.770   5.970  18.203  0.00  0.00    +0.000 C 
ATOM     15  C   UNL     1       7.093   5.253  18.472  0.00  0.00    +0.000 C 
ATOM     16  C   UNL     1       7.742   4.481  17.322  0.00  0.00    +0.000 C 
ATOM     17  C   UNL     1       7.194   4.629  15.904  0.00  0.00    +0.000 C 
ATOM     18  C   UNL     1       5.795   4.075  15.662  0.00  0.00    +0.000 C 
ATOM     19  C   UNL     1       4.680   4.998  16.156  0.00  0.00    +0.000 C 
ATOM     20  C   UNL     1       3.263   5.759  18.058  0.00  0.00    +0.000 C 
ENDBRANCH   1   8
BRANCH   5  21
ATOM     21  C   UNL     1       0.122  11.041  20.676  0.00  0.00    +0.000 C 
BRANCH  21  22
ATOM     22  S   UNL     1      -1.147  11.852  19.720  0.00  0.00    +0.000 S 
ATOM     23  O   UNL     1      -0.659  13.047  19.136  0.00  0.00    +0.000 OA
ATOM     24  O   UNL     1      -1.838  10.824  18.916  0.00  0.00    +0.000 OA
BRANCH  22  25
ATOM     25  C   UNL     1      -2.310  12.287  21.005  0.00  0.00    +0.000 A 
ATOM     26  C   UNL     1      -1.962  12.019  22.319  0.00  0.00    +0.000 A 
ATOM     27  C   UNL     1      -2.885  12.288  23.343  0.00  0.00    +0.000 A 
ATOM     28  C   UNL     1      -4.133  12.840  23.031  0.00  0.00    +0.000 A 
ATOM     29  C   UNL     1      -4.465  13.127  21.713  0.00  0.00    +0.000 A 
ATOM     30  C   UNL     1      -3.543  12.852  20.682  0.00  0.00    +0.000 A 
ENDBRANCH  22  25
ENDBRANCH  21  22
ENDBRANCH   5  21
TORSDOF 4
ENDMDL
MODEL 6
REMARK VINA RESULT:      -8.5      2.856      3.389
REMARK  Name = 
REMARK  4 active torsions:
REMARK  status: ('A' for Active; 'I' for Inactive)
REMARK    1  A    between atoms: C_2  and  C_3
REMARK    2  A    between atoms: C_7  and  C_8
REMARK    3  A    between atoms: C_8  and  S_9
REMARK    4  A    between atoms: S_9  and  C_12
REMARK                            x       y       z     vdW  Elec       q    Type
REMARK                         _______ _______ _______ _____ _____    ______ ____
ROOT
ATOM      1  C   UNL     1       1.402   8.923  19.319  0.00  0.00    +0.000 A 
ATOM      2  C   UNL     1       1.513   8.235  20.537  0.00  0.00    +0.000 A 
ATOM      3  C   UNL     1       0.582   8.414  21.554  0.00  0.00    +0.000 A 
ATOM      4  C   UNL     1      -0.367   9.423  21.446  0.00  0.00    +0.000 A 
ATOM      5  C   UNL     1      -0.418  10.225  20.297  0.00  0.00    +0.000 A 
ATOM      6  C   UNL     1       0.434   9.927  19.218  0.00  0.00    +0.000 A 
ENDROOT
BRANCH   1   8
ATOM      7  O   UNL     1       2.301   9.561  17.253  0.00  0.00    +0.000 OA
ATOM      8  C   UNL     1       2.305   8.699  18.132  0.00  0.00    +0.000 C 
ATOM      9  N   UNL     1       3.045   7.525  18.017  0.00  0.00    +0.000 N 
ATOM     10  C   UNL     1       4.024   7.518  16.919  0.00  0.00    +0.000 C 
ATOM     11  C   UNL     1       4.769   6.252  16.676  0.00  0.00    +0.000 C 
ATOM     12  C   UNL     1       4.287   5.093  17.511  0.00  0.00    +0.000 C 
ATOM     13  C   UNL     1       3.286   5.108  18.662  0.00  0.00    +0.000 C 
ATOM     14  C   UNL     1       1.885   4.476  18.329  0.00  0.00    +0.000 C 
ATOM     15  C   UNL     1       1.878   3.281  17.375  0.00  0.00    +0.000 C 
ATOM     16  C   UNL     1       2.674   2.037  17.772  0.00  0.00    +0.000 C 
ATOM     17  C   UNL     1       3.254   1.924  19.181  0.00  0.00    +0.000 C 
ATOM     18  C   UNL     1       4.363   2.908  19.532  0.00  0.00    +0.000 C 
ATOM     19  C   UNL     1       3.848   4.303  19.890  0.00  0.00    +0.000 C 
ATOM     20  C   UNL     1       3.107   6.543  19.092  0.00  0.00    +0.000 C 
ENDBRANCH   1   8
BRANCH   5  21
ATOM     21  C   UNL     1      -1.211  11.501  20.247  0.00  0.00    +0.000 C 
BRANCH  21  22
ATOM     22  S   UNL     1      -0.391  12.873  21.039  0.00  0.00    +0.000 S 
ATOM     23  O   UNL     1       0.863  12.480  21.568  0.00  0.00    +0.000 OA
ATOM     24  O   UNL     1      -0.525  14.052  20.160  0.00  0.00    +0.000 OA
BRANCH  22  25
ATOM     25  C   UNL     1      -1.504  13.188  22.402  0.00  0.00    +0.000 A 
ATOM     26  C   UNL     1      -2.650  12.417  22.502  0.00  0.00    +0.000 A 
ATOM     27  C   UNL     1      -3.575  12.689  23.523  0.00  0.00    +0.000 A 
ATOM     28  C   UNL     1      -3.322  13.718  24.438  0.00  0.00    +0.000 A 
ATOM     29  C   UNL     1      -2.158  14.471  24.346  0.00  0.00    +0.000 A 
ATOM     30  C   UNL     1      -1.232  14.205  23.317  0.00  0.00    +0.000 A 
ENDBRANCH  22  25
ENDBRANCH  21  22
ENDBRANCH   5  21
TORSDOF 4
ENDMDL
MODEL 7
REMARK VINA RESULT:      -8.3      1.118      1.236
REMARK  Name = 
REMARK  4 active torsions:
REMARK  status: ('A' for Active; 'I' for Inactive)
REMARK    1  A    between atoms: C_2  and  C_3
REMARK    2  A    between atoms: C_7  and  C_8
REMARK    3  A    between atoms: C_8  and  S_9
REMARK    4  A    between atoms: S_9  and  C_12
REMARK                            x       y       z     vdW  Elec       q    Type
REMARK                         _______ _______ _______ _____ _____    ______ ____
ROOT
ATOM      1  C   UNL     1       1.413   8.914  19.128  0.00  0.00    +0.000 A 
ATOM      2  C   UNL     1       1.536   8.419  20.435  0.00  0.00    +0.000 A 
ATOM      3  C   UNL     1       0.523   8.595  21.371  0.00  0.00    +0.000 A 
ATOM      4  C   UNL     1      -0.547   9.431  21.075  0.00  0.00    +0.000 A 
ATOM      5  C   UNL     1      -0.631  10.056  19.823  0.00  0.00    +0.000 A 
ATOM      6  C   UNL     1       0.326   9.744  18.839  0.00  0.00    +0.000 A 
ENDROOT
BRANCH   1   8
ATOM      7  O   UNL     1       2.506   9.523  17.147  0.00  0.00    +0.000 OA
ATOM      8  C   UNL     1       2.417   8.668  18.029  0.00  0.00    +0.000 C 
ATOM      9  N   UNL     1       3.148   7.483  17.990  0.00  0.00    +0.000 N 
ATOM     10  C   UNL     1       4.221   7.453  16.985  0.00  0.00    +0.000 C 
ATOM     11  C   UNL     1       4.966   6.175  16.819  0.00  0.00    +0.000 C 
ATOM     12  C   UNL     1       4.394   5.030  17.616  0.00  0.00    +0.000 C 
ATOM     13  C   UNL     1       3.294   5.069  18.671  0.00  0.00    +0.000 C 
ATOM     14  C   UNL     1       1.919   4.453  18.217  0.00  0.00    +0.000 C 
ATOM     15  C   UNL     1       1.982   3.251  17.275  0.00  0.00    +0.000 C 
ATOM     16  C   UNL     1       2.720   1.999  17.751  0.00  0.00    +0.000 C 
ATOM     17  C   UNL     1       3.168   1.889  19.207  0.00  0.00    +0.000 C 
ATOM     18  C   UNL     1       4.255   2.861  19.651  0.00  0.00    +0.000 C 
ATOM     19  C   UNL     1       3.731   4.266  19.951  0.00  0.00    +0.000 C 
ATOM     20  C   UNL     1       3.097   6.509  19.073  0.00  0.00    +0.000 C 
ENDBRANCH   1   8
BRANCH   5  21
ATOM     21  C   UNL     1      -1.587  11.184  19.554  0.00  0.00    +0.000 C 
BRANCH  21  22
ATOM     22  S   UNL     1      -2.510  10.981  18.041  0.00  0.00    +0.000 S 
ATOM     23  O   UNL     1      -1.949  11.754  16.994  0.00  0.00    +0.000 OA
ATOM     24  O   UNL     1      -2.798   9.542  17.873  0.00  0.00    +0.000 OA
BRANCH  22  25
ATOM     25  C   UNL     1      -4.076  11.710  18.502  0.00  0.00    +0.000 A 
ATOM     26  C   UNL     1      -5.159  11.521  17.660  0.00  0.00    +0.000 A 
ATOM     27  C   UNL     1      -6.383  12.140  17.964  0.00  0.00    +0.000 A 
ATOM     28  C   UNL     1      -6.502  12.922  19.119  0.00  0.00    +0.000 A 
ATOM     29  C   UNL     1      -5.417  13.087  19.971  0.00  0.00    +0.000 A 
ATOM     30  C   UNL     1      -4.186  12.472  19.665  0.00  0.00    +0.000 A 
ENDBRANCH  22  25
ENDBRANCH  21  22
ENDBRANCH   5  21
TORSDOF 4
ENDMDL
MODEL 8
REMARK VINA RESULT:      -8.2      2.177      2.648
REMARK  Name = 
REMARK  4 active torsions:
REMARK  status: ('A' for Active; 'I' for Inactive)
REMARK    1  A    between atoms: C_2  and  C_3
REMARK    2  A    between atoms: C_7  and  C_8
REMARK    3  A    between atoms: C_8  and  S_9
REMARK    4  A    between atoms: S_9  and  C_12
REMARK                            x       y       z     vdW  Elec       q    Type
REMARK                         _______ _______ _______ _____ _____    ______ ____
ROOT
ATOM      1  C   UNL     1       1.325   9.012  19.572  0.00  0.00    +0.000 A 
ATOM      2  C   UNL     1       1.114   8.027  20.548  0.00  0.00    +0.000 A 
ATOM      3  C   UNL     1       0.234   8.235  21.604  0.00  0.00    +0.000 A 
ATOM      4  C   UNL     1      -0.305   9.499  21.809  0.00  0.00    +0.000 A 
ATOM      5  C   UNL     1      -0.003  10.548  20.929  0.00  0.00    +0.000 A 
ATOM      6  C   UNL     1       0.767  10.276  19.783  0.00  0.00    +0.000 A 
ENDROOT
BRANCH   1   8
ATOM      7  O   UNL     1       2.123   9.697  17.479  0.00  0.00    +0.000 OA
ATOM      8  C   UNL     1       2.175   8.818  18.341  0.00  0.00    +0.000 C 
ATOM      9  N   UNL     1       2.920   7.655  18.170  0.00  0.00    +0.000 N 
ATOM     10  C   UNL     1       3.847   7.677  17.028  0.00  0.00    +0.000 C 
ATOM     11  C   UNL     1       4.591   6.423  16.728  0.00  0.00    +0.000 C 
ATOM     12  C   UNL     1       4.158   5.244  17.562  0.00  0.00    +0.000 C 
ATOM     13  C   UNL     1       3.211   5.229  18.758  0.00  0.00    +0.000 C 
ATOM     14  C   UNL     1       1.802   4.588  18.478  0.00  0.00    +0.000 C 
ATOM     15  C   UNL     1       1.762   3.412  17.503  0.00  0.00    +0.000 C 
ATOM     16  C   UNL     1       2.586   2.168  17.839  0.00  0.00    +0.000 C 
ATOM     17  C   UNL     1       3.231   2.035  19.218  0.00  0.00    +0.000 C 
ATOM     18  C   UNL     1       4.346   3.023  19.537  0.00  0.00    +0.000 C 
ATOM     19  C   UNL     1       3.836   4.407  19.944  0.00  0.00    +0.000 C 
ATOM     20  C   UNL     1       3.039   6.653  19.222  0.00  0.00    +0.000 C 
ENDBRANCH   1   8
BRANCH   5  21
ATOM     21  C   UNL     1      -0.308  11.982  21.258  0.00  0.00    +0.000 C 
BRANCH  21  22
ATOM     22  S   UNL     1      -1.723  12.622  20.379  0.00  0.00    +0.000 S 
ATOM     23  O   UNL     1      -1.494  13.953  19.947  0.00  0.00    +0.000 OA
ATOM     24  O   UNL     1      -2.192  11.576  19.449  0.00  0.00    +0.000 OA
BRANCH  22  25
ATOM     25  C   UNL     1      -2.943  12.656  21.685  0.00  0.00    +0.000 A 
ATOM     26  C   UNL     1      -4.238  13.026  21.360  0.00  0.00    +0.000 A 
ATOM     27  C   UNL     1      -5.200  13.126  22.378  0.00  0.00    +0.000 A 
ATOM     28  C   UNL     1      -4.849  12.833  23.701  0.00  0.00    +0.000 A 
ATOM     29  C   UNL     1      -3.554  12.440  24.015  0.00  0.00    +0.000 A 
ATOM     30  C   UNL     1      -2.585  12.345  22.996  0.00  0.00    +0.000 A 
ENDBRANCH  22  25
ENDBRANCH  21  22
ENDBRANCH   5  21
TORSDOF 4
ENDMDL
MODEL 9
REMARK VINA RESULT:      -8.2      3.329      5.091
REMARK  Name = 
REMARK  4 active torsions:
REMARK  status: ('A' for Active; 'I' for Inactive)
REMARK    1  A    between atoms: C_2  and  C_3
REMARK    2  A    between atoms: C_7  and  C_8
REMARK    3  A    between atoms: C_8  and  S_9
REMARK    4  A    between atoms: S_9  and  C_12
REMARK                            x       y       z     vdW  Elec       q    Type
REMARK                         _______ _______ _______ _____ _____    ______ ____
ROOT
ATOM      1  C   UNL     1       1.770   7.874  19.433  0.00  0.00    +0.000 A 
ATOM      2  C   UNL     1       2.376   8.273  18.231  0.00  0.00    +0.000 A 
ATOM      3  C   UNL     1       2.184   9.550  17.716  0.00  0.00    +0.000 A 
ATOM      4  C   UNL     1       1.235  10.386  18.290  0.00  0.00    +0.000 A 
ATOM      5  C   UNL     1       0.508   9.964  19.412  0.00  0.00    +0.000 A 
ATOM      6  C   UNL     1       0.826   8.730  20.008  0.00  0.00    +0.000 A 
ENDROOT
BRANCH   1   8
ATOM      7  O   UNL     1       1.569   6.407  21.248  0.00  0.00    +0.000 OA
ATOM      8  C   UNL     1       2.019   6.549  20.109  0.00  0.00    +0.000 C 
ATOM      9  N   UNL     1       2.790   5.570  19.489  0.00  0.00    +0.000 N 
ATOM     10  C   UNL     1       2.792   4.265  20.167  0.00  0.00    +0.000 C 
ATOM     11  C   UNL     1       3.685   3.209  19.613  0.00  0.00    +0.000 C 
ATOM     12  C   UNL     1       4.588   3.694  18.508  0.00  0.00    +0.000 C 
ATOM     13  C   UNL     1       4.569   5.042  17.794  0.00  0.00    +0.000 C 
ATOM     14  C   UNL     1       5.757   6.005  18.165  0.00  0.00    +0.000 C 
ATOM     15  C   UNL     1       7.109   5.351  18.449  0.00  0.00    +0.000 C 
ATOM     16  C   UNL     1       7.749   4.509  17.345  0.00  0.00    +0.000 C 
ATOM     17  C   UNL     1       7.156   4.526  15.937  0.00  0.00    +0.000 C 
ATOM     18  C   UNL     1       5.769   3.913  15.784  0.00  0.00    +0.000 C 
ATOM     19  C   UNL     1       4.640   4.840  16.237  0.00  0.00    +0.000 C 
ATOM     20  C   UNL     1       3.255   5.710  18.115  0.00  0.00    +0.000 C 
ENDBRANCH   1   8
BRANCH   5  21
ATOM     21  C   UNL     1      -0.719  10.690  19.889  0.00  0.00    +0.000 C 
BRANCH  21  22
ATOM     22  S   UNL     1      -0.383  11.870  21.184  0.00  0.00    +0.000 S 
ATOM     23  O   UNL     1      -1.581  12.284  21.819  0.00  0.00    +0.000 OA
ATOM     24  O   UNL     1       0.773  11.378  21.959  0.00  0.00    +0.000 OA
BRANCH  22  25
ATOM     25  C   UNL     1       0.253  13.242  20.231  0.00  0.00    +0.000 A 
ATOM     26  C   UNL     1       1.616  13.487  20.269  0.00  0.00    +0.000 A 
ATOM     27  C   UNL     1       2.133  14.600  19.585  0.00  0.00    +0.000 A 
ATOM     28  C   UNL     1       1.275  15.433  18.858  0.00  0.00    +0.000 A 
ATOM     29  C   UNL     1      -0.088  15.166  18.806  0.00  0.00    +0.000 A 
ATOM     30  C   UNL     1      -0.610  14.055  19.498  0.00  0.00    +0.000 A 
ENDBRANCH  22  25
ENDBRANCH  21  22
ENDBRANCH   5  21
TORSDOF 4
ENDMDL
