MODEL 1
REMARK VINA RESULT:      -8.7      0.000      0.000
REMARK  Name = 
REMARK  7 active torsions:
REMARK  status: ('A' for Active; 'I' for Inactive)
REMARK    1  A    between atoms: C_1  and  N_2
REMARK    2  A    between atoms: C_6  and  C_7
REMARK    3  A    between atoms: C_7  and  C_8
REMARK    4  A    between atoms: C_12  and  N_13
REMARK    5  A    between atoms: C_18  and  C_19
REMARK    6  A    between atoms: C_19  and  C_20
REMARK    7  A    between atoms: C_24  and  C_25
REMARK                            x       y       z     vdW  Elec       q    Type
REMARK                         _______ _______ _______ _____ _____    ______ ____
ROOT
ATOM      1  N   UNL     1       3.869   4.684  19.298  0.00  0.00    +0.000 N 
ATOM      2  C   UNL     1       5.228   5.273  19.403  0.00  0.00    +0.000 C 
ATOM      3  C   UNL     1       5.767   5.072  18.016  0.00  0.00    +0.000 A 
ATOM      4  C   UNL     1       5.124   3.953  17.480  0.00  0.00    +0.000 A 
ATOM      5  C   UNL     1       5.282   3.546  16.166  0.00  0.00    +0.000 A 
ATOM      6  C   UNL     1       6.127   4.303  15.342  0.00  0.00    +0.000 A 
ATOM      7  C   UNL     1       6.768   5.448  15.877  0.00  0.00    +0.000 A 
ATOM      8  C   UNL     1       6.590   5.860  17.219  0.00  0.00    +0.000 A 
ATOM      9  C   UNL     1       3.999   3.599  18.381  0.00  0.00    +0.000 C 
ATOM     10  O   UNL     1       3.252   2.667  18.197  0.00  0.00    +0.000 OA
ENDROOT
BRANCH   1  15
ATOM     11  C   UNL     1       1.830   7.619  19.951  0.00  0.00    +0.000 A 
ATOM     12  C   UNL     1       2.401   8.436  18.964  0.00  0.00    +0.000 A 
ATOM     13  C   UNL     1       3.032   7.873  17.857  0.00  0.00    +0.000 A 
ATOM     14  C   UNL     1       3.198   6.500  17.781  0.00  0.00    +0.000 A 
ATOM     15  C   UNL     1       2.907   5.714  18.905  0.00  0.00    +0.000 A 
ATOM     16  C   UNL     1       2.065   6.237  19.897  0.00  0.00    +0.000 A 
BRANCH  11  17
ATOM     17  C   UNL     1       0.949   8.244  21.010  0.00  0.00    +0.000 C 
BRANCH  17  23
ATOM     18  C   UNL     1      -0.912   9.939  19.114  0.00  0.00    +0.000 C 
ATOM     19  N   UNL     1      -0.022  10.436  20.127  0.00  0.00    +0.000 N 
ATOM     20  C   UNL     1       0.122  11.744  20.475  0.00  0.00    +0.000 A 
ATOM     21  N   UNL     1       1.004  11.851  21.436  0.00  0.00    +0.000 NA
ATOM     22  N   UNL     1       1.444  10.584  21.738  0.00  0.00    +0.000 NA
ATOM     23  C   UNL     1       0.819   9.729  20.949  0.00  0.00    +0.000 A 
ENDBRANCH  17  23
ENDBRANCH  11  17
ENDBRANCH   1  15
BRANCH   8  24
ATOM     24  C   UNL     1       7.196   7.163  17.675  0.00  0.00    +0.000 C 
ATOM     25  F   UNL     1       7.915   7.076  18.828  0.00  0.00    +0.000 F 
ATOM     26  F   UNL     1       8.048   7.689  16.754  0.00  0.00    +0.000 F 
ATOM     27  F   UNL     1       6.259   8.124  17.909  0.00  0.00    +0.000 F 
ENDBRANCH   8  24
BRANCH   6  28
ATOM     28  C   UNL     1       6.318   3.915  13.890  0.00  0.00    +0.000 C 
BRANCH  28  29
ATOM     29  C   UNL     1       7.200   4.790  13.158  0.00  0.00    +0.000 C 
ATOM     30  N   UNL     1       8.190   5.592  13.234  0.00  0.00    +0.000 NA
ATOM     31  C   UNL     1       7.596   5.204  11.883  0.00  0.00    +0.000 C 
ENDBRANCH  28  29
ENDBRANCH   6  28
TORSDOF 6
ENDMDL
MODEL 2
REMARK VINA RESULT:      -8.7      1.004      1.298
REMARK  Name = 
REMARK  7 active torsions:
REMARK  status: ('A' for Active; 'I' for Inactive)
REMARK    1  A    between atoms: C_1  and  N_2
REMARK    2  A    between atoms: C_6  and  C_7
REMARK    3  A    between atoms: C_7  and  C_8
REMARK    4  A    between atoms: C_12  and  N_13
REMARK    5  A    between atoms: C_18  and  C_19
REMARK    6  A    between atoms: C_19  and  C_20
REMARK    7  A    between atoms: C_24  and  C_25
REMARK                            x       y       z     vdW  Elec       q    Type
REMARK                         _______ _______ _______ _____ _____    ______ ____
ROOT
ATOM      1  N   UNL     1       4.145   4.499  18.805  0.00  0.00    +0.000 N 
ATOM      2  C   UNL     1       5.470   5.120  19.058  0.00  0.00    +0.000 C 
ATOM      3  C   UNL     1       6.091   5.107  17.691  0.00  0.00    +0.000 A 
ATOM      4  C   UNL     1       5.527   4.038  16.990  0.00  0.00    +0.000 A 
ATOM      5  C   UNL     1       5.773   3.797  15.649  0.00  0.00    +0.000 A 
ATOM      6  C   UNL     1       6.627   4.677  14.970  0.00  0.00    +0.000 A 
ATOM      7  C   UNL     1       7.189   5.772  15.674  0.00  0.00    +0.000 A 
ATOM      8  C   UNL     1       6.921   6.014  17.042  0.00  0.00    +0.000 A 
ATOM      9  C   UNL     1       4.371   3.537  17.776  0.00  0.00    +0.000 C 
ATOM     10  O   UNL     1       3.675   2.607  17.440  0.00  0.00    +0.000 OA
ENDROOT
BRANCH   1  15
ATOM     11  C   UNL     1       2.003   7.306  19.663  0.00  0.00    +0.000 A 
ATOM     12  C   UNL     1       2.573   8.223  18.769  0.00  0.00    +0.000 A 
ATOM     13  C   UNL     1       3.247   7.781  17.635  0.00  0.00    +0.000 A 
ATOM     14  C   UNL     1       3.457   6.426  17.440  0.00  0.00    +0.000 A 
ATOM     15  C   UNL     1       3.162   5.534  18.480  0.00  0.00    +0.000 A 
ATOM     16  C   UNL     1       2.281   5.941  19.492  0.00  0.00    +0.000 A 
BRANCH  11  17
ATOM     17  C   UNL     1       1.077   7.807  20.750  0.00  0.00    +0.000 C 
BRANCH  17  23
ATOM     18  C   UNL     1      -0.685   9.738  18.990  0.00  0.00    +0.000 C 
ATOM     19  N   UNL     1       0.159  10.100  20.096  0.00  0.00    +0.000 N 
ATOM     20  C   UNL     1       0.293  11.354  20.606  0.00  0.00    +0.000 A 
ATOM     21  N   UNL     1       1.130  11.335  21.613  0.00  0.00    +0.000 NA
ATOM     22  N   UNL     1       1.549  10.036  21.778  0.00  0.00    +0.000 NA
ATOM     23  C   UNL     1       0.958   9.290  20.864  0.00  0.00    +0.000 A 
ENDBRANCH  17  23
ENDBRANCH  11  17
ENDBRANCH   1  15
BRANCH   8  24
ATOM     24  C   UNL     1       7.445   7.274  17.683  0.00  0.00    +0.000 C 
ATOM     25  F   UNL     1       6.486   8.193  17.985  0.00  0.00    +0.000 F 
ATOM     26  F   UNL     1       8.095   7.029  18.853  0.00  0.00    +0.000 F 
ATOM     27  F   UNL     1       8.336   7.934  16.891  0.00  0.00    +0.000 F 
ENDBRANCH   8  24
BRANCH   6  28
ATOM     28  C   UNL     1       6.912   4.474  13.497  0.00  0.00    +0.000 C 
BRANCH  28  29
ATOM     29  C   UNL     1       5.931   3.669  12.813  0.00  0.00    +0.000 C 
ATOM     30  N   UNL     1       4.709   3.577  12.453  0.00  0.00    +0.000 NA
ATOM     31  C   UNL     1       5.740   2.543  12.006  0.00  0.00    +0.000 C 
ENDBRANCH  28  29
ENDBRANCH   6  28
TORSDOF 6
ENDMDL
MODEL 3
REMARK VINA RESULT:      -8.6      1.181      1.665
REMARK  Name = 
REMARK  7 active torsions:
REMARK  status: ('A' for Active; 'I' for Inactive)
REMARK    1  A    between atoms: C_1  and  N_2
REMARK    2  A    between atoms: C_6  and  C_7
REMARK    3  A    between atoms: C_7  and  C_8
REMARK    4  A    between atoms: C_12  and  N_13
REMARK    5  A    between atoms: C_18  and  C_19
REMARK    6  A    between atoms: C_19  and  C_20
REMARK    7  A    between atoms: C_24  and  C_25
REMARK                            x       y       z     vdW  Elec       q    Type
REMARK                         _______ _______ _______ _____ _____    ______ ____
ROOT
ATOM      1  N   UNL     1       4.199   4.277  18.815  0.00  0.00    +0.000 N 
ATOM      2  C   UNL     1       5.516   4.915  19.063  0.00  0.00    +0.000 C 
ATOM      3  C   UNL     1       6.110   4.957  17.685  0.00  0.00    +0.000 A 
ATOM      4  C   UNL     1       5.552   3.900  16.961  0.00  0.00    +0.000 A 
ATOM      5  C   UNL     1       5.776   3.707  15.608  0.00  0.00    +0.000 A 
ATOM      6  C   UNL     1       6.600   4.624  14.942  0.00  0.00    +0.000 A 
ATOM      7  C   UNL     1       7.156   5.707  15.669  0.00  0.00    +0.000 A 
ATOM      8  C   UNL     1       6.910   5.900  17.049  0.00  0.00    +0.000 A 
ATOM      9  C   UNL     1       4.422   3.353  17.752  0.00  0.00    +0.000 C 
ATOM     10  O   UNL     1       3.737   2.421  17.400  0.00  0.00    +0.000 OA
ENDROOT
BRANCH   1  15
ATOM     11  C   UNL     1       2.196   7.166  19.735  0.00  0.00    +0.000 A 
ATOM     12  C   UNL     1       2.659   8.014  18.718  0.00  0.00    +0.000 A 
ATOM     13  C   UNL     1       3.187   7.487  17.543  0.00  0.00    +0.000 A 
ATOM     14  C   UNL     1       3.362   6.119  17.416  0.00  0.00    +0.000 A 
ATOM     15  C   UNL     1       3.190   5.302  18.544  0.00  0.00    +0.000 A 
ATOM     16  C   UNL     1       2.442   5.789  19.624  0.00  0.00    +0.000 A 
BRANCH  11  17
ATOM     17  C   UNL     1       1.414   7.753  20.889  0.00  0.00    +0.000 C 
BRANCH  17  23
ATOM     18  C   UNL     1      -0.151   9.587  22.919  0.00  0.00    +0.000 C 
ATOM     19  N   UNL     1       0.027   9.807  21.510  0.00  0.00    +0.000 N 
ATOM     20  C   UNL     1      -0.414  10.895  20.821  0.00  0.00    +0.000 A 
ATOM     21  N   UNL     1      -0.078  10.787  19.561  0.00  0.00    +0.000 NA
ATOM     22  N   UNL     1       0.611   9.606  19.416  0.00  0.00    +0.000 NA
ATOM     23  C   UNL     1       0.678   9.017  20.595  0.00  0.00    +0.000 A 
ENDBRANCH  17  23
ENDBRANCH  11  17
ENDBRANCH   1  15
BRANCH   8  24
ATOM     24  C   UNL     1       7.423   7.149  17.720  0.00  0.00    +0.000 C 
ATOM     25  F   UNL     1       8.275   7.889  16.956  0.00  0.00    +0.000 F 
ATOM     26  F   UNL     1       6.420   7.998  18.072  0.00  0.00    +0.000 F 
ATOM     27  F   UNL     1       8.110   6.884  18.867  0.00  0.00    +0.000 F 
ENDBRANCH   8  24
BRANCH   6  28
ATOM     28  C   UNL     1       6.860   4.473  13.457  0.00  0.00    +0.000 C 
BRANCH  28  29
ATOM     29  C   UNL     1       5.887   3.662  12.769  0.00  0.00    +0.000 C 
ATOM     30  N   UNL     1       4.686   3.591  12.343  0.00  0.00    +0.000 NA
ATOM     31  C   UNL     1       5.696   2.491  12.028  0.00  0.00    +0.000 C 
ENDBRANCH  28  29
ENDBRANCH   6  28
TORSDOF 6
ENDMDL
MODEL 4
REMARK VINA RESULT:      -8.6      0.703      1.043
REMARK  Name = 
REMARK  7 active torsions:
REMARK  status: ('A' for Active; 'I' for Inactive)
REMARK    1  A    between atoms: C_1  and  N_2
REMARK    2  A    between atoms: C_6  and  C_7
REMARK    3  A    between atoms: C_7  and  C_8
REMARK    4  A    between atoms: C_12  and  N_13
REMARK    5  A    between atoms: C_18  and  C_19
REMARK    6  A    between atoms: C_19  and  C_20
REMARK    7  A    between atoms: C_24  and  C_25
REMARK                            x       y       z     vdW  Elec       q    Type
REMARK                         _______ _______ _______ _____ _____    ______ ____
ROOT
ATOM      1  N   UNL     1       3.947   4.484  19.252  0.00  0.00    +0.000 N 
ATOM      2  C   UNL     1       5.296   5.094  19.360  0.00  0.00    +0.000 C 
ATOM      3  C   UNL     1       5.818   4.958  17.959  0.00  0.00    +0.000 A 
ATOM      4  C   UNL     1       5.187   3.849  17.389  0.00  0.00    +0.000 A 
ATOM      5  C   UNL     1       5.332   3.497  16.057  0.00  0.00    +0.000 A 
ATOM      6  C   UNL     1       6.150   4.301  15.251  0.00  0.00    +0.000 A 
ATOM      7  C   UNL     1       6.779   5.436  15.822  0.00  0.00    +0.000 A 
ATOM      8  C   UNL     1       6.613   5.791  17.182  0.00  0.00    +0.000 A 
ATOM      9  C   UNL     1       4.083   3.438  18.291  0.00  0.00    +0.000 C 
ATOM     10  O   UNL     1       3.350   2.500  18.082  0.00  0.00    +0.000 OA
ENDROOT
BRANCH   1  15
ATOM     11  C   UNL     1       2.012   7.471  19.982  0.00  0.00    +0.000 A 
ATOM     12  C   UNL     1       2.489   8.238  18.909  0.00  0.00    +0.000 A 
ATOM     13  C   UNL     1       3.000   7.623  17.770  0.00  0.00    +0.000 A 
ATOM     14  C   UNL     1       3.145   6.246  17.735  0.00  0.00    +0.000 A 
ATOM     15  C   UNL     1       2.960   5.510  18.915  0.00  0.00    +0.000 A 
ATOM     16  C   UNL     1       2.227   6.084  19.963  0.00  0.00    +0.000 A 
BRANCH  11  17
ATOM     17  C   UNL     1       1.247   8.150  21.096  0.00  0.00    +0.000 C 
BRANCH  17  23
ATOM     18  C   UNL     1      -0.447  10.048  22.956  0.00  0.00    +0.000 C 
ATOM     19  N   UNL     1      -0.294  10.141  21.530  0.00  0.00    +0.000 N 
ATOM     20  C   UNL     1      -0.824  11.117  20.743  0.00  0.00    +0.000 A 
ATOM     21  N   UNL     1      -0.488  10.912  19.495  0.00  0.00    +0.000 NA
ATOM     22  N   UNL     1       0.292   9.779  19.458  0.00  0.00    +0.000 NA
ATOM     23  C   UNL     1       0.412   9.318  20.689  0.00  0.00    +0.000 A 
ENDBRANCH  17  23
ENDBRANCH  11  17
ENDBRANCH   1  15
BRANCH   8  24
ATOM     24  C   UNL     1       7.202   7.087  17.680  0.00  0.00    +0.000 C 
ATOM     25  F   UNL     1       7.888   6.980  18.852  0.00  0.00    +0.000 F 
ATOM     26  F   UNL     1       8.080   7.633  16.794  0.00  0.00    +0.000 F 
ATOM     27  F   UNL     1       6.257   8.042  17.905  0.00  0.00    +0.000 F 
ENDBRANCH   8  24
BRANCH   6  28
ATOM     28  C   UNL     1       6.326   3.974  13.783  0.00  0.00    +0.000 C 
BRANCH  28  29
ATOM     29  C   UNL     1       7.240   4.848  13.091  0.00  0.00    +0.000 C 
ATOM     30  N   UNL     1       8.238   5.635  13.208  0.00  0.00    +0.000 NA
ATOM     31  C   UNL     1       7.680   5.275  11.834  0.00  0.00    +0.000 C 
ENDBRANCH  28  29
ENDBRANCH   6  28
TORSDOF 6
ENDMDL
MODEL 5
REMARK VINA RESULT:      -8.4      7.381     10.435
REMARK  Name = 
REMARK  7 active torsions:
REMARK  status: ('A' for Active; 'I' for Inactive)
REMARK    1  A    between atoms: C_1  and  N_2
REMARK    2  A    between atoms: C_6  and  C_7
REMARK    3  A    between atoms: C_7  and  C_8
REMARK    4  A    between atoms: C_12  and  N_13
REMARK    5  A    between atoms: C_18  and  C_19
REMARK    6  A    between atoms: C_19  and  C_20
REMARK    7  A    between atoms: C_24  and  C_25
REMARK                            x       y       z     vdW  Elec       q    Type
REMARK                         _______ _______ _______ _____ _____    ______ ____
ROOT
ATOM      1  N   UNL     1      -0.409  11.514  18.456  0.00  0.00    +0.000 N 
ATOM      2  C   UNL     1       0.368  10.730  19.449  0.00  0.00    +0.000 C 
ATOM      3  C   UNL     1      -0.104  11.313  20.750  0.00  0.00    +0.000 A 
ATOM      4  C   UNL     1      -0.495  12.630  20.496  0.00  0.00    +0.000 A 
ATOM      5  C   UNL     1      -1.105  13.435  21.444  0.00  0.00    +0.000 A 
ATOM      6  C   UNL     1      -1.339  12.891  22.714  0.00  0.00    +0.000 A 
ATOM      7  C   UNL     1      -0.958  11.550  22.971  0.00  0.00    +0.000 A 
ATOM      8  C   UNL     1      -0.347  10.734  21.990  0.00  0.00    +0.000 A 
ATOM      9  C   UNL     1      -0.540  12.816  19.024  0.00  0.00    +0.000 C 
ATOM     10  O   UNL     1      -0.837  13.854  18.481  0.00  0.00    +0.000 OA
ENDROOT
BRANCH   1  15
ATOM     11  C   UNL     1      -3.876  11.468  17.371  0.00  0.00    +0.000 A 
ATOM     12  C   UNL     1      -3.694  10.600  16.285  0.00  0.00    +0.000 A 
ATOM     13  C   UNL     1      -2.618   9.716  16.257  0.00  0.00    +0.000 A 
ATOM     14  C   UNL     1      -1.656   9.769  17.252  0.00  0.00    +0.000 A 
ATOM     15  C   UNL     1      -1.672  10.836  18.161  0.00  0.00    +0.000 A 
ATOM     16  C   UNL     1      -2.860  11.559  18.335  0.00  0.00    +0.000 A 
BRANCH  11  17
ATOM     17  C   UNL     1      -5.171  12.240  17.492  0.00  0.00    +0.000 C 
BRANCH  17  23
ATOM     18  C   UNL     1      -6.801   9.999  18.992  0.00  0.00    +0.000 C 
ATOM     19  N   UNL     1      -6.444  11.296  19.496  0.00  0.00    +0.000 N 
ATOM     20  C   UNL     1      -6.710  11.754  20.749  0.00  0.00    +0.000 A 
ATOM     21  N   UNL     1      -6.241  12.968  20.886  0.00  0.00    +0.000 NA
ATOM     22  N   UNL     1      -5.641  13.316  19.699  0.00  0.00    +0.000 NA
ATOM     23  C   UNL     1      -5.760  12.303  18.861  0.00  0.00    +0.000 A 
ENDBRANCH  17  23
ENDBRANCH  11  17
ENDBRANCH   1  15
BRANCH   8  24
ATOM     24  C   UNL     1      -0.097   9.279  22.296  0.00  0.00    +0.000 C 
ATOM     25  F   UNL     1       1.181   8.866  22.068  0.00  0.00    +0.000 F 
ATOM     26  F   UNL     1      -0.351   8.971  23.598  0.00  0.00    +0.000 F 
ATOM     27  F   UNL     1      -0.879   8.444  21.556  0.00  0.00    +0.000 F 
ENDBRANCH   8  24
BRANCH   6  28
ATOM     28  C   UNL     1      -2.023  13.721  23.781  0.00  0.00    +0.000 C 
BRANCH  28  29
ATOM     29  C   UNL     1      -3.399  13.362  24.013  0.00  0.00    +0.000 C 
ATOM     30  N   UNL     1      -4.618  13.624  23.737  0.00  0.00    +0.000 NA
ATOM     31  C   UNL     1      -4.250  12.414  24.592  0.00  0.00    +0.000 C 
ENDBRANCH  28  29
ENDBRANCH   6  28
TORSDOF 6
ENDMDL
MODEL 6
REMARK VINA RESULT:      -8.3      5.758      9.547
REMARK  Name = 
REMARK  7 active torsions:
REMARK  status: ('A' for Active; 'I' for Inactive)
REMARK    1  A    between atoms: C_1  and  N_2
REMARK    2  A    between atoms: C_6  and  C_7
REMARK    3  A    between atoms: C_7  and  C_8
REMARK    4  A    between atoms: C_12  and  N_13
REMARK    5  A    between atoms: C_18  and  C_19
REMARK    6  A    between atoms: C_19  and  C_20
REMARK    7  A    between atoms: C_24  and  C_25
REMARK                            x       y       z     vdW  Elec       q    Type
REMARK                         _______ _______ _______ _____ _____    ______ ____
ROOT
ATOM      1  N   UNL     1      -0.499  14.238  20.715  0.00  0.00    +0.000 N 
ATOM      2  C   UNL     1      -1.000  13.691  19.430  0.00  0.00    +0.000 C 
ATOM      3  C   UNL     1      -0.584  12.251  19.516  0.00  0.00    +0.000 A 
ATOM      4  C   UNL     1       0.547  12.195  20.335  0.00  0.00    +0.000 A 
ATOM      5  C   UNL     1       1.131  11.007  20.740  0.00  0.00    +0.000 A 
ATOM      6  C   UNL     1       0.549   9.808  20.305  0.00  0.00    +0.000 A 
ATOM      7  C   UNL     1      -0.608   9.860  19.488  0.00  0.00    +0.000 A 
ATOM      8  C   UNL     1      -1.202  11.081  19.090  0.00  0.00    +0.000 A 
ATOM      9  C   UNL     1       0.702  13.519  20.988  0.00  0.00    +0.000 C 
ATOM     10  O   UNL     1       1.595  13.796  21.755  0.00  0.00    +0.000 OA
ENDROOT
BRANCH   1  15
ATOM     11  C   UNL     1      -3.802  13.275  21.886  0.00  0.00    +0.000 A 
ATOM     12  C   UNL     1      -3.368  12.395  22.888  0.00  0.00    +0.000 A 
ATOM     13  C   UNL     1      -2.100  12.529  23.448  0.00  0.00    +0.000 A 
ATOM     14  C   UNL     1      -1.216  13.465  22.938  0.00  0.00    +0.000 A 
ATOM     15  C   UNL     1      -1.535  14.127  21.743  0.00  0.00    +0.000 A 
ATOM     16  C   UNL     1      -2.875  14.172  21.333  0.00  0.00    +0.000 A 
BRANCH  11  17
ATOM     17  C   UNL     1      -5.255  13.262  21.468  0.00  0.00    +0.000 C 
BRANCH  17  23
ATOM     18  C   UNL     1      -6.068  15.382  23.653  0.00  0.00    +0.000 C 
ATOM     19  N   UNL     1      -6.595  14.054  23.494  0.00  0.00    +0.000 N 
ATOM     20  C   UNL     1      -7.590  13.507  24.244  0.00  0.00    +0.000 A 
ATOM     21  N   UNL     1      -7.835  12.289  23.833  0.00  0.00    +0.000 NA
ATOM     22  N   UNL     1      -6.990  12.030  22.779  0.00  0.00    +0.000 NA
ATOM     23  C   UNL     1      -6.245  13.099  22.572  0.00  0.00    +0.000 A 
ENDBRANCH  17  23
ENDBRANCH  11  17
ENDBRANCH   1  15
BRANCH   8  24
ATOM     24  C   UNL     1      -2.507  11.052  18.336  0.00  0.00    +0.000 C 
ATOM     25  F   UNL     1      -3.557  11.603  19.006  0.00  0.00    +0.000 F 
ATOM     26  F   UNL     1      -2.439  11.723  17.154  0.00  0.00    +0.000 F 
ATOM     27  F   UNL     1      -2.906   9.787  18.025  0.00  0.00    +0.000 F 
ENDBRANCH   8  24
BRANCH   6  28
ATOM     28  C   UNL     1       1.134   8.480  20.738  0.00  0.00    +0.000 C 
BRANCH  28  29
ATOM     29  C   UNL     1       1.949   7.841  19.735  0.00  0.00    +0.000 C 
ATOM     30  N   UNL     1       2.654   6.817  19.444  0.00  0.00    +0.000 NA
ATOM     31  C   UNL     1       2.369   7.895  18.402  0.00  0.00    +0.000 C 
ENDBRANCH  28  29
ENDBRANCH   6  28
TORSDOF 6
ENDMDL
MODEL 7
REMARK VINA RESULT:      -8.3      1.381      1.894
REMARK  Name = 
REMARK  7 active torsions:
REMARK  status: ('A' for Active; 'I' for Inactive)
REMARK    1  A    between atoms: C_1  and  N_2
REMARK    2  A    between atoms: C_6  and  C_7
REMARK    3  A    between atoms: C_7  and  C_8
REMARK    4  A    between atoms: C_12  and  N_13
REMARK    5  A    between atoms: C_18  and  C_19
REMARK    6  A    between atoms: C_19  and  C_20
REMARK    7  A    between atoms: C_24  and  C_25
REMARK                            x       y       z     vdW  Elec       q    Type
REMARK                         _______ _______ _______ _____ _____    ______ ____
ROOT
ATOM      1  N   UNL     1       3.173   3.928  18.543  0.00  0.00    +0.000 N 
ATOM      2  C   UNL     1       4.538   4.051  19.114  0.00  0.00    +0.000 C 
ATOM      3  C   UNL     1       5.381   4.216  17.883  0.00  0.00    +0.000 A 
ATOM      4  C   UNL     1       4.713   3.579  16.834  0.00  0.00    +0.000 A 
ATOM      5  C   UNL     1       5.139   3.638  15.517  0.00  0.00    +0.000 A 
ATOM      6  C   UNL     1       6.294   4.379  15.234  0.00  0.00    +0.000 A 
ATOM      7  C   UNL     1       6.966   5.040  16.293  0.00  0.00    +0.000 A 
ATOM      8  C   UNL     1       6.514   4.981  17.632  0.00  0.00    +0.000 A 
ATOM      9  C   UNL     1       3.344   3.246  17.302  0.00  0.00    +0.000 C 
ATOM     10  O   UNL     1       2.516   2.679  16.627  0.00  0.00    +0.000 OA
ENDROOT
BRANCH   1  15
ATOM     11  C   UNL     1       2.136   7.124  19.925  0.00  0.00    +0.000 A 
ATOM     12  C   UNL     1       2.892   7.927  19.059  0.00  0.00    +0.000 A 
ATOM     13  C   UNL     1       3.285   7.449  17.812  0.00  0.00    +0.000 A 
ATOM     14  C   UNL     1       3.028   6.134  17.465  0.00  0.00    +0.000 A 
ATOM     15  C   UNL     1       2.553   5.250  18.444  0.00  0.00    +0.000 A 
ATOM     16  C   UNL     1       1.942   5.775  19.591  0.00  0.00    +0.000 A 
BRANCH  11  17
ATOM     17  C   UNL     1       1.520   7.743  21.161  0.00  0.00    +0.000 C 
BRANCH  17  23
ATOM     18  C   UNL     1       0.023   9.491  23.313  0.00  0.00    +0.000 C 
ATOM     19  N   UNL     1       0.059   9.707  21.893  0.00  0.00    +0.000 N 
ATOM     20  C   UNL     1      -0.514  10.755  21.241  0.00  0.00    +0.000 A 
ATOM     21  N   UNL     1      -0.285  10.656  19.956  0.00  0.00    +0.000 NA
ATOM     22  N   UNL     1       0.467   9.521  19.756  0.00  0.00    +0.000 NA
ATOM     23  C   UNL     1       0.678   8.952  20.927  0.00  0.00    +0.000 A 
ENDBRANCH  17  23
ENDBRANCH  11  17
ENDBRANCH   1  15
BRANCH   8  24
ATOM     24  C   UNL     1       7.203   5.822  18.678  0.00  0.00    +0.000 C 
ATOM     25  F   UNL     1       7.535   7.076  18.263  0.00  0.00    +0.000 F 
ATOM     26  F   UNL     1       6.437   5.998  19.789  0.00  0.00    +0.000 F 
ATOM     27  F   UNL     1       8.369   5.268  19.112  0.00  0.00    +0.000 F 
ENDBRANCH   8  24
BRANCH   6  28
ATOM     28  C   UNL     1       6.791   4.495  13.808  0.00  0.00    +0.000 C 
BRANCH  28  29
ATOM     29  C   UNL     1       6.070   3.677  12.865  0.00  0.00    +0.000 C 
ATOM     30  N   UNL     1       6.080   2.600  12.180  0.00  0.00    +0.000 NA
ATOM     31  C   UNL     1       4.846   3.497  12.212  0.00  0.00    +0.000 C 
ENDBRANCH  28  29
ENDBRANCH   6  28
TORSDOF 6
ENDMDL
MODEL 8
REMARK VINA RESULT:      -8.3      0.745      1.224
REMARK  Name = 
REMARK  7 active torsions:
REMARK  status: ('A' for Active; 'I' for Inactive)
REMARK    1  A    between atoms: C_1  and  N_2
REMARK    2  A    between atoms: C_6  and  C_7
REMARK    3  A    between atoms: C_7  and  C_8
REMARK    4  A    between atoms: C_12  and  N_13
REMARK    5  A    between atoms: C_18  and  C_19
REMARK    6  A    between atoms: C_19  and  C_20
REMARK    7  A    between atoms: C_24  and  C_25
REMARK                            x       y       z     vdW  Elec       q    Type
REMARK                         _______ _______ _______ _____ _____    ______ ____
ROOT
ATOM      1  N   UNL     1       3.617   5.004  19.247  0.00  0.00    +0.000 N 
ATOM      2  C   UNL     1       5.002   5.519  19.390  0.00  0.00    +0.000 C 
ATOM      3  C   UNL     1       5.595   5.206  18.046  0.00  0.00    +0.000 A 
ATOM      4  C   UNL     1       4.912   4.097  17.540  0.00  0.00    +0.000 A 
ATOM      5  C   UNL     1       5.109   3.606  16.260  0.00  0.00    +0.000 A 
ATOM      6  C   UNL     1       6.037   4.263  15.441  0.00  0.00    +0.000 A 
ATOM      7  C   UNL     1       6.720   5.398  15.945  0.00  0.00    +0.000 A 
ATOM      8  C   UNL     1       6.501   5.897  17.250  0.00  0.00    +0.000 A 
ATOM      9  C   UNL     1       3.725   3.861  18.400  0.00  0.00    +0.000 C 
ATOM     10  O   UNL     1       2.932   2.965  18.229  0.00  0.00    +0.000 OA
ENDROOT
BRANCH   1  15
ATOM     11  C   UNL     1       1.887   8.184  19.561  0.00  0.00    +0.000 A 
ATOM     12  C   UNL     1       2.491   8.806  18.459  0.00  0.00    +0.000 A 
ATOM     13  C   UNL     1       3.021   8.046  17.420  0.00  0.00    +0.000 A 
ATOM     14  C   UNL     1       3.056   6.666  17.522  0.00  0.00    +0.000 A 
ATOM     15  C   UNL     1       2.739   6.064  18.748  0.00  0.00    +0.000 A 
ATOM     16  C   UNL     1       1.990   6.790  19.685  0.00  0.00    +0.000 A 
BRANCH  11  17
ATOM     17  C   UNL     1       1.111   9.023  20.553  0.00  0.00    +0.000 C 
BRANCH  17  23
ATOM     18  C   UNL     1       1.520  12.148  20.548  0.00  0.00    +0.000 C 
ATOM     19  N   UNL     1       0.437  11.414  19.953  0.00  0.00    +0.000 N 
ATOM     20  C   UNL     1      -0.579  11.957  19.230  0.00  0.00    +0.000 A 
ATOM     21  N   UNL     1      -1.390  11.013  18.826  0.00  0.00    +0.000 NA
ATOM     22  N   UNL     1      -0.891   9.815  19.283  0.00  0.00    +0.000 NA
ATOM     23  C   UNL     1       0.215  10.059  19.960  0.00  0.00    +0.000 A 
ENDBRANCH  17  23
ENDBRANCH  11  17
ENDBRANCH   1  15
BRANCH   8  24
ATOM     24  C   UNL     1       7.163   7.187  17.665  0.00  0.00    +0.000 C 
ATOM     25  F   UNL     1       7.890   7.104  18.813  0.00  0.00    +0.000 F 
ATOM     26  F   UNL     1       8.026   7.654  16.721  0.00  0.00    +0.000 F 
ATOM     27  F   UNL     1       6.267   8.191  17.881  0.00  0.00    +0.000 F 
ENDBRANCH   8  24
BRANCH   6  28
ATOM     28  C   UNL     1       6.274   3.781  14.025  0.00  0.00    +0.000 C 
BRANCH  28  29
ATOM     29  C   UNL     1       7.122   4.646  13.243  0.00  0.00    +0.000 C 
ATOM     30  N   UNL     1       8.084   5.485  13.270  0.00  0.00    +0.000 NA
ATOM     31  C   UNL     1       7.498   5.006  11.945  0.00  0.00    +0.000 C 
ENDBRANCH  28  29
ENDBRANCH   6  28
TORSDOF 6
ENDMDL
MODEL 9
REMARK VINA RESULT:      -8.2      7.257     10.385
REMARK  Name = 
REMARK  7 active torsions:
REMARK  status: ('A' for Active; 'I' for Inactive)
REMARK    1  A    between atoms: C_1  and  N_2
REMARK    2  A    between atoms: C_6  and  C_7
REMARK    3  A    between atoms: C_7  and  C_8
REMARK    4  A    between atoms: C_12  and  N_13
REMARK    5  A    between atoms: C_18  and  C_19
REMARK    6  A    between atoms: C_19  and  C_20
REMARK    7  A    between atoms: C_24  and  C_25
REMARK                            x       y       z     vdW  Elec       q    Type
REMARK                         _______ _______ _______ _____ _____    ______ ____
ROOT
ATOM      1  N   UNL     1      -0.310  11.251  18.414  0.00  0.00    +0.000 N 
ATOM      2  C   UNL     1       0.414  10.469  19.447  0.00  0.00    +0.000 C 
ATOM      3  C   UNL     1      -0.024  11.141  20.716  0.00  0.00    +0.000 A 
ATOM      4  C   UNL     1      -0.333  12.466  20.398  0.00  0.00    +0.000 A 
ATOM      5  C   UNL     1      -0.894  13.351  21.304  0.00  0.00    +0.000 A 
ATOM      6  C   UNL     1      -1.163  12.883  22.598  0.00  0.00    +0.000 A 
ATOM      7  C   UNL     1      -0.866  11.535  22.919  0.00  0.00    +0.000 A 
ATOM      8  C   UNL     1      -0.304  10.637  21.981  0.00  0.00    +0.000 A 
ATOM      9  C   UNL     1      -0.363  12.584  18.919  0.00  0.00    +0.000 C 
ATOM     10  O   UNL     1      -0.595  13.612  18.326  0.00  0.00    +0.000 OA
ENDROOT
BRANCH   1  15
ATOM     11  C   UNL     1      -3.876  11.404  17.732  0.00  0.00    +0.000 A 
ATOM     12  C   UNL     1      -3.832  10.747  16.494  0.00  0.00    +0.000 A 
ATOM     13  C   UNL     1      -2.784   9.882  16.189  0.00  0.00    +0.000 A 
ATOM     14  C   UNL     1      -1.718   9.754  17.063  0.00  0.00    +0.000 A 
ATOM     15  C   UNL     1      -1.612  10.639  18.145  0.00  0.00    +0.000 A 
ATOM     16  C   UNL     1      -2.759  11.319  18.577  0.00  0.00    +0.000 A 
BRANCH  11  17
ATOM     17  C   UNL     1      -5.134  12.143  18.134  0.00  0.00    +0.000 C 
BRANCH  17  23
ATOM     18  C   UNL     1      -6.431  13.258  20.780  0.00  0.00    +0.000 C 
ATOM     19  N   UNL     1      -6.601  11.947  20.216  0.00  0.00    +0.000 N 
ATOM     20  C   UNL     1      -7.410  10.974  20.716  0.00  0.00    +0.000 A 
ATOM     21  N   UNL     1      -7.341   9.908  19.960  0.00  0.00    +0.000 NA
ATOM     22  N   UNL     1      -6.473  10.188  18.929  0.00  0.00    +0.000 NA
ATOM     23  C   UNL     1      -6.031  11.422  19.083  0.00  0.00    +0.000 A 
ENDBRANCH  17  23
ENDBRANCH  11  17
ENDBRANCH   1  15
BRANCH   8  24
ATOM     24  C   UNL     1      -0.144   9.186  22.357  0.00  0.00    +0.000 C 
ATOM     25  F   UNL     1      -0.907   8.327  21.625  0.00  0.00    +0.000 F 
ATOM     26  F   UNL     1       1.137   8.749  22.210  0.00  0.00    +0.000 F 
ATOM     27  F   UNL     1      -0.476   8.940  23.656  0.00  0.00    +0.000 F 
ENDBRANCH   8  24
BRANCH   6  28
ATOM     28  C   UNL     1      -1.797  13.802  23.621  0.00  0.00    +0.000 C 
BRANCH  28  29
ATOM     29  C   UNL     1      -2.726  14.753  23.062  0.00  0.00    +0.000 C 
ATOM     30  N   UNL     1      -3.919  14.943  22.649  0.00  0.00    +0.000 NA
ATOM     31  C   UNL     1      -2.928  16.100  22.745  0.00  0.00    +0.000 C 
ENDBRANCH  28  29
ENDBRANCH   6  28
TORSDOF 6
ENDMDL
