MODEL 1
REMARK VINA RESULT:      -9.4      0.000      0.000
REMARK  Name = 
REMARK  5 active torsions:
REMARK  status: ('A' for Active; 'I' for Inactive)
REMARK    1  A    between atoms: C_1  and  N_2
REMARK    2  A    between atoms: C_3  and  S_4
REMARK    3  A    between atoms: S_4  and  C_5
REMARK    4  A    between atoms: C_5  and  C_6
REMARK    5  A    between atoms: C_22  and  C_23
REMARK                            x       y       z     vdW  Elec       q    Type
REMARK                         _______ _______ _______ _____ _____    ______ ____
ROOT
ATOM      1  C   UNL     1       3.217   4.586  18.379  0.00  0.00    +0.000 C 
ENDROOT
BRANCH   1   2
ATOM      2  C   UNL     1       4.713   4.680  18.158  0.00  0.00    +0.000 A 
ATOM      3  C   UNL     1       5.484   4.972  19.222  0.00  0.00    +0.000 A 
ATOM      4  C   UNL     1       6.897   5.364  19.136  0.00  0.00    +0.000 A 
ATOM      5  O   UNL     1       7.586   5.467  20.142  0.00  0.00    +0.000 OA
ATOM      6  O   UNL     1       7.343   5.719  17.891  0.00  0.00    +0.000 OA
ATOM      7  C   UNL     1       6.646   5.279  16.751  0.00  0.00    +0.000 A 
ATOM      8  C   UNL     1       7.370   5.422  15.570  0.00  0.00    +0.000 A 
ATOM      9  C   UNL     1       6.857   4.858  14.429  0.00  0.00    +0.000 A 
ATOM     10  C   UNL     1       5.621   4.208  14.442  0.00  0.00    +0.000 A 
ATOM     11  C   UNL     1       4.848   4.147  15.621  0.00  0.00    +0.000 A 
ATOM     12  C   UNL     1       5.366   4.684  16.820  0.00  0.00    +0.000 A 
ATOM     13  C   UNL     1       5.336   3.664  13.068  0.00  0.00    +0.000 C 
ATOM     14  C   UNL     1       6.701   3.786  12.353  0.00  0.00    +0.000 C 
ATOM     15  C   UNL     1       7.521   4.841  13.094  0.00  0.00    +0.000 C 
ENDBRANCH   1   2
BRANCH   1  16
ATOM     16  S   UNL     1       2.627   5.551  19.819  0.00  0.00    +0.000 S 
BRANCH  16  19
ATOM     17  C   UNL     1       1.408   8.362  21.018  0.00  0.00    +0.000 C 
ATOM     18  N   UNL     1       1.800   8.202  19.642  0.00  0.00    +0.000 N 
ATOM     19  C   UNL     1       2.384   7.101  19.060  0.00  0.00    +0.000 A 
ATOM     20  N   UNL     1       2.740   7.389  17.834  0.00  0.00    +0.000 NA
ATOM     21  N   UNL     1       2.355   8.680  17.585  0.00  0.00    +0.000 NA
ATOM     22  C   UNL     1       1.754   9.176  18.654  0.00  0.00    +0.000 A 
BRANCH  22  23
ATOM     23  C   UNL     1       1.170  10.534  18.694  0.00  0.00    +0.000 A 
ATOM     24  C   UNL     1      -0.200  10.796  18.820  0.00  0.00    +0.000 A 
ATOM     25  C   UNL     1      -0.699  12.103  18.800  0.00  0.00    +0.000 A 
ATOM     26  C   UNL     1       0.169  13.181  18.628  0.00  0.00    +0.000 A 
ATOM     27 CL   UNL     1      -0.454  14.782  18.563  0.00  0.00    +0.000 Cl
ATOM     28  C   UNL     1       1.531  12.951  18.486  0.00  0.00    +0.000 A 
ATOM     29  C   UNL     1       2.024  11.638  18.522  0.00  0.00    +0.000 A 
ENDBRANCH  22  23
ENDBRANCH  16  19
ENDBRANCH   1  16
TORSDOF 4
ENDMDL
MODEL 2
REMARK VINA RESULT:      -9.0      3.709      4.885
REMARK  Name = 
REMARK  5 active torsions:
REMARK  status: ('A' for Active; 'I' for Inactive)
REMARK    1  A    between atoms: C_1  and  N_2
REMARK    2  A    between atoms: C_3  and  S_4
REMARK    3  A    between atoms: S_4  and  C_5
REMARK    4  A    between atoms: C_5  and  C_6
REMARK    5  A    between atoms: C_22  and  C_23
REMARK                            x       y       z     vdW  Elec       q    Type
REMARK                         _______ _______ _______ _____ _____    ______ ____
ROOT
ATOM      1  C   UNL     1       2.186   7.426  20.679  0.00  0.00    +0.000 C 
ENDROOT
BRANCH   1   2
ATOM      2  C   UNL     1       2.171   6.046  20.055  0.00  0.00    +0.000 A 
ATOM      3  C   UNL     1       1.448   5.091  20.668  0.00  0.00    +0.000 A 
ATOM      4  C   UNL     1       1.540   3.658  20.359  0.00  0.00    +0.000 A 
ATOM      5  O   UNL     1       0.751   2.856  20.839  0.00  0.00    +0.000 OA
ATOM      6  O   UNL     1       2.623   3.277  19.612  0.00  0.00    +0.000 OA
ATOM      7  C   UNL     1       3.294   4.230  18.824  0.00  0.00    +0.000 A 
ATOM      8  C   UNL     1       4.147   3.664  17.879  0.00  0.00    +0.000 A 
ATOM      9  C   UNL     1       4.708   4.495  16.941  0.00  0.00    +0.000 A 
ATOM     10  C   UNL     1       4.473   5.871  16.968  0.00  0.00    +0.000 A 
ATOM     11  C   UNL     1       3.683   6.451  17.984  0.00  0.00    +0.000 A 
ATOM     12  C   UNL     1       3.061   5.618  18.940  0.00  0.00    +0.000 A 
ATOM     13  C   UNL     1       5.184   6.515  15.808  0.00  0.00    +0.000 C 
ATOM     14  C   UNL     1       5.575   5.309  14.923  0.00  0.00    +0.000 C 
ATOM     15  C   UNL     1       5.581   4.064  15.811  0.00  0.00    +0.000 C 
ENDBRANCH   1   2
BRANCH   1  16
ATOM     16  S   UNL     1       1.157   8.646  19.782  0.00  0.00    +0.000 S 
BRANCH  16  19
ATOM     17  C   UNL     1      -0.977  11.150  19.872  0.00  0.00    +0.000 C 
ATOM     18  N   UNL     1      -0.371  10.593  21.054  0.00  0.00    +0.000 N 
ATOM     19  C   UNL     1       0.470   9.508  21.133  0.00  0.00    +0.000 A 
ATOM     20  N   UNL     1       0.683   9.208  22.388  0.00  0.00    +0.000 NA
ATOM     21  N   UNL     1       0.010  10.124  23.152  0.00  0.00    +0.000 NA
ATOM     22  C   UNL     1      -0.604  10.990  22.364  0.00  0.00    +0.000 A 
BRANCH  22  23
ATOM     23  C   UNL     1      -1.377  12.141  22.878  0.00  0.00    +0.000 A 
ATOM     24  C   UNL     1      -0.877  13.446  22.967  0.00  0.00    +0.000 A 
ATOM     25  C   UNL     1      -1.639  14.486  23.510  0.00  0.00    +0.000 A 
ATOM     26  C   UNL     1      -2.919  14.232  24.003  0.00  0.00    +0.000 A 
ATOM     27 CL   UNL     1      -3.835  15.505  24.707  0.00  0.00    +0.000 Cl
ATOM     28  C   UNL     1      -3.436  12.944  23.941  0.00  0.00    +0.000 A 
ATOM     29  C   UNL     1      -2.670  11.911  23.381  0.00  0.00    +0.000 A 
ENDBRANCH  22  23
ENDBRANCH  16  19
ENDBRANCH   1  16
TORSDOF 4
ENDMDL
MODEL 3
REMARK VINA RESULT:      -8.9      1.107      1.388
REMARK  Name = 
REMARK  5 active torsions:
REMARK  status: ('A' for Active; 'I' for Inactive)
REMARK    1  A    between atoms: C_1  and  N_2
REMARK    2  A    between atoms: C_3  and  S_4
REMARK    3  A    between atoms: S_4  and  C_5
REMARK    4  A    between atoms: C_5  and  C_6
REMARK    5  A    between atoms: C_22  and  C_23
REMARK                            x       y       z     vdW  Elec       q    Type
REMARK                         _______ _______ _______ _____ _____    ______ ____
ROOT
ATOM      1  C   UNL     1       3.384   5.272  17.877  0.00  0.00    +0.000 C 
ENDROOT
BRANCH   1   2
ATOM      2  C   UNL     1       4.868   5.073  17.649  0.00  0.00    +0.000 A 
ATOM      3  C   UNL     1       5.695   5.294  18.687  0.00  0.00    +0.000 A 
ATOM      4  C   UNL     1       7.154   5.412  18.571  0.00  0.00    +0.000 A 
ATOM      5  O   UNL     1       7.865   5.459  19.565  0.00  0.00    +0.000 OA
ATOM      6  O   UNL     1       7.640   5.587  17.303  0.00  0.00    +0.000 OA
ATOM      7  C   UNL     1       6.857   5.202  16.199  0.00  0.00    +0.000 A 
ATOM      8  C   UNL     1       7.578   5.123  15.010  0.00  0.00    +0.000 A 
ATOM      9  C   UNL     1       6.954   4.581  13.914  0.00  0.00    +0.000 A 
ATOM     10  C   UNL     1       5.619   4.172  13.977  0.00  0.00    +0.000 A 
ATOM     11  C   UNL     1       4.866   4.341  15.158  0.00  0.00    +0.000 A 
ATOM     12  C   UNL     1       5.491   4.859  16.313  0.00  0.00    +0.000 A 
ATOM     13  C   UNL     1       5.219   3.593  12.647  0.00  0.00    +0.000 C 
ATOM     14  C   UNL     1       6.573   3.408  11.923  0.00  0.00    +0.000 C 
ATOM     15  C   UNL     1       7.584   4.346  12.583  0.00  0.00    +0.000 C 
ENDBRANCH   1   2
BRANCH   1  16
ATOM     16  S   UNL     1       2.980   5.926  19.539  0.00  0.00    +0.000 S 
BRANCH  16  19
ATOM     17  C   UNL     1       1.396   8.175  21.345  0.00  0.00    +0.000 C 
ATOM     18  N   UNL     1       1.602   8.312  19.927  0.00  0.00    +0.000 N 
ATOM     19  C   UNL     1       2.308   7.472  19.097  0.00  0.00    +0.000 A 
ATOM     20  N   UNL     1       2.408   8.010  17.909  0.00  0.00    +0.000 NA
ATOM     21  N   UNL     1       1.729   9.200  17.935  0.00  0.00    +0.000 NA
ATOM     22  C   UNL     1       1.206   9.382  19.136  0.00  0.00    +0.000 A 
BRANCH  22  23
ATOM     23  C   UNL     1       0.365  10.549  19.481  0.00  0.00    +0.000 A 
ATOM     24  C   UNL     1       0.789  11.610  20.290  0.00  0.00    +0.000 A 
ATOM     25  C   UNL     1      -0.069  12.663  20.624  0.00  0.00    +0.000 A 
ATOM     26  C   UNL     1      -1.389  12.662  20.171  0.00  0.00    +0.000 A 
ATOM     27 CL   UNL     1      -2.451  13.937  20.618  0.00  0.00    +0.000 Cl
ATOM     28  C   UNL     1      -1.841  11.615  19.378  0.00  0.00    +0.000 A 
ATOM     29  C   UNL     1      -0.969  10.571  19.036  0.00  0.00    +0.000 A 
ENDBRANCH  22  23
ENDBRANCH  16  19
ENDBRANCH   1  16
TORSDOF 4
ENDMDL
MODEL 4
REMARK VINA RESULT:      -8.8      1.871      2.414
REMARK  Name = 
REMARK  5 active torsions:
REMARK  status: ('A' for Active; 'I' for Inactive)
REMARK    1  A    between atoms: C_1  and  N_2
REMARK    2  A    between atoms: C_3  and  S_4
REMARK    3  A    between atoms: S_4  and  C_5
REMARK    4  A    between atoms: C_5  and  C_6
REMARK    5  A    between atoms: C_22  and  C_23
REMARK                            x       y       z     vdW  Elec       q    Type
REMARK                         _______ _______ _______ _____ _____    ______ ____
ROOT
ATOM      1  C   UNL     1       3.563   5.363  18.410  0.00  0.00    +0.000 C 
ENDROOT
BRANCH   1   2
ATOM      2  C   UNL     1       5.013   5.097  18.064  0.00  0.00    +0.000 A 
ATOM      3  C   UNL     1       5.929   5.269  19.035  0.00  0.00    +0.000 A 
ATOM      4  C   UNL     1       7.379   5.320  18.805  0.00  0.00    +0.000 A 
ATOM      5  O   UNL     1       8.168   5.324  19.739  0.00  0.00    +0.000 OA
ATOM      6  O   UNL     1       7.771   5.485  17.503  0.00  0.00    +0.000 OA
ATOM      7  C   UNL     1       6.886   5.148  16.462  0.00  0.00    +0.000 A 
ATOM      8  C   UNL     1       7.507   5.047  15.219  0.00  0.00    +0.000 A 
ATOM      9  C   UNL     1       6.773   4.546  14.173  0.00  0.00    +0.000 A 
ATOM     10  C   UNL     1       5.430   4.199  14.339  0.00  0.00    +0.000 A 
ATOM     11  C   UNL     1       4.780   4.391  15.577  0.00  0.00    +0.000 A 
ATOM     12  C   UNL     1       5.518   4.868  16.682  0.00  0.00    +0.000 A 
ATOM     13  C   UNL     1       4.899   3.652  13.041  0.00  0.00    +0.000 C 
ATOM     14  C   UNL     1       6.181   3.412  12.211  0.00  0.00    +0.000 C 
ATOM     15  C   UNL     1       7.284   4.295  12.795  0.00  0.00    +0.000 C 
ENDBRANCH   1   2
BRANCH   1  16
ATOM     16  S   UNL     1       2.920   6.931  17.718  0.00  0.00    +0.000 S 
BRANCH  16  19
ATOM     17  C   UNL     1       1.126   9.661  18.115  0.00  0.00    +0.000 C 
ATOM     18  N   UNL     1       1.481   8.790  19.205  0.00  0.00    +0.000 N 
ATOM     19  C   UNL     1       2.160   7.596  19.138  0.00  0.00    +0.000 A 
ATOM     20  N   UNL     1       2.152   7.019  20.312  0.00  0.00    +0.000 NA
ATOM     21  N   UNL     1       1.496   7.853  21.178  0.00  0.00    +0.000 NA
ATOM     22  C   UNL     1       1.114   8.945  20.536  0.00  0.00    +0.000 A 
BRANCH  22  23
ATOM     23  C   UNL     1       0.425  10.072  21.199  0.00  0.00    +0.000 A 
ATOM     24  C   UNL     1       0.660  11.420  20.901  0.00  0.00    +0.000 A 
ATOM     25  C   UNL     1       0.014  12.446  21.600  0.00  0.00    +0.000 A 
ATOM     26  C   UNL     1      -0.868  12.141  22.636  0.00  0.00    +0.000 A 
ATOM     27 CL   UNL     1      -1.628  13.406  23.518  0.00  0.00    +0.000 Cl
ATOM     28  C   UNL     1      -1.110  10.813  22.963  0.00  0.00    +0.000 A 
ATOM     29  C   UNL     1      -0.469   9.790  22.247  0.00  0.00    +0.000 A 
ENDBRANCH  22  23
ENDBRANCH  16  19
ENDBRANCH   1  16
TORSDOF 4
ENDMDL
MODEL 5
REMARK VINA RESULT:      -8.7      3.387      4.498
REMARK  Name = 
REMARK  5 active torsions:
REMARK  status: ('A' for Active; 'I' for Inactive)
REMARK    1  A    between atoms: C_1  and  N_2
REMARK    2  A    between atoms: C_3  and  S_4
REMARK    3  A    between atoms: S_4  and  C_5
REMARK    4  A    between atoms: C_5  and  C_6
REMARK    5  A    between atoms: C_22  and  C_23
REMARK                            x       y       z     vdW  Elec       q    Type
REMARK                         _______ _______ _______ _____ _____    ______ ____
ROOT
ATOM      1  C   UNL     1       1.907   6.318  20.432  0.00  0.00    +0.000 C 
ENDROOT
BRANCH   1   2
ATOM      2  C   UNL     1       1.921   5.142  19.478  0.00  0.00    +0.000 A 
ATOM      3  C   UNL     1       1.038   4.150  19.695  0.00  0.00    +0.000 A 
ATOM      4  C   UNL     1       1.094   2.835  19.045  0.00  0.00    +0.000 A 
ATOM      5  O   UNL     1       0.181   2.030  19.165  0.00  0.00    +0.000 OA
ATOM      6  O   UNL     1       2.271   2.532  18.413  0.00  0.00    +0.000 OA
ATOM      7  C   UNL     1       3.136   3.569  18.020  0.00  0.00    +0.000 A 
ATOM      8  C   UNL     1       4.112   3.162  17.112  0.00  0.00    +0.000 A 
ATOM      9  C   UNL     1       4.889   4.130  16.527  0.00  0.00    +0.000 A 
ATOM     10  C   UNL     1       4.741   5.476  16.871  0.00  0.00    +0.000 A 
ATOM     11  C   UNL     1       3.815   5.872  17.859  0.00  0.00    +0.000 A 
ATOM     12  C   UNL     1       2.974   4.905  18.451  0.00  0.00    +0.000 A 
ATOM     13  C   UNL     1       5.695   6.302  16.051  0.00  0.00    +0.000 C 
ATOM     14  C   UNL     1       6.165   5.312  14.959  0.00  0.00    +0.000 C 
ATOM     15  C   UNL     1       5.927   3.896  15.483  0.00  0.00    +0.000 C 
ENDBRANCH   1   2
BRANCH   1  16
ATOM     16  S   UNL     1       1.864   7.943  19.591  0.00  0.00    +0.000 S 
BRANCH  16  19
ATOM     17  C   UNL     1      -0.473  10.258  19.491  0.00  0.00    +0.000 C 
ATOM     18  N   UNL     1       0.238   9.913  20.694  0.00  0.00    +0.000 N 
ATOM     19  C   UNL     1       1.175   8.919  20.859  0.00  0.00    +0.000 A 
ATOM     20  N   UNL     1       1.477   8.806  22.127  0.00  0.00    +0.000 NA
ATOM     21  N   UNL     1       0.766   9.758  22.808  0.00  0.00    +0.000 NA
ATOM     22  C   UNL     1       0.038  10.460  21.955  0.00  0.00    +0.000 A 
BRANCH  22  23
ATOM     23  C   UNL     1      -0.806  11.603  22.364  0.00  0.00    +0.000 A 
ATOM     24  C   UNL     1      -0.493  12.943  22.102  0.00  0.00    +0.000 A 
ATOM     25  C   UNL     1      -1.306  13.986  22.560  0.00  0.00    +0.000 A 
ATOM     26  C   UNL     1      -2.443  13.707  23.317  0.00  0.00    +0.000 A 
ATOM     27 CL   UNL     1      -3.416  14.994  23.912  0.00  0.00    +0.000 Cl
ATOM     28  C   UNL     1      -2.770  12.388  23.605  0.00  0.00    +0.000 A 
ATOM     29  C   UNL     1      -1.958  11.348  23.129  0.00  0.00    +0.000 A 
ENDBRANCH  22  23
ENDBRANCH  16  19
ENDBRANCH   1  16
TORSDOF 4
ENDMDL
MODEL 6
REMARK VINA RESULT:      -8.6      2.630      3.978
REMARK  Name = 
REMARK  5 active torsions:
REMARK  status: ('A' for Active; 'I' for Inactive)
REMARK    1  A    between atoms: C_1  and  N_2
REMARK    2  A    between atoms: C_3  and  S_4
REMARK    3  A    between atoms: S_4  and  C_5
REMARK    4  A    between atoms: C_5  and  C_6
REMARK    5  A    between atoms: C_22  and  C_23
REMARK                            x       y       z     vdW  Elec       q    Type
REMARK                         _______ _______ _______ _____ _____    ______ ____
ROOT
ATOM      1  C   UNL     1       2.080   7.519  20.375  0.00  0.00    +0.000 C 
ENDROOT
BRANCH   1   2
ATOM      2  C   UNL     1       2.184   6.073  19.935  0.00  0.00    +0.000 A 
ATOM      3  C   UNL     1       1.536   5.149  20.669  0.00  0.00    +0.000 A 
ATOM      4  C   UNL     1       1.748   3.701  20.549  0.00  0.00    +0.000 A 
ATOM      5  O   UNL     1       1.024   2.905  21.130  0.00  0.00    +0.000 OA
ATOM      6  O   UNL     1       2.865   3.317  19.856  0.00  0.00    +0.000 OA
ATOM      7  C   UNL     1       3.463   4.212  18.949  0.00  0.00    +0.000 A 
ATOM      8  C   UNL     1       4.368   3.600  18.084  0.00  0.00    +0.000 A 
ATOM      9  C   UNL     1       4.867   4.346  17.045  0.00  0.00    +0.000 A 
ATOM     10  C   UNL     1       4.519   5.690  16.894  0.00  0.00    +0.000 A 
ATOM     11  C   UNL     1       3.676   6.329  17.827  0.00  0.00    +0.000 A 
ATOM     12  C   UNL     1       3.116   5.580  18.884  0.00  0.00    +0.000 A 
ATOM     13  C   UNL     1       5.186   6.235  15.658  0.00  0.00    +0.000 C 
ATOM     14  C   UNL     1       5.682   4.960  14.937  0.00  0.00    +0.000 C 
ATOM     15  C   UNL     1       5.782   3.846  15.979  0.00  0.00    +0.000 C 
ENDBRANCH   1   2
BRANCH   1  16
ATOM     16  S   UNL     1       0.413   7.984  20.973  0.00  0.00    +0.000 S 
BRANCH  16  19
ATOM     17  C   UNL     1       0.694  10.185  18.543  0.00  0.00    +0.000 C 
ATOM     18  N   UNL     1       0.762  10.542  19.936  0.00  0.00    +0.000 N 
ATOM     19  C   UNL     1       0.586   9.718  21.022  0.00  0.00    +0.000 A 
ATOM     20  N   UNL     1       0.563  10.433  22.118  0.00  0.00    +0.000 NA
ATOM     21  N   UNL     1       0.765  11.740  21.762  0.00  0.00    +0.000 NA
ATOM     22  C   UNL     1       0.923  11.822  20.451  0.00  0.00    +0.000 A 
BRANCH  22  23
ATOM     23  C   UNL     1       1.213  13.092  19.751  0.00  0.00    +0.000 A 
ATOM     24  C   UNL     1       2.497  13.503  19.371  0.00  0.00    +0.000 A 
ATOM     25  C   UNL     1       2.715  14.740  18.756  0.00  0.00    +0.000 A 
ATOM     26  C   UNL     1       1.647  15.609  18.529  0.00  0.00    +0.000 A 
ATOM     27 CL   UNL     1       1.928  17.145  17.811  0.00  0.00    +0.000 Cl
ATOM     28  C   UNL     1       0.365  15.233  18.909  0.00  0.00    +0.000 A 
ATOM     29  C   UNL     1       0.153  13.984  19.511  0.00  0.00    +0.000 A 
ENDBRANCH  22  23
ENDBRANCH  16  19
ENDBRANCH   1  16
TORSDOF 4
ENDMDL
MODEL 7
REMARK VINA RESULT:      -8.4      1.920      2.403
REMARK  Name = 
REMARK  5 active torsions:
REMARK  status: ('A' for Active; 'I' for Inactive)
REMARK    1  A    between atoms: C_1  and  N_2
REMARK    2  A    between atoms: C_3  and  S_4
REMARK    3  A    between atoms: S_4  and  C_5
REMARK    4  A    between atoms: C_5  and  C_6
REMARK    5  A    between atoms: C_22  and  C_23
REMARK                            x       y       z     vdW  Elec       q    Type
REMARK                         _______ _______ _______ _____ _____    ______ ____
ROOT
ATOM      1  C   UNL     1       4.725   3.947  18.563  0.00  0.00    +0.000 C 
ENDROOT
BRANCH   1   2
ATOM      2  C   UNL     1       5.916   4.629  17.921  0.00  0.00    +0.000 A 
ATOM      3  C   UNL     1       6.651   5.454  18.688  0.00  0.00    +0.000 A 
ATOM      4  C   UNL     1       7.657   6.391  18.168  0.00  0.00    +0.000 A 
ATOM      5  O   UNL     1       8.400   7.003  18.922  0.00  0.00    +0.000 OA
ATOM      6  O   UNL     1       7.618   6.617  16.818  0.00  0.00    +0.000 OA
ATOM      7  C   UNL     1       7.001   5.678  15.972  0.00  0.00    +0.000 A 
ATOM      8  C   UNL     1       7.315   5.854  14.626  0.00  0.00    +0.000 A 
ATOM      9  C   UNL     1       6.915   4.885  13.740  0.00  0.00    +0.000 A 
ATOM     10  C   UNL     1       6.169   3.784  14.169  0.00  0.00    +0.000 A 
ATOM     11  C   UNL     1       5.774   3.659  15.517  0.00  0.00    +0.000 A 
ATOM     12  C   UNL     1       6.203   4.618  16.460  0.00  0.00    +0.000 A 
ATOM     13  C   UNL     1       5.906   2.881  12.994  0.00  0.00    +0.000 C 
ATOM     14  C   UNL     1       6.873   3.420  11.914  0.00  0.00    +0.000 C 
ATOM     15  C   UNL     1       7.221   4.862  12.281  0.00  0.00    +0.000 C 
ENDBRANCH   1   2
BRANCH   1  16
ATOM     16  S   UNL     1       3.145   4.262  17.693  0.00  0.00    +0.000 S 
BRANCH  16  19
ATOM     17  C   UNL     1       1.671   5.378  20.415  0.00  0.00    +0.000 C 
ATOM     18  N   UNL     1       2.139   6.245  19.366  0.00  0.00    +0.000 N 
ATOM     19  C   UNL     1       2.828   5.889  18.229  0.00  0.00    +0.000 A 
ATOM     20  N   UNL     1       3.220   6.966  17.599  0.00  0.00    +0.000 NA
ATOM     21  N   UNL     1       2.756   8.048  18.299  0.00  0.00    +0.000 NA
ATOM     22  C   UNL     1       2.070   7.632  19.351  0.00  0.00    +0.000 A 
BRANCH  22  23
ATOM     23  C   UNL     1       1.390   8.553  20.286  0.00  0.00    +0.000 A 
ATOM     24  C   UNL     1       1.409   8.411  21.679  0.00  0.00    +0.000 A 
ATOM     25  C   UNL     1       0.702   9.285  22.512  0.00  0.00    +0.000 A 
ATOM     26  C   UNL     1      -0.064  10.312  21.961  0.00  0.00    +0.000 A 
ATOM     27 CL   UNL     1      -0.963  11.358  22.987  0.00  0.00    +0.000 Cl
ATOM     28  C   UNL     1      -0.113  10.468  20.581  0.00  0.00    +0.000 A 
ATOM     29  C   UNL     1       0.611   9.596  19.755  0.00  0.00    +0.000 A 
ENDBRANCH  22  23
ENDBRANCH  16  19
ENDBRANCH   1  16
TORSDOF 4
ENDMDL
MODEL 8
REMARK VINA RESULT:      -8.2      3.137      4.201
REMARK  Name = 
REMARK  5 active torsions:
REMARK  status: ('A' for Active; 'I' for Inactive)
REMARK    1  A    between atoms: C_1  and  N_2
REMARK    2  A    between atoms: C_3  and  S_4
REMARK    3  A    between atoms: S_4  and  C_5
REMARK    4  A    between atoms: C_5  and  C_6
REMARK    5  A    between atoms: C_22  and  C_23
REMARK                            x       y       z     vdW  Elec       q    Type
REMARK                         _______ _______ _______ _____ _____    ______ ____
ROOT
ATOM      1  C   UNL     1       1.961   7.914  19.776  0.00  0.00    +0.000 C 
ENDROOT
BRANCH   1   2
ATOM      2  C   UNL     1       2.317   6.446  19.663  0.00  0.00    +0.000 A 
ATOM      3  C   UNL     1       1.827   5.611  20.598  0.00  0.00    +0.000 A 
ATOM      4  C   UNL     1       2.285   4.230  20.795  0.00  0.00    +0.000 A 
ATOM      5  O   UNL     1       1.698   3.471  21.555  0.00  0.00    +0.000 OA
ATOM      6  O   UNL     1       3.461   3.897  20.178  0.00  0.00    +0.000 OA
ATOM      7  C   UNL     1       3.910   4.657  19.082  0.00  0.00    +0.000 A 
ATOM      8  C   UNL     1       4.919   4.032  18.351  0.00  0.00    +0.000 A 
ATOM      9  C   UNL     1       5.298   4.603  17.162  0.00  0.00    +0.000 A 
ATOM     10  C   UNL     1       4.728   5.801  16.726  0.00  0.00    +0.000 A 
ATOM     11  C   UNL     1       3.775   6.478  17.516  0.00  0.00    +0.000 A 
ATOM     12  C   UNL     1       3.335   5.897  18.725  0.00  0.00    +0.000 A 
ATOM     13  C   UNL     1       5.310   6.164  15.386  0.00  0.00    +0.000 C 
ATOM     14  C   UNL     1       6.027   4.864  14.952  0.00  0.00    +0.000 C 
ATOM     15  C   UNL     1       6.301   4.042  16.211  0.00  0.00    +0.000 C 
ENDBRANCH   1   2
BRANCH   1  16
ATOM     16  S   UNL     1       1.089   8.339  21.328  0.00  0.00    +0.000 S 
BRANCH  16  19
ATOM     17  C   UNL     1      -0.833  10.415  23.009  0.00  0.00    +0.000 C 
ATOM     18  N   UNL     1      -0.540  10.577  21.609  0.00  0.00    +0.000 N 
ATOM     19  C   UNL     1       0.302   9.814  20.834  0.00  0.00    +0.000 A 
ATOM     20  N   UNL     1       0.434  10.364  19.655  0.00  0.00    +0.000 NA
ATOM     21  N   UNL     1      -0.357  11.482  19.630  0.00  0.00    +0.000 NA
ATOM     22  C   UNL     1      -0.981  11.608  20.789  0.00  0.00    +0.000 A 
BRANCH  22  23
ATOM     23  C   UNL     1      -1.954  12.685  21.069  0.00  0.00    +0.000 A 
ATOM     24  C   UNL     1      -3.283  12.677  20.625  0.00  0.00    +0.000 A 
ATOM     25  C   UNL     1      -4.144  13.750  20.878  0.00  0.00    +0.000 A 
ATOM     26  C   UNL     1      -3.681  14.874  21.563  0.00  0.00    +0.000 A 
ATOM     27 CL   UNL     1      -4.731  16.207  21.834  0.00  0.00    +0.000 Cl
ATOM     28  C   UNL     1      -2.364  14.916  22.002  0.00  0.00    +0.000 A 
ATOM     29  C   UNL     1      -1.512  13.828  21.758  0.00  0.00    +0.000 A 
ENDBRANCH  22  23
ENDBRANCH  16  19
ENDBRANCH   1  16
TORSDOF 4
ENDMDL
MODEL 9
REMARK VINA RESULT:      -8.2      2.919      5.045
REMARK  Name = 
REMARK  5 active torsions:
REMARK  status: ('A' for Active; 'I' for Inactive)
REMARK    1  A    between atoms: C_1  and  N_2
REMARK    2  A    between atoms: C_3  and  S_4
REMARK    3  A    between atoms: S_4  and  C_5
REMARK    4  A    between atoms: C_5  and  C_6
REMARK    5  A    between atoms: C_22  and  C_23
REMARK                            x       y       z     vdW  Elec       q    Type
REMARK                         _______ _______ _______ _____ _____    ______ ____
ROOT
ATOM      1  C   UNL     1       3.282   8.514  17.833  0.00  0.00    +0.000 C 
ENDROOT
BRANCH   1   2
ATOM      2  C   UNL     1       3.843   7.137  17.549  0.00  0.00    +0.000 A 
ATOM      3  C   UNL     1       4.814   7.037  16.622  0.00  0.00    +0.000 A 
ATOM      4  C   UNL     1       5.271   5.770  16.036  0.00  0.00    +0.000 A 
ATOM      5  O   UNL     1       6.258   5.727  15.315  0.00  0.00    +0.000 OA
ATOM      6  O   UNL     1       4.460   4.688  16.248  0.00  0.00    +0.000 OA
ATOM      7  C   UNL     1       3.551   4.700  17.322  0.00  0.00    +0.000 A 
ATOM      8  C   UNL     1       3.035   3.441  17.624  0.00  0.00    +0.000 A 
ATOM      9  C   UNL     1       2.284   3.312  18.766  0.00  0.00    +0.000 A 
ATOM     10  C   UNL     1       2.001   4.420  19.569  0.00  0.00    +0.000 A 
ATOM     11  C   UNL     1       2.448   5.709  19.207  0.00  0.00    +0.000 A 
ATOM     12  C   UNL     1       3.255   5.868  18.060  0.00  0.00    +0.000 A 
ATOM     13  C   UNL     1       1.195   3.972  20.759  0.00  0.00    +0.000 C 
ATOM     14  C   UNL     1       1.336   2.433  20.719  0.00  0.00    +0.000 C 
ATOM     15  C   UNL     1       1.714   2.038  19.291  0.00  0.00    +0.000 C 
ENDBRANCH   1   2
BRANCH   1  16
ATOM     16  S   UNL     1       1.458   8.603  17.701  0.00  0.00    +0.000 S 
BRANCH  16  19
ATOM     17  C   UNL     1      -0.498  11.116  18.532  0.00  0.00    +0.000 C 
ATOM     18  N   UNL     1       0.289  10.385  19.490  0.00  0.00    +0.000 N 
ATOM     19  C   UNL     1       1.077   9.282  19.261  0.00  0.00    +0.000 A 
ATOM     20  N   UNL     1       1.506   8.803  20.401  0.00  0.00    +0.000 NA
ATOM     21  N   UNL     1       1.031   9.616  21.395  0.00  0.00    +0.000 NA
ATOM     22  C   UNL     1       0.324  10.598  20.862  0.00  0.00    +0.000 A 
BRANCH  22  23
ATOM     23  C   UNL     1      -0.284  11.682  21.664  0.00  0.00    +0.000 A 
ATOM     24  C   UNL     1       0.135  13.018  21.623  0.00  0.00    +0.000 A 
ATOM     25  C   UNL     1      -0.445  13.991  22.443  0.00  0.00    +0.000 A 
ATOM     26  C   UNL     1      -1.447  13.639  23.347  0.00  0.00    +0.000 A 
ATOM     27 CL   UNL     1      -2.128  14.831  24.382  0.00  0.00    +0.000 Cl
ATOM     28  C   UNL     1      -1.873  12.318  23.420  0.00  0.00    +0.000 A 
ATOM     29  C   UNL     1      -1.296  11.352  22.582  0.00  0.00    +0.000 A 
ENDBRANCH  22  23
ENDBRANCH  16  19
ENDBRANCH   1  16
TORSDOF 4
ENDMDL
