MODEL 1
REMARK VINA RESULT:      -8.6      0.000      0.000
REMARK  Name = 
REMARK  2 active torsions:
REMARK  status: ('A' for Active; 'I' for Inactive)
REMARK    1  A    between atoms: C_9  and  C_10
REMARK    2  A    between atoms: C_13  and  C_14
REMARK                            x       y       z     vdW  Elec       q    Type
REMARK                         _______ _______ _______ _____ _____    ______ ____
ROOT
ATOM      1  C   UNL     1       1.931   7.995  19.409  0.00  0.00    +0.000 A 
ATOM      2  N   UNL     1       2.440   8.086  18.170  0.00  0.00    +0.000 NA
ATOM      3  O   UNL     1       3.128   6.885  18.008  0.00  0.00    +0.000 OA
ATOM      4  C   UNL     1       2.956   6.183  19.166  0.00  0.00    +0.000 A 
ATOM      5  N   UNL     1       2.229   6.818  20.054  0.00  0.00    +0.000 NA
ENDROOT
BRANCH   1  14
ATOM      6  C   UNL     1       0.491  10.001  19.229  0.00  0.00    +0.000 A 
ATOM      7  C   UNL     1      -0.311  11.012  19.769  0.00  0.00    +0.000 A 
ATOM      8  C   UNL     1      -0.477  10.986  21.152  0.00  0.00    +0.000 A 
ATOM      9  N   UNL     1      -1.172  11.779  22.028  0.00  0.00    +0.000 N 
ATOM     10  N   UNL     1      -1.035  11.362  23.293  0.00  0.00    +0.000 NA
ATOM     11  N   UNL     1      -0.257  10.285  23.277  0.00  0.00    +0.000 NA
ATOM     12  C   UNL     1       0.096  10.031  21.976  0.00  0.00    +0.000 A 
ATOM     13  C   UNL     1       0.897   9.018  21.421  0.00  0.00    +0.000 A 
ATOM     14  C   UNL     1       1.094   9.011  20.035  0.00  0.00    +0.000 A 
ATOM     15  H   UNL     1      -1.736  12.591  21.838  0.00  0.00    +0.000 HD
ENDBRANCH   1  14
BRANCH   4  16
ATOM     16  C   UNL     1       3.524   4.809  19.210  0.00  0.00    +0.000 C 
ATOM     17  C   UNL     1       3.600   4.218  17.774  0.00  0.00    +0.000 C 
ATOM     18  C   UNL     1       2.595   3.121  17.335  0.00  0.00    +0.000 C 
ATOM     19  C   UNL     1       1.780   2.344  18.385  0.00  0.00    +0.000 C 
ATOM     20  C   UNL     1       1.978   2.879  19.735  0.00  0.00    +0.000 A 
ATOM     21  N   UNL     1       1.412   2.437  20.893  0.00  0.00    +0.000 N 
ATOM     22  N   UNL     1       1.843   3.163  21.939  0.00  0.00    +0.000 NA
ATOM     23  N   UNL     1       2.668   4.097  21.473  0.00  0.00    +0.000 NA
ATOM     24  C   UNL     1       2.745   3.944  20.119  0.00  0.00    +0.000 A 
ATOM     25  H   UNL     1       0.752   1.686  21.057  0.00  0.00    +0.000 HD
ENDBRANCH   4  16
TORSDOF 2
ENDMDL
MODEL 2
REMARK VINA RESULT:      -8.6      1.620      2.012
REMARK  Name = 
REMARK  2 active torsions:
REMARK  status: ('A' for Active; 'I' for Inactive)
REMARK    1  A    between atoms: C_9  and  C_10
REMARK    2  A    between atoms: C_13  and  C_14
REMARK                            x       y       z     vdW  Elec       q    Type
REMARK                         _______ _______ _______ _____ _____    ______ ____
ROOT
ATOM      1  C   UNL     1       1.970   8.166  18.866  0.00  0.00    +0.000 A 
ATOM      2  N   UNL     1       2.855   8.571  17.941  0.00  0.00    +0.000 NA
ATOM      3  O   UNL     1       3.329   7.381  17.394  0.00  0.00    +0.000 OA
ATOM      4  C   UNL     1       2.672   6.373  18.038  0.00  0.00    +0.000 A 
ATOM      5  N   UNL     1       1.828   6.800  18.946  0.00  0.00    +0.000 NA
ENDROOT
BRANCH   1  14
ATOM      6  C   UNL     1       0.441  10.101  19.089  0.00  0.00    +0.000 A 
ATOM      7  C   UNL     1      -0.328  11.002  19.831  0.00  0.00    +0.000 A 
ATOM      8  C   UNL     1      -0.322  10.815  21.212  0.00  0.00    +0.000 A 
ATOM      9  N   UNL     1      -0.936  11.469  22.249  0.00  0.00    +0.000 N 
ATOM     10  N   UNL     1      -0.629  10.923  23.433  0.00  0.00    +0.000 NA
ATOM     11  N   UNL     1       0.183   9.897  23.202  0.00  0.00    +0.000 NA
ATOM     12  C   UNL     1       0.384   9.807  21.848  0.00  0.00    +0.000 A 
ATOM     13  C   UNL     1       1.150   8.905  21.089  0.00  0.00    +0.000 A 
ATOM     14  C   UNL     1       1.176   9.061  19.698  0.00  0.00    +0.000 A 
ATOM     15  H   UNL     1      -1.550  12.267  22.222  0.00  0.00    +0.000 HD
ENDBRANCH   1  14
BRANCH   4  16
ATOM     16  C   UNL     1       2.937   4.988  17.565  0.00  0.00    +0.000 C 
ATOM     17  C   UNL     1       1.658   4.117  17.722  0.00  0.00    +0.000 C 
ATOM     18  C   UNL     1       1.578   3.055  18.850  0.00  0.00    +0.000 C 
ATOM     19  C   UNL     1       2.854   2.584  19.569  0.00  0.00    +0.000 C 
ATOM     20  C   UNL     1       4.031   3.355  19.157  0.00  0.00    +0.000 A 
ATOM     21  N   UNL     1       5.313   3.208  19.593  0.00  0.00    +0.000 N 
ATOM     22  N   UNL     1       6.126   4.084  18.977  0.00  0.00    +0.000 NA
ATOM     23  N   UNL     1       5.383   4.824  18.160  0.00  0.00    +0.000 NA
ATOM     24  C   UNL     1       4.091   4.398  18.274  0.00  0.00    +0.000 A 
ATOM     25  H   UNL     1       5.706   2.571  20.275  0.00  0.00    +0.000 HD
ENDBRANCH   4  16
TORSDOF 2
ENDMDL
MODEL 3
REMARK VINA RESULT:      -8.5      2.897      3.656
REMARK  Name = 
REMARK  2 active torsions:
REMARK  status: ('A' for Active; 'I' for Inactive)
REMARK    1  A    between atoms: C_9  and  C_10
REMARK    2  A    between atoms: C_13  and  C_14
REMARK                            x       y       z     vdW  Elec       q    Type
REMARK                         _______ _______ _______ _____ _____    ______ ____
ROOT
ATOM      1  C   UNL     1       2.649   7.452  18.557  0.00  0.00    +0.000 A 
ATOM      2  N   UNL     1       2.589   6.112  18.602  0.00  0.00    +0.000 NA
ATOM      3  O   UNL     1       3.665   5.707  17.816  0.00  0.00    +0.000 OA
ATOM      4  C   UNL     1       4.276   6.848  17.382  0.00  0.00    +0.000 A 
ATOM      5  N   UNL     1       3.694   7.942  17.810  0.00  0.00    +0.000 NA
ENDROOT
BRANCH   1  14
ATOM      6  C   UNL     1       1.106   9.388  18.549  0.00  0.00    +0.000 A 
ATOM      7  C   UNL     1       0.232  10.287  19.168  0.00  0.00    +0.000 A 
ATOM      8  C   UNL     1       0.024  10.094  20.533  0.00  0.00    +0.000 A 
ATOM      9  N   UNL     1      -0.743  10.745  21.465  0.00  0.00    +0.000 N 
ATOM     10  N   UNL     1      -0.623  10.193  22.679  0.00  0.00    +0.000 NA
ATOM     11  N   UNL     1       0.214   9.167  22.572  0.00  0.00    +0.000 NA
ATOM     12  C   UNL     1       0.622   9.082  21.265  0.00  0.00    +0.000 A 
ATOM     13  C   UNL     1       1.495   8.182  20.630  0.00  0.00    +0.000 A 
ATOM     14  C   UNL     1       1.737   8.344  19.261  0.00  0.00    +0.000 A 
ATOM     15  H   UNL     1      -1.344  11.544  21.347  0.00  0.00    +0.000 HD
ENDBRANCH   1  14
BRANCH   4  16
ATOM     16  C   UNL     1       5.524   6.683  16.589  0.00  0.00    +0.000 C 
ATOM     17  C   UNL     1       5.191   6.103  15.185  0.00  0.00    +0.000 C 
ATOM     18  C   UNL     1       5.524   4.624  14.860  0.00  0.00    +0.000 C 
ATOM     19  C   UNL     1       6.504   3.832  15.745  0.00  0.00    +0.000 C 
ATOM     20  C   UNL     1       6.906   4.593  16.931  0.00  0.00    +0.000 A 
ATOM     21  N   UNL     1       7.754   4.198  17.922  0.00  0.00    +0.000 N 
ATOM     22  N   UNL     1       7.897   5.171  18.839  0.00  0.00    +0.000 NA
ATOM     23  N   UNL     1       7.130   6.193  18.472  0.00  0.00    +0.000 NA
ATOM     24  C   UNL     1       6.503   5.844  17.311  0.00  0.00    +0.000 A 
ATOM     25  H   UNL     1       8.252   3.326  18.051  0.00  0.00    +0.000 HD
ENDBRANCH   4  16
TORSDOF 2
ENDMDL
MODEL 4
REMARK VINA RESULT:      -8.5      6.374      7.657
REMARK  Name = 
REMARK  2 active torsions:
REMARK  status: ('A' for Active; 'I' for Inactive)
REMARK    1  A    between atoms: C_9  and  C_10
REMARK    2  A    between atoms: C_13  and  C_14
REMARK                            x       y       z     vdW  Elec       q    Type
REMARK                         _______ _______ _______ _____ _____    ______ ____
ROOT
ATOM      1  C   UNL     1       8.204   8.765  18.116  0.00  0.00    +0.000 A 
ATOM      2  N   UNL     1       7.272   8.823  17.152  0.00  0.00    +0.000 NA
ATOM      3  O   UNL     1       6.838   7.505  17.033  0.00  0.00    +0.000 OA
ATOM      4  C   UNL     1       7.546   6.782  17.949  0.00  0.00    +0.000 A 
ATOM      5  N   UNL     1       8.393   7.507  18.639  0.00  0.00    +0.000 NA
ENDROOT
BRANCH   1  14
ATOM      6  C   UNL     1       9.079  10.082  20.021  0.00  0.00    +0.000 A 
ATOM      7  C   UNL     1       9.758  11.172  20.575  0.00  0.00    +0.000 A 
ATOM      8  C   UNL     1      10.284  12.088  19.667  0.00  0.00    +0.000 A 
ATOM      9  N   UNL     1      10.998  13.250  19.814  0.00  0.00    +0.000 N 
ATOM     10  N   UNL     1      11.293  13.806  18.632  0.00  0.00    +0.000 NA
ATOM     11  N   UNL     1      10.788  13.023  17.685  0.00  0.00    +0.000 NA
ATOM     12  C   UNL     1      10.168  11.960  18.292  0.00  0.00    +0.000 A 
ATOM     13  C   UNL     1       9.487  10.858  17.748  0.00  0.00    +0.000 A 
ATOM     14  C   UNL     1       8.938   9.916  18.626  0.00  0.00    +0.000 A 
ATOM     15  H   UNL     1      11.304  13.704  20.659  0.00  0.00    +0.000 HD
ENDBRANCH   1  14
BRANCH   4  16
ATOM     16  C   UNL     1       7.197   5.343  18.086  0.00  0.00    +0.000 C 
ATOM     17  C   UNL     1       7.538   4.584  16.772  0.00  0.00    +0.000 C 
ATOM     18  C   UNL     1       6.399   4.133  15.821  0.00  0.00    +0.000 C 
ATOM     19  C   UNL     1       4.943   4.082  16.318  0.00  0.00    +0.000 C 
ATOM     20  C   UNL     1       4.806   4.634  17.668  0.00  0.00    +0.000 A 
ATOM     21  N   UNL     1       3.666   4.747  18.406  0.00  0.00    +0.000 N 
ATOM     22  N   UNL     1       3.932   5.289  19.608  0.00  0.00    +0.000 NA
ATOM     23  N   UNL     1       5.233   5.557  19.654  0.00  0.00    +0.000 NA
ATOM     24  C   UNL     1       5.778   5.176  18.463  0.00  0.00    +0.000 A 
ATOM     25  H   UNL     1       2.711   4.497  18.182  0.00  0.00    +0.000 HD
ENDBRANCH   4  16
TORSDOF 2
ENDMDL
MODEL 5
REMARK VINA RESULT:      -8.4      1.663      2.383
REMARK  Name = 
REMARK  2 active torsions:
REMARK  status: ('A' for Active; 'I' for Inactive)
REMARK    1  A    between atoms: C_9  and  C_10
REMARK    2  A    between atoms: C_13  and  C_14
REMARK                            x       y       z     vdW  Elec       q    Type
REMARK                         _______ _______ _______ _____ _____    ______ ____
ROOT
ATOM      1  C   UNL     1       1.847   8.223  19.321  0.00  0.00    +0.000 A 
ATOM      2  N   UNL     1       2.448   8.781  18.259  0.00  0.00    +0.000 NA
ATOM      3  O   UNL     1       2.963   7.690  17.561  0.00  0.00    +0.000 OA
ATOM      4  C   UNL     1       2.610   6.578  18.269  0.00  0.00    +0.000 A 
ATOM      5  N   UNL     1       1.923   6.850  19.353  0.00  0.00    +0.000 NA
ENDROOT
BRANCH   1  14
ATOM      6  C   UNL     1       1.293   8.610  21.703  0.00  0.00    +0.000 A 
ATOM      7  C   UNL     1       0.619   9.272  22.734  0.00  0.00    +0.000 A 
ATOM      8  C   UNL     1      -0.232  10.304  22.342  0.00  0.00    +0.000 A 
ATOM      9  N   UNL     1      -1.041  11.167  23.036  0.00  0.00    +0.000 N 
ATOM     10  N   UNL     1      -1.689  12.007  22.219  0.00  0.00    +0.000 NA
ATOM     11  N   UNL     1      -1.318  11.722  20.975  0.00  0.00    +0.000 NA
ATOM     12  C   UNL     1      -0.422  10.684  21.023  0.00  0.00    +0.000 A 
ATOM     13  C   UNL     1       0.265  10.013  19.997  0.00  0.00    +0.000 A 
ATOM     14  C   UNL     1       1.126   8.966  20.347  0.00  0.00    +0.000 A 
ATOM     15  H   UNL     1      -1.194  11.233  24.029  0.00  0.00    +0.000 HD
ENDBRANCH   1  14
BRANCH   4  16
ATOM     16  C   UNL     1       2.965   5.261  17.676  0.00  0.00    +0.000 C 
ATOM     17  C   UNL     1       1.731   4.315  17.701  0.00  0.00    +0.000 C 
ATOM     18  C   UNL     1       1.674   3.145  18.718  0.00  0.00    +0.000 C 
ATOM     19  C   UNL     1       2.951   2.672  19.436  0.00  0.00    +0.000 C 
ATOM     20  C   UNL     1       4.096   3.540  19.144  0.00  0.00    +0.000 A 
ATOM     21  N   UNL     1       5.370   3.418  19.610  0.00  0.00    +0.000 N 
ATOM     22  N   UNL     1       6.152   4.391  19.112  0.00  0.00    +0.000 NA
ATOM     23  N   UNL     1       5.396   5.167  18.342  0.00  0.00    +0.000 NA
ATOM     24  C   UNL     1       4.127   4.666  18.367  0.00  0.00    +0.000 A 
ATOM     25  H   UNL     1       5.775   2.738  20.242  0.00  0.00    +0.000 HD
ENDBRANCH   4  16
TORSDOF 2
ENDMDL
MODEL 6
REMARK VINA RESULT:      -8.4      2.023      2.723
REMARK  Name = 
REMARK  2 active torsions:
REMARK  status: ('A' for Active; 'I' for Inactive)
REMARK    1  A    between atoms: C_9  and  C_10
REMARK    2  A    between atoms: C_13  and  C_14
REMARK                            x       y       z     vdW  Elec       q    Type
REMARK                         _______ _______ _______ _____ _____    ______ ____
ROOT
ATOM      1  C   UNL     1       2.012   8.476  18.652  0.00  0.00    +0.000 A 
ATOM      2  N   UNL     1       2.395   8.974  17.466  0.00  0.00    +0.000 NA
ATOM      3  O   UNL     1       3.157   7.949  16.909  0.00  0.00    +0.000 OA
ATOM      4  C   UNL     1       3.149   6.928  17.814  0.00  0.00    +0.000 A 
ATOM      5  N   UNL     1       2.460   7.199  18.896  0.00  0.00    +0.000 NA
ENDROOT
BRANCH   1  14
ATOM      6  C   UNL     1       0.186  10.081  19.127  0.00  0.00    +0.000 A 
ATOM      7  C   UNL     1      -0.653  10.794  19.988  0.00  0.00    +0.000 A 
ATOM      8  C   UNL     1      -0.469  10.561  21.349  0.00  0.00    +0.000 A 
ATOM      9  N   UNL     1      -1.081  11.051  22.475  0.00  0.00    +0.000 N 
ATOM     10  N   UNL     1      -0.557  10.529  23.592  0.00  0.00    +0.000 NA
ATOM     11  N   UNL     1       0.400   9.683  23.228  0.00  0.00    +0.000 NA
ATOM     12  C   UNL     1       0.472   9.681  21.858  0.00  0.00    +0.000 A 
ATOM     13  C   UNL     1       1.307   8.967  20.981  0.00  0.00    +0.000 A 
ATOM     14  C   UNL     1       1.159   9.175  19.605  0.00  0.00    +0.000 A 
ATOM     15  H   UNL     1      -1.829  11.719  22.551  0.00  0.00    +0.000 HD
ENDBRANCH   1  14
BRANCH   4  16
ATOM     16  C   UNL     1       3.825   5.665  17.411  0.00  0.00    +0.000 C 
ATOM     17  C   UNL     1       2.891   4.451  17.681  0.00  0.00    +0.000 C 
ATOM     18  C   UNL     1       3.183   3.501  18.871  0.00  0.00    +0.000 C 
ATOM     19  C   UNL     1       4.563   3.506  19.553  0.00  0.00    +0.000 C 
ATOM     20  C   UNL     1       5.423   4.576  19.039  0.00  0.00    +0.000 A 
ATOM     21  N   UNL     1       6.698   4.870  19.418  0.00  0.00    +0.000 N 
ATOM     22  N   UNL     1       7.175   5.910  18.713  0.00  0.00    +0.000 NA
ATOM     23  N   UNL     1       6.213   6.320  17.892  0.00  0.00    +0.000 NA
ATOM     24  C   UNL     1       5.126   5.519  18.095  0.00  0.00    +0.000 A 
ATOM     25  H   UNL     1       7.292   4.438  20.116  0.00  0.00    +0.000 HD
ENDBRANCH   4  16
TORSDOF 2
ENDMDL
MODEL 7
REMARK VINA RESULT:      -8.4      3.008      3.970
REMARK  Name = 
REMARK  2 active torsions:
REMARK  status: ('A' for Active; 'I' for Inactive)
REMARK    1  A    between atoms: C_9  and  C_10
REMARK    2  A    between atoms: C_13  and  C_14
REMARK                            x       y       z     vdW  Elec       q    Type
REMARK                         _______ _______ _______ _____ _____    ______ ____
ROOT
ATOM      1  C   UNL     1       2.698   7.454  18.622  0.00  0.00    +0.000 A 
ATOM      2  N   UNL     1       2.716   6.122  18.787  0.00  0.00    +0.000 NA
ATOM      3  O   UNL     1       3.786   5.706  17.997  0.00  0.00    +0.000 OA
ATOM      4  C   UNL     1       4.315   6.835  17.441  0.00  0.00    +0.000 A 
ATOM      5  N   UNL     1       3.687   7.931  17.794  0.00  0.00    +0.000 NA
ENDROOT
BRANCH   1  14
ATOM      6  C   UNL     1       1.378   8.099  20.615  0.00  0.00    +0.000 A 
ATOM      7  C   UNL     1       0.472   8.915  21.299  0.00  0.00    +0.000 A 
ATOM      8  C   UNL     1      -0.034   9.998  20.582  0.00  0.00    +0.000 A 
ATOM      9  N   UNL     1      -0.916  11.001  20.895  0.00  0.00    +0.000 N 
ATOM     10  N   UNL     1      -1.107  11.835  19.866  0.00  0.00    +0.000 NA
ATOM     11  N   UNL     1      -0.353  11.407  18.859  0.00  0.00    +0.000 NA
ATOM     12  C   UNL     1       0.318  10.284  19.273  0.00  0.00    +0.000 A 
ATOM     13  C   UNL     1       1.233   9.457  18.598  0.00  0.00    +0.000 A 
ATOM     14  C   UNL     1       1.761   8.355  19.281  0.00  0.00    +0.000 A 
ATOM     15  H   UNL     1      -1.407  11.166  21.758  0.00  0.00    +0.000 HD
ENDBRANCH   1  14
BRANCH   4  16
ATOM     16  C   UNL     1       5.542   6.667  16.616  0.00  0.00    +0.000 C 
ATOM     17  C   UNL     1       5.173   6.075  15.226  0.00  0.00    +0.000 C 
ATOM     18  C   UNL     1       5.502   4.594  14.904  0.00  0.00    +0.000 C 
ATOM     19  C   UNL     1       6.506   3.813  15.769  0.00  0.00    +0.000 C 
ATOM     20  C   UNL     1       6.938   4.584  16.938  0.00  0.00    +0.000 A 
ATOM     21  N   UNL     1       7.813   4.199  17.909  0.00  0.00    +0.000 N 
ATOM     22  N   UNL     1       7.978   5.179  18.814  0.00  0.00    +0.000 NA
ATOM     23  N   UNL     1       7.198   6.196  18.459  0.00  0.00    +0.000 NA
ATOM     24  C   UNL     1       6.541   5.836  17.318  0.00  0.00    +0.000 A 
ATOM     25  H   UNL     1       8.317   3.329  18.031  0.00  0.00    +0.000 HD
ENDBRANCH   4  16
TORSDOF 2
ENDMDL
MODEL 8
REMARK VINA RESULT:      -8.3      1.783      2.247
REMARK  Name = 
REMARK  2 active torsions:
REMARK  status: ('A' for Active; 'I' for Inactive)
REMARK    1  A    between atoms: C_9  and  C_10
REMARK    2  A    between atoms: C_13  and  C_14
REMARK                            x       y       z     vdW  Elec       q    Type
REMARK                         _______ _______ _______ _____ _____    ______ ____
ROOT
ATOM      1  C   UNL     1       1.495   7.708  20.161  0.00  0.00    +0.000 A 
ATOM      2  N   UNL     1       1.613   6.668  21.001  0.00  0.00    +0.000 NA
ATOM      3  O   UNL     1       2.139   5.656  20.201  0.00  0.00    +0.000 OA
ATOM      4  C   UNL     1       2.298   6.192  18.956  0.00  0.00    +0.000 A 
ATOM      5  N   UNL     1       1.921   7.446  18.879  0.00  0.00    +0.000 NA
ENDROOT
BRANCH   1  14
ATOM      6  C   UNL     1       1.133  10.100  19.632  0.00  0.00    +0.000 A 
ATOM      7  C   UNL     1       0.701  11.393  19.942  0.00  0.00    +0.000 A 
ATOM      8  C   UNL     1       0.144  11.562  21.208  0.00  0.00    +0.000 A 
ATOM      9  N   UNL     1      -0.384  12.646  21.862  0.00  0.00    +0.000 N 
ATOM     10  N   UNL     1      -0.808  12.326  23.092  0.00  0.00    +0.000 NA
ATOM     11  N   UNL     1      -0.576  11.030  23.270  0.00  0.00    +0.000 NA
ATOM     12  C   UNL     1       0.003  10.537  22.128  0.00  0.00    +0.000 A 
ATOM     13  C   UNL     1       0.437   9.240  21.802  0.00  0.00    +0.000 A 
ATOM     14  C   UNL     1       1.009   9.028  20.542  0.00  0.00    +0.000 A 
ATOM     15  H   UNL     1      -0.479  13.596  21.543  0.00  0.00    +0.000 HD
ENDBRANCH   1  14
BRANCH   4  16
ATOM     16  C   UNL     1       2.940   5.329  17.928  0.00  0.00    +0.000 C 
ATOM     17  C   UNL     1       1.943   4.233  17.455  0.00  0.00    +0.000 C 
ATOM     18  C   UNL     1       2.133   2.764  17.915  0.00  0.00    +0.000 C 
ATOM     19  C   UNL     1       3.475   2.301  18.509  0.00  0.00    +0.000 C 
ATOM     20  C   UNL     1       4.404   3.418  18.699  0.00  0.00    +0.000 A 
ATOM     21  N   UNL     1       5.670   3.368  19.203  0.00  0.00    +0.000 N 
ATOM     22  N   UNL     1       6.225   4.592  19.210  0.00  0.00    +0.000 NA
ATOM     23  N   UNL     1       5.325   5.450  18.740  0.00  0.00    +0.000 NA
ATOM     24  C   UNL     1       4.197   4.744  18.439  0.00  0.00    +0.000 A 
ATOM     25  H   UNL     1       6.207   2.584  19.551  0.00  0.00    +0.000 HD
ENDBRANCH   4  16
TORSDOF 2
ENDMDL
MODEL 9
REMARK VINA RESULT:      -8.3      0.940      1.581
REMARK  Name = 
REMARK  2 active torsions:
REMARK  status: ('A' for Active; 'I' for Inactive)
REMARK    1  A    between atoms: C_9  and  C_10
REMARK    2  A    between atoms: C_13  and  C_14
REMARK                            x       y       z     vdW  Elec       q    Type
REMARK                         _______ _______ _______ _____ _____    ______ ____
ROOT
ATOM      1  C   UNL     1       1.473   8.371  20.137  0.00  0.00    +0.000 A 
ATOM      2  N   UNL     1       1.859   8.642  18.880  0.00  0.00    +0.000 NA
ATOM      3  O   UNL     1       2.510   7.478  18.477  0.00  0.00    +0.000 OA
ATOM      4  C   UNL     1       2.442   6.614  19.532  0.00  0.00    +0.000 A 
ATOM      5  N   UNL     1       1.815   7.112  20.571  0.00  0.00    +0.000 NA
ENDROOT
BRANCH   1  14
ATOM      6  C   UNL     1       0.395   8.897  22.303  0.00  0.00    +0.000 A 
ATOM      7  C   UNL     1      -0.341   9.720  23.161  0.00  0.00    +0.000 A 
ATOM      8  C   UNL     1      -0.744  10.945  22.634  0.00  0.00    +0.000 A 
ATOM      9  N   UNL     1      -1.456  11.999  23.148  0.00  0.00    +0.000 N 
ATOM     10  N   UNL     1      -1.603  12.984  22.253  0.00  0.00    +0.000 NA
ATOM     11  N   UNL     1      -0.987  12.607  21.138  0.00  0.00    +0.000 NA
ATOM     12  C   UNL     1      -0.448  11.362  21.346  0.00  0.00    +0.000 A 
ATOM     13  C   UNL     1       0.297  10.527  20.495  0.00  0.00    +0.000 A 
ATOM     14  C   UNL     1       0.716   9.284  20.984  0.00  0.00    +0.000 A 
ATOM     15  H   UNL     1      -1.859  12.105  24.065  0.00  0.00    +0.000 HD
ENDBRANCH   1  14
BRANCH   4  16
ATOM     16  C   UNL     1       2.991   5.248  19.319  0.00  0.00    +0.000 C 
ATOM     17  C   UNL     1       2.830   4.835  17.828  0.00  0.00    +0.000 C 
ATOM     18  C   UNL     1       1.754   3.794  17.425  0.00  0.00    +0.000 C 
ATOM     19  C   UNL     1       1.105   2.891  18.490  0.00  0.00    +0.000 C 
ATOM     20  C   UNL     1       1.521   3.259  19.846  0.00  0.00    +0.000 A 
ATOM     21  N   UNL     1       1.140   2.676  21.017  0.00  0.00    +0.000 N 
ATOM     22  N   UNL     1       1.741   3.273  22.061  0.00  0.00    +0.000 NA
ATOM     23  N   UNL     1       2.494   4.261  21.587  0.00  0.00    +0.000 NA
ATOM     24  C   UNL     1       2.354   4.274  20.229  0.00  0.00    +0.000 A 
ATOM     25  H   UNL     1       0.505   1.908  21.192  0.00  0.00    +0.000 HD
ENDBRANCH   4  16
TORSDOF 2
ENDMDL
