MODEL 1
REMARK VINA RESULT:      -7.8      0.000      0.000
REMARK  Name = 
REMARK  7 active torsions:
REMARK  status: ('A' for Active; 'I' for Inactive)
REMARK    1  A    between atoms: C_1  and  N_2
REMARK    2  A    between atoms: C_6  and  C_7
REMARK    3  A    between atoms: C_7  and  C_8
REMARK    4  A    between atoms: C_8  and  C_9
REMARK    5  A    between atoms: C_13  and  N_14
REMARK    6  A    between atoms: C_21  and  C_22
REMARK    7  A    between atoms: C_22  and  C_23
REMARK                            x       y       z     vdW  Elec       q    Type
REMARK                         _______ _______ _______ _____ _____    ______ ____
ROOT
ATOM      1  C   UNL     1       7.695   7.550  17.777  0.00  0.00    +0.000 A 
ATOM      2  C   UNL     1       7.564   6.706  18.890  0.00  0.00    +0.000 A 
ATOM      3  C   UNL     1       7.526   5.325  18.715  0.00  0.00    +0.000 A 
ATOM      4  C   UNL     1       7.501   4.793  17.433  0.00  0.00    +0.000 A 
ATOM      5  C   UNL     1       7.231   5.649  16.359  0.00  0.00    +0.000 A 
ATOM      6  C   UNL     1       7.537   7.005  16.493  0.00  0.00    +0.000 A 
ENDROOT
BRANCH   5   7
ATOM      7  N   UNL     1       6.108   5.322  15.482  0.00  0.00    +0.000 N 
ATOM      8  C   UNL     1       4.966   6.227  15.781  0.00  0.00    +0.000 C 
ATOM      9  C   UNL     1       4.178   5.439  16.783  0.00  0.00    +0.000 A 
ATOM     10  C   UNL     1       4.478   4.089  16.587  0.00  0.00    +0.000 A 
ATOM     11  C   UNL     1       4.093   3.090  17.459  0.00  0.00    +0.000 A 
ATOM     12  C   UNL     1       3.411   3.481  18.607  0.00  0.00    +0.000 A 
ATOM     13  C   UNL     1       3.109   4.837  18.831  0.00  0.00    +0.000 A 
ATOM     14  C   UNL     1       3.461   5.843  17.906  0.00  0.00    +0.000 A 
ATOM     15  C   UNL     1       5.590   4.006  15.609  0.00  0.00    +0.000 C 
ATOM     16  O   UNL     1       6.045   2.972  15.180  0.00  0.00    +0.000 OA
BRANCH  14  17
ATOM     17  C   UNL     1       3.114   7.284  18.196  0.00  0.00    +0.000 C 
ATOM     18  C   UNL     1       2.461   7.396  19.564  0.00  0.00    +0.000 C 
ATOM     19  F   UNL     1       4.212   8.093  18.184  0.00  0.00    +0.000 F 
ATOM     20  F   UNL     1       2.257   7.830  17.288  0.00  0.00    +0.000 F 
ENDBRANCH  14  17
ENDBRANCH   5   7
BRANCH   1  21
ATOM     21  C   UNL     1       7.942   9.034  17.921  0.00  0.00    +0.000 C 
BRANCH  21  22
ATOM     22  C   UNL     1       8.997   9.378  18.975  0.00  0.00    +0.000 C 
BRANCH  22  28
ATOM     23  C   UNL     1       9.023  11.623  21.316  0.00  0.00    +0.000 C 
ATOM     24  N   UNL     1       9.440  11.737  19.947  0.00  0.00    +0.000 N 
ATOM     25  C   UNL     1       9.904  12.892  19.376  0.00  0.00    +0.000 A 
ATOM     26  N   UNL     1      10.211  12.693  18.134  0.00  0.00    +0.000 NA
ATOM     27  N   UNL     1       9.942  11.373  17.848  0.00  0.00    +0.000 NA
ATOM     28  C   UNL     1       9.486  10.793  18.937  0.00  0.00    +0.000 A 
ENDBRANCH  22  28
ENDBRANCH  21  22
ENDBRANCH   1  21
TORSDOF 5
ENDMDL
MODEL 2
REMARK VINA RESULT:      -7.6      8.744     11.971
REMARK  Name = 
REMARK  7 active torsions:
REMARK  status: ('A' for Active; 'I' for Inactive)
REMARK    1  A    between atoms: C_1  and  N_2
REMARK    2  A    between atoms: C_6  and  C_7
REMARK    3  A    between atoms: C_7  and  C_8
REMARK    4  A    between atoms: C_8  and  C_9
REMARK    5  A    between atoms: C_13  and  N_14
REMARK    6  A    between atoms: C_21  and  C_22
REMARK    7  A    between atoms: C_22  and  C_23
REMARK                            x       y       z     vdW  Elec       q    Type
REMARK                         _______ _______ _______ _____ _____    ______ ____
ROOT
ATOM      1  C   UNL     1      -4.594  11.719  17.608  0.00  0.00    +0.000 A 
ATOM      2  C   UNL     1      -4.097  11.147  16.428  0.00  0.00    +0.000 A 
ATOM      3  C   UNL     1      -2.923  10.398  16.458  0.00  0.00    +0.000 A 
ATOM      4  C   UNL     1      -2.188  10.316  17.632  0.00  0.00    +0.000 A 
ATOM      5  C   UNL     1      -2.485  11.207  18.670  0.00  0.00    +0.000 A 
ATOM      6  C   UNL     1      -3.775  11.736  18.748  0.00  0.00    +0.000 A 
ENDROOT
BRANCH   5   7
ATOM      7  N   UNL     1      -1.407  12.051  19.183  0.00  0.00    +0.000 N 
ATOM      8  C   UNL     1      -0.102  11.562  18.663  0.00  0.00    +0.000 C 
ATOM      9  C   UNL     1       0.354  10.634  19.747  0.00  0.00    +0.000 A 
ATOM     10  C   UNL     1      -0.267  11.032  20.932  0.00  0.00    +0.000 A 
ATOM     11  C   UNL     1      -0.240  10.285  22.093  0.00  0.00    +0.000 A 
ATOM     12  C   UNL     1       0.409   9.055  22.039  0.00  0.00    +0.000 A 
ATOM     13  C   UNL     1       1.031   8.629  20.852  0.00  0.00    +0.000 A 
ATOM     14  C   UNL     1       1.042   9.425  19.686  0.00  0.00    +0.000 A 
ATOM     15  C   UNL     1      -1.265  12.077  20.596  0.00  0.00    +0.000 C 
ATOM     16  O   UNL     1      -1.930  12.672  21.410  0.00  0.00    +0.000 OA
BRANCH  14  17
ATOM     17  C   UNL     1       1.723   8.918  18.438  0.00  0.00    +0.000 C 
ATOM     18  C   UNL     1       2.452   7.617  18.734  0.00  0.00    +0.000 C 
ATOM     19  F   UNL     1       0.841   8.686  17.424  0.00  0.00    +0.000 F 
ATOM     20  F   UNL     1       2.636   9.790  17.924  0.00  0.00    +0.000 F 
ENDBRANCH  14  17
ENDBRANCH   5   7
BRANCH   1  21
ATOM     21  C   UNL     1      -5.958  12.368  17.673  0.00  0.00    +0.000 C 
BRANCH  21  22
ATOM     22  C   UNL     1      -7.044  11.448  18.237  0.00  0.00    +0.000 C 
BRANCH  22  28
ATOM     23  C   UNL     1      -7.917  14.059  19.954  0.00  0.00    +0.000 C 
ATOM     24  N   UNL     1      -7.613  12.732  20.413  0.00  0.00    +0.000 N 
ATOM     25  C   UNL     1      -7.608  12.356  21.729  0.00  0.00    +0.000 A 
ATOM     26  N   UNL     1      -7.307  11.101  21.840  0.00  0.00    +0.000 NA
ATOM     27  N   UNL     1      -7.092  10.613  20.570  0.00  0.00    +0.000 NA
ATOM     28  C   UNL     1      -7.284  11.588  19.709  0.00  0.00    +0.000 A 
ENDBRANCH  22  28
ENDBRANCH  21  22
ENDBRANCH   1  21
TORSDOF 5
ENDMDL
MODEL 3
REMARK VINA RESULT:      -7.6      4.128      6.524
REMARK  Name = 
REMARK  7 active torsions:
REMARK  status: ('A' for Active; 'I' for Inactive)
REMARK    1  A    between atoms: C_1  and  N_2
REMARK    2  A    between atoms: C_6  and  C_7
REMARK    3  A    between atoms: C_7  and  C_8
REMARK    4  A    between atoms: C_8  and  C_9
REMARK    5  A    between atoms: C_13  and  N_14
REMARK    6  A    between atoms: C_21  and  C_22
REMARK    7  A    between atoms: C_22  and  C_23
REMARK                            x       y       z     vdW  Elec       q    Type
REMARK                         _______ _______ _______ _____ _____    ______ ____
ROOT
ATOM      1  C   UNL     1       1.891   7.111  20.000  0.00  0.00    +0.000 A 
ATOM      2  C   UNL     1       2.462   8.015  19.091  0.00  0.00    +0.000 A 
ATOM      3  C   UNL     1       3.021   7.548  17.905  0.00  0.00    +0.000 A 
ATOM      4  C   UNL     1       3.116   6.182  17.677  0.00  0.00    +0.000 A 
ATOM      5  C   UNL     1       2.910   5.310  18.752  0.00  0.00    +0.000 A 
ATOM      6  C   UNL     1       2.112   5.737  19.816  0.00  0.00    +0.000 A 
ENDROOT
BRANCH   5   7
ATOM      7  N   UNL     1       3.970   4.358  19.080  0.00  0.00    +0.000 N 
ATOM      8  C   UNL     1       5.271   5.074  19.167  0.00  0.00    +0.000 C 
ATOM      9  C   UNL     1       5.818   4.927  17.779  0.00  0.00    +0.000 A 
ATOM     10  C   UNL     1       5.233   3.791  17.214  0.00  0.00    +0.000 A 
ATOM     11  C   UNL     1       5.346   3.463  15.878  0.00  0.00    +0.000 A 
ATOM     12  C   UNL     1       6.047   4.350  15.066  0.00  0.00    +0.000 A 
ATOM     13  C   UNL     1       6.633   5.506  15.612  0.00  0.00    +0.000 A 
ATOM     14  C   UNL     1       6.556   5.804  16.989  0.00  0.00    +0.000 A 
ATOM     15  C   UNL     1       4.175   3.315  18.138  0.00  0.00    +0.000 C 
ATOM     16  O   UNL     1       3.520   2.314  17.967  0.00  0.00    +0.000 OA
BRANCH  14  17
ATOM     17  C   UNL     1       7.203   7.059  17.523  0.00  0.00    +0.000 C 
ATOM     18  C   UNL     1       7.995   6.743  18.781  0.00  0.00    +0.000 C 
ATOM     19  F   UNL     1       8.053   7.627  16.620  0.00  0.00    +0.000 F 
ATOM     20  F   UNL     1       6.310   8.039  17.837  0.00  0.00    +0.000 F 
ENDBRANCH  14  17
ENDBRANCH   5   7
BRANCH   1  21
ATOM     21  C   UNL     1       1.097   7.573  21.200  0.00  0.00    +0.000 C 
BRANCH  21  22
ATOM     22  C   UNL     1       1.550   8.930  21.745  0.00  0.00    +0.000 C 
BRANCH  22  28
ATOM     23  C   UNL     1      -0.001  11.097  19.896  0.00  0.00    +0.000 C 
ATOM     24  N   UNL     1      -0.171  10.811  21.293  0.00  0.00    +0.000 N 
ATOM     25  C   UNL     1      -1.039  11.478  22.115  0.00  0.00    +0.000 A 
ATOM     26  N   UNL     1      -0.982  11.000  23.318  0.00  0.00    +0.000 NA
ATOM     27  N   UNL     1      -0.046   9.990  23.318  0.00  0.00    +0.000 NA
ATOM     28  C   UNL     1       0.437   9.868  22.101  0.00  0.00    +0.000 A 
ENDBRANCH  22  28
ENDBRANCH  21  22
ENDBRANCH   1  21
TORSDOF 5
ENDMDL
MODEL 4
REMARK VINA RESULT:      -7.5      4.111      6.312
REMARK  Name = 
REMARK  7 active torsions:
REMARK  status: ('A' for Active; 'I' for Inactive)
REMARK    1  A    between atoms: C_1  and  N_2
REMARK    2  A    between atoms: C_6  and  C_7
REMARK    3  A    between atoms: C_7  and  C_8
REMARK    4  A    between atoms: C_8  and  C_9
REMARK    5  A    between atoms: C_13  and  N_14
REMARK    6  A    between atoms: C_21  and  C_22
REMARK    7  A    between atoms: C_22  and  C_23
REMARK                            x       y       z     vdW  Elec       q    Type
REMARK                         _______ _______ _______ _____ _____    ______ ____
ROOT
ATOM      1  C   UNL     1       2.177   5.751  20.269  0.00  0.00    +0.000 A 
ATOM      2  C   UNL     1       1.030   4.998  20.564  0.00  0.00    +0.000 A 
ATOM      3  C   UNL     1       1.137   3.628  20.793  0.00  0.00    +0.000 A 
ATOM      4  C   UNL     1       2.358   2.993  20.616  0.00  0.00    +0.000 A 
ATOM      5  C   UNL     1       3.377   3.678  19.946  0.00  0.00    +0.000 A 
ATOM      6  C   UNL     1       3.370   5.075  19.968  0.00  0.00    +0.000 A 
ENDROOT
BRANCH   5   7
ATOM      7  N   UNL     1       3.966   3.054  18.762  0.00  0.00    +0.000 N 
ATOM      8  C   UNL     1       5.426   3.334  18.728  0.00  0.00    +0.000 C 
ATOM      9  C   UNL     1       5.502   4.573  17.888  0.00  0.00    +0.000 A 
ATOM     10  C   UNL     1       4.367   4.601  17.076  0.00  0.00    +0.000 A 
ATOM     11  C   UNL     1       3.999   5.697  16.320  0.00  0.00    +0.000 A 
ATOM     12  C   UNL     1       4.794   6.834  16.427  0.00  0.00    +0.000 A 
ATOM     13  C   UNL     1       5.936   6.832  17.249  0.00  0.00    +0.000 A 
ATOM     14  C   UNL     1       6.331   5.688  17.976  0.00  0.00    +0.000 A 
ATOM     15  C   UNL     1       3.465   3.507  17.513  0.00  0.00    +0.000 C 
ATOM     16  O   UNL     1       2.423   3.225  16.971  0.00  0.00    +0.000 OA
BRANCH  14  17
ATOM     17  C   UNL     1       7.564   5.741  18.845  0.00  0.00    +0.000 C 
ATOM     18  C   UNL     1       8.266   7.079  18.673  0.00  0.00    +0.000 C 
ATOM     19  F   UNL     1       7.273   5.584  20.168  0.00  0.00    +0.000 F 
ATOM     20  F   UNL     1       8.471   4.764  18.560  0.00  0.00    +0.000 F 
ENDBRANCH  14  17
ENDBRANCH   5   7
BRANCH   1  21
ATOM     21  C   UNL     1       2.152   7.261  20.210  0.00  0.00    +0.000 C 
BRANCH  21  22
ATOM     22  C   UNL     1       0.961   7.880  20.945  0.00  0.00    +0.000 C 
BRANCH  22  28
ATOM     23  C   UNL     1       0.458   9.837  18.407  0.00  0.00    +0.000 C 
ATOM     24  N   UNL     1       0.724  10.179  19.776  0.00  0.00    +0.000 N 
ATOM     25  C   UNL     1       0.851  11.461  20.238  0.00  0.00    +0.000 A 
ATOM     26  N   UNL     1       1.080  11.463  21.513  0.00  0.00    +0.000 NA
ATOM     27  N   UNL     1       1.119  10.150  21.928  0.00  0.00    +0.000 NA
ATOM     28  C   UNL     1       0.897   9.376  20.889  0.00  0.00    +0.000 A 
ENDBRANCH  22  28
ENDBRANCH  21  22
ENDBRANCH   1  21
TORSDOF 5
ENDMDL
MODEL 5
REMARK VINA RESULT:      -7.5      4.129      6.481
REMARK  Name = 
REMARK  7 active torsions:
REMARK  status: ('A' for Active; 'I' for Inactive)
REMARK    1  A    between atoms: C_1  and  N_2
REMARK    2  A    between atoms: C_6  and  C_7
REMARK    3  A    between atoms: C_7  and  C_8
REMARK    4  A    between atoms: C_8  and  C_9
REMARK    5  A    between atoms: C_13  and  N_14
REMARK    6  A    between atoms: C_21  and  C_22
REMARK    7  A    between atoms: C_22  and  C_23
REMARK                            x       y       z     vdW  Elec       q    Type
REMARK                         _______ _______ _______ _____ _____    ______ ____
ROOT
ATOM      1  C   UNL     1       2.095   5.785  20.096  0.00  0.00    +0.000 A 
ATOM      2  C   UNL     1       0.964   5.020  20.418  0.00  0.00    +0.000 A 
ATOM      3  C   UNL     1       1.105   3.674  20.746  0.00  0.00    +0.000 A 
ATOM      4  C   UNL     1       2.348   3.066  20.643  0.00  0.00    +0.000 A 
ATOM      5  C   UNL     1       3.363   3.733  19.949  0.00  0.00    +0.000 A 
ATOM      6  C   UNL     1       3.315   5.126  19.871  0.00  0.00    +0.000 A 
ENDROOT
BRANCH   5   7
ATOM      7  N   UNL     1       4.000   3.044  18.827  0.00  0.00    +0.000 N 
ATOM      8  C   UNL     1       5.458   3.336  18.828  0.00  0.00    +0.000 C 
ATOM      9  C   UNL     1       5.555   4.523  17.920  0.00  0.00    +0.000 A 
ATOM     10  C   UNL     1       4.450   4.492  17.066  0.00  0.00    +0.000 A 
ATOM     11  C   UNL     1       4.102   5.538  16.234  0.00  0.00    +0.000 A 
ATOM     12  C   UNL     1       4.885   6.686  16.301  0.00  0.00    +0.000 A 
ATOM     13  C   UNL     1       5.995   6.744  17.162  0.00  0.00    +0.000 A 
ATOM     14  C   UNL     1       6.372   5.650  17.970  0.00  0.00    +0.000 A 
ATOM     15  C   UNL     1       3.541   3.418  17.536  0.00  0.00    +0.000 C 
ATOM     16  O   UNL     1       2.522   3.094  16.975  0.00  0.00    +0.000 OA
BRANCH  14  17
ATOM     17  C   UNL     1       7.573   5.766  18.878  0.00  0.00    +0.000 C 
ATOM     18  C   UNL     1       8.244   7.116  18.683  0.00  0.00    +0.000 C 
ATOM     19  F   UNL     1       7.239   5.646  20.195  0.00  0.00    +0.000 F 
ATOM     20  F   UNL     1       8.514   4.805  18.659  0.00  0.00    +0.000 F 
ENDBRANCH  14  17
ENDBRANCH   5   7
BRANCH   1  21
ATOM     21  C   UNL     1       2.028   7.286  19.928  0.00  0.00    +0.000 C 
BRANCH  21  22
ATOM     22  C   UNL     1       1.536   8.017  21.180  0.00  0.00    +0.000 C 
BRANCH  22  28
ATOM     23  C   UNL     1      -0.365   9.763  23.144  0.00  0.00    +0.000 C 
ATOM     24  N   UNL     1      -0.037   9.990  21.765  0.00  0.00    +0.000 N 
ATOM     25  C   UNL     1      -0.538  11.018  21.013  0.00  0.00    +0.000 A 
ATOM     26  N   UNL     1      -0.061  10.974  19.809  0.00  0.00    +0.000 NA
ATOM     27  N   UNL     1       0.779   9.885  19.737  0.00  0.00    +0.000 NA
ATOM     28  C   UNL     1       0.802   9.296  20.912  0.00  0.00    +0.000 A 
ENDBRANCH  22  28
ENDBRANCH  21  22
ENDBRANCH   1  21
TORSDOF 5
ENDMDL
MODEL 6
REMARK VINA RESULT:      -7.4      4.423      6.982
REMARK  Name = 
REMARK  7 active torsions:
REMARK  status: ('A' for Active; 'I' for Inactive)
REMARK    1  A    between atoms: C_1  and  N_2
REMARK    2  A    between atoms: C_6  and  C_7
REMARK    3  A    between atoms: C_7  and  C_8
REMARK    4  A    between atoms: C_8  and  C_9
REMARK    5  A    between atoms: C_13  and  N_14
REMARK    6  A    between atoms: C_21  and  C_22
REMARK    7  A    between atoms: C_22  and  C_23
REMARK                            x       y       z     vdW  Elec       q    Type
REMARK                         _______ _______ _______ _____ _____    ______ ____
ROOT
ATOM      1  C   UNL     1       2.370   4.190  18.471  0.00  0.00    +0.000 A 
ATOM      2  C   UNL     1       2.407   3.715  19.790  0.00  0.00    +0.000 A 
ATOM      3  C   UNL     1       1.902   4.498  20.825  0.00  0.00    +0.000 A 
ATOM      4  C   UNL     1       1.468   5.790  20.564  0.00  0.00    +0.000 A 
ATOM      5  C   UNL     1       1.807   6.374  19.338  0.00  0.00    +0.000 A 
ATOM      6  C   UNL     1       2.053   5.539  18.246  0.00  0.00    +0.000 A 
ENDROOT
BRANCH   5   7
ATOM      7  N   UNL     1       2.529   7.645  19.356  0.00  0.00    +0.000 N 
ATOM      8  C   UNL     1       2.191   8.391  20.597  0.00  0.00    +0.000 C 
ATOM      9  C   UNL     1       1.047   9.254  20.159  0.00  0.00    +0.000 A 
ATOM     10  C   UNL     1       1.155   9.428  18.778  0.00  0.00    +0.000 A 
ATOM     11  C   UNL     1       0.164   9.996  18.003  0.00  0.00    +0.000 A 
ATOM     12  C   UNL     1      -1.011  10.365  18.650  0.00  0.00    +0.000 A 
ATOM     13  C   UNL     1      -1.147  10.188  20.039  0.00  0.00    +0.000 A 
ATOM     14  C   UNL     1      -0.106   9.654  20.829  0.00  0.00    +0.000 A 
ATOM     15  C   UNL     1       2.234   8.535  18.289  0.00  0.00    +0.000 C 
ATOM     16  O   UNL     1       2.617   8.493  17.144  0.00  0.00    +0.000 OA
BRANCH  14  17
ATOM     17  C   UNL     1      -0.304   9.484  22.316  0.00  0.00    +0.000 C 
ATOM     18  C   UNL     1      -1.073  10.669  22.878  0.00  0.00    +0.000 C 
ATOM     19  F   UNL     1      -0.998   8.349  22.619  0.00  0.00    +0.000 F 
ATOM     20  F   UNL     1       0.863   9.387  23.013  0.00  0.00    +0.000 F 
ENDBRANCH  14  17
ENDBRANCH   5   7
BRANCH   1  21
ATOM     21  C   UNL     1       2.717   3.310  17.291  0.00  0.00    +0.000 C 
BRANCH  21  22
ATOM     22  C   UNL     1       4.218   3.036  17.157  0.00  0.00    +0.000 C 
BRANCH  22  28
ATOM     23  C   UNL     1       5.826   5.186  18.975  0.00  0.00    +0.000 C 
ATOM     24  N   UNL     1       5.674   5.141  17.548  0.00  0.00    +0.000 N 
ATOM     25  C   UNL     1       6.184   6.077  16.690  0.00  0.00    +0.000 A 
ATOM     26  N   UNL     1       5.897   5.772  15.464  0.00  0.00    +0.000 NA
ATOM     27  N   UNL     1       5.166   4.605  15.488  0.00  0.00    +0.000 NA
ATOM     28  C   UNL     1       5.037   4.218  16.739  0.00  0.00    +0.000 A 
ENDBRANCH  22  28
ENDBRANCH  21  22
ENDBRANCH   1  21
TORSDOF 5
ENDMDL
MODEL 7
REMARK VINA RESULT:      -7.4      4.945      7.350
REMARK  Name = 
REMARK  7 active torsions:
REMARK  status: ('A' for Active; 'I' for Inactive)
REMARK    1  A    between atoms: C_1  and  N_2
REMARK    2  A    between atoms: C_6  and  C_7
REMARK    3  A    between atoms: C_7  and  C_8
REMARK    4  A    between atoms: C_8  and  C_9
REMARK    5  A    between atoms: C_13  and  N_14
REMARK    6  A    between atoms: C_21  and  C_22
REMARK    7  A    between atoms: C_22  and  C_23
REMARK                            x       y       z     vdW  Elec       q    Type
REMARK                         _______ _______ _______ _____ _____    ______ ____
ROOT
ATOM      1  C   UNL     1       1.347   9.059  19.666  0.00  0.00    +0.000 A 
ATOM      2  C   UNL     1       1.929   9.449  18.451  0.00  0.00    +0.000 A 
ATOM      3  C   UNL     1       2.422   8.485  17.575  0.00  0.00    +0.000 A 
ATOM      4  C   UNL     1       2.438   7.151  17.956  0.00  0.00    +0.000 A 
ATOM      5  C   UNL     1       2.227   6.838  19.304  0.00  0.00    +0.000 A 
ATOM      6  C   UNL     1       1.491   7.728  20.089  0.00  0.00    +0.000 A 
ENDROOT
BRANCH   5   7
ATOM      7  N   UNL     1       3.248   6.056  19.998  0.00  0.00    +0.000 N 
ATOM      8  C   UNL     1       4.386   5.795  19.077  0.00  0.00    +0.000 C 
ATOM      9  C   UNL     1       4.029   4.466  18.485  0.00  0.00    +0.000 A 
ATOM     10  C   UNL     1       3.186   3.815  19.388  0.00  0.00    +0.000 A 
ATOM     11  C   UNL     1       2.497   2.657  19.086  0.00  0.00    +0.000 A 
ATOM     12  C   UNL     1       2.633   2.158  17.795  0.00  0.00    +0.000 A 
ATOM     13  C   UNL     1       3.468   2.804  16.865  0.00  0.00    +0.000 A 
ATOM     14  C   UNL     1       4.208   3.958  17.201  0.00  0.00    +0.000 A 
ATOM     15  C   UNL     1       2.836   4.778  20.460  0.00  0.00    +0.000 C 
ATOM     16  O   UNL     1       2.168   4.506  21.430  0.00  0.00    +0.000 OA
BRANCH  14  17
ATOM     17  C   UNL     1       5.088   4.613  16.163  0.00  0.00    +0.000 C 
ATOM     18  C   UNL     1       6.550   4.467  16.554  0.00  0.00    +0.000 C 
ATOM     19  F   UNL     1       4.925   4.064  14.925  0.00  0.00    +0.000 F 
ATOM     20  F   UNL     1       4.839   5.943  16.000  0.00  0.00    +0.000 F 
ENDBRANCH  14  17
ENDBRANCH   5   7
BRANCH   1  21
ATOM     21  C   UNL     1       0.621  10.039  20.560  0.00  0.00    +0.000 C 
BRANCH  21  22
ATOM     22  C   UNL     1       0.277  11.359  19.864  0.00  0.00    +0.000 C 
BRANCH  22  28
ATOM     23  C   UNL     1      -1.568  10.154  17.483  0.00  0.00    +0.000 C 
ATOM     24  N   UNL     1      -1.925  11.065  18.534  0.00  0.00    +0.000 N 
ATOM     25  C   UNL     1      -3.165  11.628  18.676  0.00  0.00    +0.000 A 
ATOM     26  N   UNL     1      -3.196  12.400  19.715  0.00  0.00    +0.000 NA
ATOM     27  N   UNL     1      -1.945  12.370  20.290  0.00  0.00    +0.000 NA
ATOM     28  C   UNL     1      -1.181  11.563  19.588  0.00  0.00    +0.000 A 
ENDBRANCH  22  28
ENDBRANCH  21  22
ENDBRANCH   1  21
TORSDOF 5
ENDMDL
MODEL 8
REMARK VINA RESULT:      -7.4      0.743      1.331
REMARK  Name = 
REMARK  7 active torsions:
REMARK  status: ('A' for Active; 'I' for Inactive)
REMARK    1  A    between atoms: C_1  and  N_2
REMARK    2  A    between atoms: C_6  and  C_7
REMARK    3  A    between atoms: C_7  and  C_8
REMARK    4  A    between atoms: C_8  and  C_9
REMARK    5  A    between atoms: C_13  and  N_14
REMARK    6  A    between atoms: C_21  and  C_22
REMARK    7  A    between atoms: C_22  and  C_23
REMARK                            x       y       z     vdW  Elec       q    Type
REMARK                         _______ _______ _______ _____ _____    ______ ____
ROOT
ATOM      1  C   UNL     1       7.764   7.576  17.881  0.00  0.00    +0.000 A 
ATOM      2  C   UNL     1       7.642   6.691  18.963  0.00  0.00    +0.000 A 
ATOM      3  C   UNL     1       7.574   5.319  18.735  0.00  0.00    +0.000 A 
ATOM      4  C   UNL     1       7.512   4.839  17.435  0.00  0.00    +0.000 A 
ATOM      5  C   UNL     1       7.235   5.740  16.401  0.00  0.00    +0.000 A 
ATOM      6  C   UNL     1       7.568   7.085  16.581  0.00  0.00    +0.000 A 
ENDROOT
BRANCH   5   7
ATOM      7  N   UNL     1       6.087   5.468  15.538  0.00  0.00    +0.000 N 
ATOM      8  C   UNL     1       4.957   6.358  15.918  0.00  0.00    +0.000 C 
ATOM      9  C   UNL     1       4.193   5.516  16.894  0.00  0.00    +0.000 A 
ATOM     10  C   UNL     1       4.481   4.179  16.613  0.00  0.00    +0.000 A 
ATOM     11  C   UNL     1       4.115   3.133  17.437  0.00  0.00    +0.000 A 
ATOM     12  C   UNL     1       3.465   3.459  18.623  0.00  0.00    +0.000 A 
ATOM     13  C   UNL     1       3.175   4.801  18.932  0.00  0.00    +0.000 A 
ATOM     14  C   UNL     1       3.508   5.858  18.057  0.00  0.00    +0.000 A 
ATOM     15  C   UNL     1       5.566   4.148  15.603  0.00  0.00    +0.000 C 
ATOM     16  O   UNL     1       6.004   3.140  15.103  0.00  0.00    +0.000 OA
BRANCH  14  17
ATOM     17  C   UNL     1       3.175   7.280  18.439  0.00  0.00    +0.000 C 
ATOM     18  C   UNL     1       1.955   7.754  17.666  0.00  0.00    +0.000 C 
ATOM     19  F   UNL     1       2.909   7.410  19.770  0.00  0.00    +0.000 F 
ATOM     20  F   UNL     1       4.185   8.160  18.188  0.00  0.00    +0.000 F 
ENDBRANCH  14  17
ENDBRANCH   5   7
BRANCH   1  21
ATOM     21  C   UNL     1       8.041   9.049  18.076  0.00  0.00    +0.000 C 
BRANCH  21  22
ATOM     22  C   UNL     1       9.230   9.329  18.999  0.00  0.00    +0.000 C 
BRANCH  22  28
ATOM     23  C   UNL     1      10.447  11.956  17.538  0.00  0.00    +0.000 C 
ATOM     24  N   UNL     1       9.891  11.828  18.856  0.00  0.00    +0.000 N 
ATOM     25  C   UNL     1       9.822  12.849  19.765  0.00  0.00    +0.000 A 
ATOM     26  N   UNL     1       9.266  12.443  20.862  0.00  0.00    +0.000 NA
ATOM     27  N   UNL     1       8.957  11.111  20.700  0.00  0.00    +0.000 NA
ATOM     28  C   UNL     1       9.324  10.740  19.493  0.00  0.00    +0.000 A 
ENDBRANCH  22  28
ENDBRANCH  21  22
ENDBRANCH   1  21
TORSDOF 5
ENDMDL
MODEL 9
REMARK VINA RESULT:      -7.4      4.371      7.053
REMARK  Name = 
REMARK  7 active torsions:
REMARK  status: ('A' for Active; 'I' for Inactive)
REMARK    1  A    between atoms: C_1  and  N_2
REMARK    2  A    between atoms: C_6  and  C_7
REMARK    3  A    between atoms: C_7  and  C_8
REMARK    4  A    between atoms: C_8  and  C_9
REMARK    5  A    between atoms: C_13  and  N_14
REMARK    6  A    between atoms: C_21  and  C_22
REMARK    7  A    between atoms: C_22  and  C_23
REMARK                            x       y       z     vdW  Elec       q    Type
REMARK                         _______ _______ _______ _____ _____    ______ ____
ROOT
ATOM      1  C   UNL     1       2.287   4.091  18.559  0.00  0.00    +0.000 A 
ATOM      2  C   UNL     1       2.237   3.643  19.888  0.00  0.00    +0.000 A 
ATOM      3  C   UNL     1       1.706   4.463  20.880  0.00  0.00    +0.000 A 
ATOM      4  C   UNL     1       1.333   5.764  20.572  0.00  0.00    +0.000 A 
ATOM      5  C   UNL     1       1.756   6.311  19.356  0.00  0.00    +0.000 A 
ATOM      6  C   UNL     1       2.029   5.446  18.293  0.00  0.00    +0.000 A 
ENDROOT
BRANCH   5   7
ATOM      7  N   UNL     1       2.521   7.556  19.388  0.00  0.00    +0.000 N 
ATOM      8  C   UNL     1       2.187   8.312  20.624  0.00  0.00    +0.000 C 
ATOM      9  C   UNL     1       1.082   9.214  20.168  0.00  0.00    +0.000 A 
ATOM     10  C   UNL     1       1.220   9.386  18.789  0.00  0.00    +0.000 A 
ATOM     11  C   UNL     1       0.263   9.989  17.997  0.00  0.00    +0.000 A 
ATOM     12  C   UNL     1      -0.910  10.398  18.624  0.00  0.00    +0.000 A 
ATOM     13  C   UNL     1      -1.076  10.224  20.010  0.00  0.00    +0.000 A 
ATOM     14  C   UNL     1      -0.069   9.653  20.818  0.00  0.00    +0.000 A 
ATOM     15  C   UNL     1       2.276   8.457  18.317  0.00  0.00    +0.000 C 
ATOM     16  O   UNL     1       2.678   8.403  17.179  0.00  0.00    +0.000 OA
BRANCH  14  17
ATOM     17  C   UNL     1      -0.300   9.488  22.301  0.00  0.00    +0.000 C 
ATOM     18  C   UNL     1      -1.089  10.671  22.839  0.00  0.00    +0.000 C 
ATOM     19  F   UNL     1      -0.993   8.350  22.593  0.00  0.00    +0.000 F 
ATOM     20  F   UNL     1       0.852   9.402  23.024  0.00  0.00    +0.000 F 
ENDBRANCH  14  17
ENDBRANCH   5   7
BRANCH   1  21
ATOM     21  C   UNL     1       2.664   3.177  17.417  0.00  0.00    +0.000 C 
BRANCH  21  22
ATOM     22  C   UNL     1       4.174   2.961  17.282  0.00  0.00    +0.000 C 
BRANCH  22  28
ATOM     23  C   UNL     1       5.145   5.809  16.069  0.00  0.00    +0.000 C 
ATOM     24  N   UNL     1       5.449   5.214  17.340  0.00  0.00    +0.000 N 
ATOM     25  C   UNL     1       6.278   5.776  18.274  0.00  0.00    +0.000 A 
ATOM     26  N   UNL     1       6.359   5.019  19.322  0.00  0.00    +0.000 NA
ATOM     27  N   UNL     1       5.573   3.911  19.094  0.00  0.00    +0.000 NA
ATOM     28  C   UNL     1       5.019   4.029  17.907  0.00  0.00    +0.000 A 
ENDBRANCH  22  28
ENDBRANCH  21  22
ENDBRANCH   1  21
TORSDOF 5
ENDMDL
