MODEL 1
REMARK VINA RESULT:      -8.3      0.000      0.000
REMARK  Name = 
REMARK  6 active torsions:
REMARK  status: ('A' for Active; 'I' for Inactive)
REMARK    1  A    between atoms: C_1  and  C_2
REMARK    2  A    between atoms: C_6  and  C_7
REMARK    3  A    between atoms: C_7  and  C_8
REMARK    4  A    between atoms: C_8  and  C_9
REMARK    5  A    between atoms: C_13  and  N_14
REMARK    6  A    between atoms: C_19  and  C_20
REMARK                            x       y       z     vdW  Elec       q    Type
REMARK                         _______ _______ _______ _____ _____    ______ ____
ROOT
ATOM      1  C   UNL     1       2.323   5.705  18.933  0.00  0.00    +0.000 A 
ATOM      2  C   UNL     1       2.113   6.542  17.819  0.00  0.00    +0.000 A 
ATOM      3  C   UNL     1       2.051   7.929  17.933  0.00  0.00    +0.000 A 
ATOM      4  C   UNL     1       2.044   8.514  19.189  0.00  0.00    +0.000 A 
ATOM      5  C   UNL     1       1.933   7.688  20.314  0.00  0.00    +0.000 A 
ATOM      6  C   UNL     1       2.271   6.336  20.192  0.00  0.00    +0.000 A 
ENDROOT
BRANCH   5   7
ATOM      7  N   UNL     1       0.985   8.043  21.371  0.00  0.00    +0.000 N 
ATOM      8  C   UNL     1      -0.378   8.193  20.792  0.00  0.00    +0.000 C 
ATOM      9  C   UNL     1      -0.377   9.636  20.396  0.00  0.00    +0.000 A 
ATOM     10  C   UNL     1      -0.817  10.227  19.225  0.00  0.00    +0.000 A 
ATOM     11  C   UNL     1      -0.376  11.525  18.944  0.00  0.00    +0.000 A 
ATOM     12  C   UNL     1       0.479  12.228  19.832  0.00  0.00    +0.000 A 
ATOM     13  C   UNL     1       0.902  11.612  21.024  0.00  0.00    +0.000 A 
ATOM     14  C   UNL     1       0.482  10.314  21.260  0.00  0.00    +0.000 A 
ATOM     15  C   UNL     1       1.240   9.287  22.017  0.00  0.00    +0.000 C 
ATOM     16  O   UNL     1       2.073   9.542  22.869  0.00  0.00    +0.000 OA
BRANCH  12  17
ATOM     17  C   UNL     1       1.036  13.583  19.466  0.00  0.00    +0.000 C 
ATOM     18  F   UNL     1       1.041  14.467  20.502  0.00  0.00    +0.000 F 
ATOM     19  F   UNL     1       2.322  13.514  19.025  0.00  0.00    +0.000 F 
ATOM     20  F   UNL     1       0.327  14.184  18.471  0.00  0.00    +0.000 F 
ENDBRANCH  12  17
ENDBRANCH   5   7
BRANCH   1  21
ATOM     21  C   UNL     1       2.595   4.121  18.792  0.00  0.00    +0.000 C 
ATOM     22  C   UNL     1       2.499   3.218  20.051  0.00  0.00    +0.000 C 
ATOM     23  O   UNL     1       1.265   2.616  19.602  0.00  0.00    +0.000 OA
ATOM     24  C   UNL     1       1.323   3.344  18.360  0.00  0.00    +0.000 C 
BRANCH  21  25
ATOM     25  C   UNL     1       3.826   3.801  17.903  0.00  0.00    +0.000 C 
BRANCH  25  31
ATOM     26  C   UNL     1       5.308   6.261  16.192  0.00  0.00    +0.000 C 
ATOM     27  C   UNL     1       5.704   5.621  17.471  0.00  0.00    +0.000 A 
ATOM     28  C   UNL     1       6.835   5.919  18.203  0.00  0.00    +0.000 A 
ATOM     29  N   UNL     1       6.847   5.080  19.264  0.00  0.00    +0.000 N 
ATOM     30  N   UNL     1       5.787   4.268  19.307  0.00  0.00    +0.000 NA
ATOM     31  C   UNL     1       5.067   4.584  18.220  0.00  0.00    +0.000 A 
ATOM     32  H   UNL     1       7.541   4.993  20.000  0.00  0.00    +0.000 HD
ENDBRANCH  25  31
ENDBRANCH  21  25
ENDBRANCH   1  21
TORSDOF 5
ENDMDL
MODEL 2
REMARK VINA RESULT:      -8.2      5.853      9.350
REMARK  Name = 
REMARK  6 active torsions:
REMARK  status: ('A' for Active; 'I' for Inactive)
REMARK    1  A    between atoms: C_1  and  C_2
REMARK    2  A    between atoms: C_6  and  C_7
REMARK    3  A    between atoms: C_7  and  C_8
REMARK    4  A    between atoms: C_8  and  C_9
REMARK    5  A    between atoms: C_13  and  N_14
REMARK    6  A    between atoms: C_19  and  C_20
REMARK                            x       y       z     vdW  Elec       q    Type
REMARK                         _______ _______ _______ _____ _____    ______ ____
ROOT
ATOM      1  C   UNL     1      -3.787  11.327  18.060  0.00  0.00    +0.000 A 
ATOM      2  C   UNL     1      -3.671  10.771  16.770  0.00  0.00    +0.000 A 
ATOM      3  C   UNL     1      -2.581   9.986  16.395  0.00  0.00    +0.000 A 
ATOM      4  C   UNL     1      -1.499   9.862  17.251  0.00  0.00    +0.000 A 
ATOM      5  C   UNL     1      -1.456  10.660  18.400  0.00  0.00    +0.000 A 
ATOM      6  C   UNL     1      -2.649  11.209  18.883  0.00  0.00    +0.000 A 
ENDROOT
BRANCH   5   7
ATOM      7  N   UNL     1      -0.217  11.363  18.737  0.00  0.00    +0.000 N 
ATOM      8  C   UNL     1       0.507  10.617  19.803  0.00  0.00    +0.000 C 
ATOM      9  C   UNL     1      -0.091  11.209  21.040  0.00  0.00    +0.000 A 
ATOM     10  C   UNL     1      -0.540  10.579  22.187  0.00  0.00    +0.000 A 
ATOM     11  C   UNL     1      -1.386  11.301  23.038  0.00  0.00    +0.000 A 
ATOM     12  C   UNL     1      -1.761  12.639  22.752  0.00  0.00    +0.000 A 
ATOM     13  C   UNL     1      -1.280  13.263  21.587  0.00  0.00    +0.000 A 
ATOM     14  C   UNL     1      -0.477  12.515  20.744  0.00  0.00    +0.000 A 
ATOM     15  C   UNL     1      -0.392  12.672  19.270  0.00  0.00    +0.000 C 
ATOM     16  O   UNL     1      -0.652  13.703  18.676  0.00  0.00    +0.000 OA
BRANCH  12  17
ATOM     17  C   UNL     1      -2.761  13.368  23.618  0.00  0.00    +0.000 C 
ATOM     18  F   UNL     1      -3.595  14.186  22.916  0.00  0.00    +0.000 F 
ATOM     19  F   UNL     1      -3.566  12.517  24.312  0.00  0.00    +0.000 F 
ATOM     20  F   UNL     1      -2.161  14.163  24.548  0.00  0.00    +0.000 F 
ENDBRANCH  12  17
ENDBRANCH   5   7
BRANCH   1  21
ATOM     21  C   UNL     1      -5.127  12.066  18.570  0.00  0.00    +0.000 C 
ATOM     22  C   UNL     1      -6.075  12.723  17.530  0.00  0.00    +0.000 C 
ATOM     23  O   UNL     1      -7.080  11.701  17.708  0.00  0.00    +0.000 OA
ATOM     24  C   UNL     1      -6.308  11.078  18.753  0.00  0.00    +0.000 C 
BRANCH  21  25
ATOM     25  C   UNL     1      -4.884  12.952  19.821  0.00  0.00    +0.000 C 
BRANCH  25  31
ATOM     26  C   UNL     1      -7.741  14.652  20.175  0.00  0.00    +0.000 C 
ATOM     27  C   UNL     1      -7.145  13.603  21.041  0.00  0.00    +0.000 A 
ATOM     28  C   UNL     1      -7.675  13.146  22.230  0.00  0.00    +0.000 A 
ATOM     29  N   UNL     1      -6.803  12.236  22.722  0.00  0.00    +0.000 N 
ATOM     30  N   UNL     1      -5.747  12.034  21.930  0.00  0.00    +0.000 NA
ATOM     31  C   UNL     1      -5.936  12.858  20.888  0.00  0.00    +0.000 A 
ATOM     32  H   UNL     1      -6.851  11.714  23.592  0.00  0.00    +0.000 HD
ENDBRANCH  25  31
ENDBRANCH  21  25
ENDBRANCH   1  21
TORSDOF 5
ENDMDL
MODEL 3
REMARK VINA RESULT:      -8.0      2.698      3.401
REMARK  Name = 
REMARK  6 active torsions:
REMARK  status: ('A' for Active; 'I' for Inactive)
REMARK    1  A    between atoms: C_1  and  C_2
REMARK    2  A    between atoms: C_6  and  C_7
REMARK    3  A    between atoms: C_7  and  C_8
REMARK    4  A    between atoms: C_8  and  C_9
REMARK    5  A    between atoms: C_13  and  N_14
REMARK    6  A    between atoms: C_19  and  C_20
REMARK                            x       y       z     vdW  Elec       q    Type
REMARK                         _______ _______ _______ _____ _____    ______ ____
ROOT
ATOM      1  C   UNL     1       2.659   4.744  18.893  0.00  0.00    +0.000 A 
ATOM      2  C   UNL     1       2.430   4.394  20.239  0.00  0.00    +0.000 A 
ATOM      3  C   UNL     1       1.724   5.221  21.111  0.00  0.00    +0.000 A 
ATOM      4  C   UNL     1       1.358   6.493  20.704  0.00  0.00    +0.000 A 
ATOM      5  C   UNL     1       1.851   6.976  19.486  0.00  0.00    +0.000 A 
ATOM      6  C   UNL     1       2.306   6.059  18.532  0.00  0.00    +0.000 A 
ENDROOT
BRANCH   5   7
ATOM      7  N   UNL     1       2.407   8.329  19.426  0.00  0.00    +0.000 N 
ATOM      8  C   UNL     1       1.848   9.150  20.534  0.00  0.00    +0.000 C 
ATOM      9  C   UNL     1       0.609   9.700  19.902  0.00  0.00    +0.000 A 
ATOM     10  C   UNL     1      -0.672   9.797  20.417  0.00  0.00    +0.000 A 
ATOM     11  C   UNL     1      -1.723  10.002  19.516  0.00  0.00    +0.000 A 
ATOM     12  C   UNL     1      -1.493  10.125  18.121  0.00  0.00    +0.000 A 
ATOM     13  C   UNL     1      -0.181  10.036  17.623  0.00  0.00    +0.000 A 
ATOM     14  C   UNL     1       0.836   9.797  18.531  0.00  0.00    +0.000 A 
ATOM     15  C   UNL     1       2.092   9.058  18.244  0.00  0.00    +0.000 C 
ATOM     16  O   UNL     1       2.586   8.954  17.135  0.00  0.00    +0.000 OA
BRANCH  12  17
ATOM     17  C   UNL     1      -2.644  10.233  17.150  0.00  0.00    +0.000 C 
ATOM     18  F   UNL     1      -2.269  10.101  15.846  0.00  0.00    +0.000 F 
ATOM     19  F   UNL     1      -3.597   9.285  17.365  0.00  0.00    +0.000 F 
ATOM     20  F   UNL     1      -3.280  11.435  17.231  0.00  0.00    +0.000 F 
ENDBRANCH  12  17
ENDBRANCH   5   7
BRANCH   1  21
ATOM     21  C   UNL     1       3.298   3.717  17.825  0.00  0.00    +0.000 C 
ATOM     22  C   UNL     1       3.956   2.405  18.332  0.00  0.00    +0.000 C 
ATOM     23  O   UNL     1       2.874   1.593  17.827  0.00  0.00    +0.000 OA
ATOM     24  C   UNL     1       2.239   2.746  17.240  0.00  0.00    +0.000 C 
BRANCH  21  25
ATOM     25  C   UNL     1       4.129   4.433  16.727  0.00  0.00    +0.000 C 
BRANCH  25  31
ATOM     26  C   UNL     1       5.952   5.446  19.339  0.00  0.00    +0.000 C 
ATOM     27  C   UNL     1       6.387   4.865  18.044  0.00  0.00    +0.000 A 
ATOM     28  C   UNL     1       7.695   4.662  17.654  0.00  0.00    +0.000 A 
ATOM     29  N   UNL     1       7.655   4.165  16.397  0.00  0.00    +0.000 N 
ATOM     30  N   UNL     1       6.413   3.994  15.936  0.00  0.00    +0.000 NA
ATOM     31  C   UNL     1       5.616   4.410  16.932  0.00  0.00    +0.000 A 
ATOM     32  H   UNL     1       8.426   3.923  15.782  0.00  0.00    +0.000 HD
ENDBRANCH  25  31
ENDBRANCH  21  25
ENDBRANCH   1  21
TORSDOF 5
ENDMDL
MODEL 4
REMARK VINA RESULT:      -8.0      1.528      1.978
REMARK  Name = 
REMARK  6 active torsions:
REMARK  status: ('A' for Active; 'I' for Inactive)
REMARK    1  A    between atoms: C_1  and  C_2
REMARK    2  A    between atoms: C_6  and  C_7
REMARK    3  A    between atoms: C_7  and  C_8
REMARK    4  A    between atoms: C_8  and  C_9
REMARK    5  A    between atoms: C_13  and  N_14
REMARK    6  A    between atoms: C_19  and  C_20
REMARK                            x       y       z     vdW  Elec       q    Type
REMARK                         _______ _______ _______ _____ _____    ______ ____
ROOT
ATOM      1  C   UNL     1       2.112   7.216  19.303  0.00  0.00    +0.000 A 
ATOM      2  C   UNL     1       2.208   7.798  18.023  0.00  0.00    +0.000 A 
ATOM      3  C   UNL     1       1.967   9.153  17.804  0.00  0.00    +0.000 A 
ATOM      4  C   UNL     1       1.472   9.936  18.834  0.00  0.00    +0.000 A 
ATOM      5  C   UNL     1       1.071   9.311  20.020  0.00  0.00    +0.000 A 
ATOM      6  C   UNL     1       1.569   8.036  20.311  0.00  0.00    +0.000 A 
ENDROOT
BRANCH   5   7
ATOM      7  N   UNL     1      -0.212   9.676  20.623  0.00  0.00    +0.000 N 
ATOM      8  C   UNL     1      -1.153  10.129  19.562  0.00  0.00    +0.000 C 
ATOM      9  C   UNL     1      -0.842  11.591  19.493  0.00  0.00    +0.000 A 
ATOM     10  C   UNL     1      -0.656  12.398  18.385  0.00  0.00    +0.000 A 
ATOM     11  C   UNL     1      -0.018  13.630  18.575  0.00  0.00    +0.000 A 
ATOM     12  C   UNL     1       0.410  14.053  19.859  0.00  0.00    +0.000 A 
ATOM     13  C   UNL     1       0.198  13.222  20.973  0.00  0.00    +0.000 A 
ATOM     14  C   UNL     1      -0.401  11.993  20.752  0.00  0.00    +0.000 A 
ATOM     15  C   UNL     1      -0.159  10.761  21.544  0.00  0.00    +0.000 C 
ATOM     16  O   UNL     1       0.226  10.756  22.700  0.00  0.00    +0.000 OA
BRANCH  12  17
ATOM     17  C   UNL     1       1.196  15.332  20.034  0.00  0.00    +0.000 C 
ATOM     18  F   UNL     1       0.629  16.202  20.917  0.00  0.00    +0.000 F 
ATOM     19  F   UNL     1       2.460  15.108  20.486  0.00  0.00    +0.000 F 
ATOM     20  F   UNL     1       1.327  16.024  18.868  0.00  0.00    +0.000 F 
ENDBRANCH  12  17
ENDBRANCH   5   7
BRANCH   1  21
ATOM     21  C   UNL     1       2.579   5.701  19.605  0.00  0.00    +0.000 C 
ATOM     22  C   UNL     1       1.980   4.950  20.825  0.00  0.00    +0.000 C 
ATOM     23  O   UNL     1       1.186   4.087  19.983  0.00  0.00    +0.000 OA
ATOM     24  C   UNL     1       1.762   4.662  18.793  0.00  0.00    +0.000 C 
BRANCH  21  25
ATOM     25  C   UNL     1       4.112   5.506  19.460  0.00  0.00    +0.000 C 
BRANCH  25  31
ATOM     26  C   UNL     1       5.193   6.545  16.472  0.00  0.00    +0.000 C 
ATOM     27  C   UNL     1       4.988   5.166  16.982  0.00  0.00    +0.000 A 
ATOM     28  C   UNL     1       5.184   4.006  16.261  0.00  0.00    +0.000 A 
ATOM     29  N   UNL     1       4.839   2.980  17.072  0.00  0.00    +0.000 N 
ATOM     30  N   UNL     1       4.458   3.373  18.290  0.00  0.00    +0.000 NA
ATOM     31  C   UNL     1       4.547   4.712  18.262  0.00  0.00    +0.000 A 
ATOM     32  H   UNL     1       4.829   1.984  16.871  0.00  0.00    +0.000 HD
ENDBRANCH  25  31
ENDBRANCH  21  25
ENDBRANCH   1  21
TORSDOF 5
ENDMDL
MODEL 5
REMARK VINA RESULT:      -8.0      3.990      8.174
REMARK  Name = 
REMARK  6 active torsions:
REMARK  status: ('A' for Active; 'I' for Inactive)
REMARK    1  A    between atoms: C_1  and  C_2
REMARK    2  A    between atoms: C_6  and  C_7
REMARK    3  A    between atoms: C_7  and  C_8
REMARK    4  A    between atoms: C_8  and  C_9
REMARK    5  A    between atoms: C_13  and  N_14
REMARK    6  A    between atoms: C_19  and  C_20
REMARK                            x       y       z     vdW  Elec       q    Type
REMARK                         _______ _______ _______ _____ _____    ______ ____
ROOT
ATOM      1  C   UNL     1       1.670   8.282  19.562  0.00  0.00    +0.000 A 
ATOM      2  C   UNL     1       2.279   8.762  18.385  0.00  0.00    +0.000 A 
ATOM      3  C   UNL     1       2.741   7.906  17.387  0.00  0.00    +0.000 A 
ATOM      4  C   UNL     1       2.746   6.538  17.604  0.00  0.00    +0.000 A 
ATOM      5  C   UNL     1       2.442   6.061  18.884  0.00  0.00    +0.000 A 
ATOM      6  C   UNL     1       1.731   6.888  19.761  0.00  0.00    +0.000 A 
ENDROOT
BRANCH   5   7
ATOM      7  N   UNL     1       3.293   5.032  19.485  0.00  0.00    +0.000 N 
ATOM      8  C   UNL     1       4.642   5.597  19.760  0.00  0.00    +0.000 C 
ATOM      9  C   UNL     1       5.345   5.333  18.466  0.00  0.00    +0.000 A 
ATOM     10  C   UNL     1       6.160   6.167  17.722  0.00  0.00    +0.000 A 
ATOM     11  C   UNL     1       6.394   5.826  16.384  0.00  0.00    +0.000 A 
ATOM     12  C   UNL     1       5.835   4.658  15.807  0.00  0.00    +0.000 A 
ATOM     13  C   UNL     1       5.021   3.817  16.587  0.00  0.00    +0.000 A 
ATOM     14  C   UNL     1       4.775   4.196  17.895  0.00  0.00    +0.000 A 
ATOM     15  C   UNL     1       3.539   3.896  18.662  0.00  0.00    +0.000 C 
ATOM     16  O   UNL     1       2.802   2.955  18.429  0.00  0.00    +0.000 OA
BRANCH  12  17
ATOM     17  C   UNL     1       6.004   4.360  14.335  0.00  0.00    +0.000 C 
ATOM     18  F   UNL     1       6.411   3.085  14.081  0.00  0.00    +0.000 F 
ATOM     19  F   UNL     1       4.849   4.532  13.635  0.00  0.00    +0.000 F 
ATOM     20  F   UNL     1       6.928   5.168  13.745  0.00  0.00    +0.000 F 
ENDBRANCH  12  17
ENDBRANCH   5   7
BRANCH   1  21
ATOM     21  C   UNL     1       0.956   9.257  20.630  0.00  0.00    +0.000 C 
ATOM     22  C   UNL     1      -0.327   8.775  21.362  0.00  0.00    +0.000 C 
ATOM     23  O   UNL     1       0.373   8.615  22.615  0.00  0.00    +0.000 OA
ATOM     24  C   UNL     1       1.586   9.143  22.043  0.00  0.00    +0.000 C 
BRANCH  21  25
ATOM     25  C   UNL     1       0.859  10.724  20.131  0.00  0.00    +0.000 C 
BRANCH  25  31
ATOM     26  C   UNL     1      -1.163   9.979  17.575  0.00  0.00    +0.000 C 
ATOM     27  C   UNL     1      -1.378  10.898  18.720  0.00  0.00    +0.000 A 
ATOM     28  C   UNL     1      -2.497  11.679  18.925  0.00  0.00    +0.000 A 
ATOM     29  N   UNL     1      -2.271  12.400  20.046  0.00  0.00    +0.000 N 
ATOM     30  N   UNL     1      -1.095  12.132  20.619  0.00  0.00    +0.000 NA
ATOM     31  C   UNL     1      -0.530  11.208  19.827  0.00  0.00    +0.000 A 
ATOM     32  H   UNL     1      -2.863  13.100  20.484  0.00  0.00    +0.000 HD
ENDBRANCH  25  31
ENDBRANCH  21  25
ENDBRANCH   1  21
TORSDOF 5
ENDMDL
MODEL 6
REMARK VINA RESULT:      -7.9      4.694      7.931
REMARK  Name = 
REMARK  6 active torsions:
REMARK  status: ('A' for Active; 'I' for Inactive)
REMARK    1  A    between atoms: C_1  and  C_2
REMARK    2  A    between atoms: C_6  and  C_7
REMARK    3  A    between atoms: C_7  and  C_8
REMARK    4  A    between atoms: C_8  and  C_9
REMARK    5  A    between atoms: C_13  and  N_14
REMARK    6  A    between atoms: C_19  and  C_20
REMARK                            x       y       z     vdW  Elec       q    Type
REMARK                         _______ _______ _______ _____ _____    ______ ____
ROOT
ATOM      1  C   UNL     1       3.229   4.041  19.419  0.00  0.00    +0.000 A 
ATOM      2  C   UNL     1       2.876   3.480  18.175  0.00  0.00    +0.000 A 
ATOM      3  C   UNL     1       3.829   3.002  17.279  0.00  0.00    +0.000 A 
ATOM      4  C   UNL     1       5.175   3.210  17.533  0.00  0.00    +0.000 A 
ATOM      5  C   UNL     1       5.536   4.040  18.601  0.00  0.00    +0.000 A 
ATOM      6  C   UNL     1       4.605   4.269  19.620  0.00  0.00    +0.000 A 
ENDROOT
BRANCH   5   7
ATOM      7  N   UNL     1       6.563   5.063  18.396  0.00  0.00    +0.000 N 
ATOM      8  C   UNL     1       5.937   6.296  17.846  0.00  0.00    +0.000 C 
ATOM      9  C   UNL     1       5.998   6.031  16.375  0.00  0.00    +0.000 A 
ATOM     10  C   UNL     1       5.026   6.215  15.408  0.00  0.00    +0.000 A 
ATOM     11  C   UNL     1       5.191   5.556  14.184  0.00  0.00    +0.000 A 
ATOM     12  C   UNL     1       6.323   4.740  13.927  0.00  0.00    +0.000 A 
ATOM     13  C   UNL     1       7.305   4.580  14.921  0.00  0.00    +0.000 A 
ATOM     14  C   UNL     1       7.099   5.212  16.135  0.00  0.00    +0.000 A 
ATOM     15  C   UNL     1       7.574   4.722  17.454  0.00  0.00    +0.000 C 
ATOM     16  O   UNL     1       8.534   3.986  17.604  0.00  0.00    +0.000 OA
BRANCH  12  17
ATOM     17  C   UNL     1       6.434   3.947  12.647  0.00  0.00    +0.000 C 
ATOM     18  F   UNL     1       5.292   3.950  11.903  0.00  0.00    +0.000 F 
ATOM     19  F   UNL     1       7.416   4.415  11.828  0.00  0.00    +0.000 F 
ATOM     20  F   UNL     1       6.724   2.635  12.872  0.00  0.00    +0.000 F 
ENDBRANCH  12  17
ENDBRANCH   5   7
BRANCH   1  21
ATOM     21  C   UNL     1       2.137   4.415  20.545  0.00  0.00    +0.000 C 
ATOM     22  C   UNL     1       0.642   4.073  20.298  0.00  0.00    +0.000 C 
ATOM     23  O   UNL     1       0.659   3.009  21.274  0.00  0.00    +0.000 OA
ATOM     24  C   UNL     1       2.019   3.319  21.636  0.00  0.00    +0.000 C 
BRANCH  21  25
ATOM     25  C   UNL     1       2.348   5.834  21.138  0.00  0.00    +0.000 C 
BRANCH  25  31
ATOM     26  C   UNL     1       0.758   8.737  21.611  0.00  0.00    +0.000 C 
ATOM     27  C   UNL     1       1.411   8.198  20.391  0.00  0.00    +0.000 A 
ATOM     28  C   UNL     1       1.447   8.818  19.159  0.00  0.00    +0.000 A 
ATOM     29  N   UNL     1       2.088   7.975  18.317  0.00  0.00    +0.000 N 
ATOM     30  N   UNL     1       2.508   6.854  18.909  0.00  0.00    +0.000 NA
ATOM     31  C   UNL     1       2.110   6.970  20.185  0.00  0.00    +0.000 A 
ATOM     32  H   UNL     1       2.275   8.086  17.325  0.00  0.00    +0.000 HD
ENDBRANCH  25  31
ENDBRANCH  21  25
ENDBRANCH   1  21
TORSDOF 5
ENDMDL
MODEL 7
REMARK VINA RESULT:      -7.9      5.147      9.357
REMARK  Name = 
REMARK  6 active torsions:
REMARK  status: ('A' for Active; 'I' for Inactive)
REMARK    1  A    between atoms: C_1  and  C_2
REMARK    2  A    between atoms: C_6  and  C_7
REMARK    3  A    between atoms: C_7  and  C_8
REMARK    4  A    between atoms: C_8  and  C_9
REMARK    5  A    between atoms: C_13  and  N_14
REMARK    6  A    between atoms: C_19  and  C_20
REMARK                            x       y       z     vdW  Elec       q    Type
REMARK                         _______ _______ _______ _____ _____    ______ ____
ROOT
ATOM      1  C   UNL     1      -3.560  11.383  18.234  0.00  0.00    +0.000 A 
ATOM      2  C   UNL     1      -3.212  11.097  16.899  0.00  0.00    +0.000 A 
ATOM      3  C   UNL     1      -2.082  10.351  16.570  0.00  0.00    +0.000 A 
ATOM      4  C   UNL     1      -1.181   9.999  17.562  0.00  0.00    +0.000 A 
ATOM      5  C   UNL     1      -1.344  10.542  18.841  0.00  0.00    +0.000 A 
ATOM      6  C   UNL     1      -2.599  11.042  19.206  0.00  0.00    +0.000 A 
ENDROOT
BRANCH   5   7
ATOM      7  N   UNL     1      -0.181  11.095  19.537  0.00  0.00    +0.000 N 
ATOM      8  C   UNL     1       0.968  11.188  18.595  0.00  0.00    +0.000 C 
ATOM      9  C   UNL     1       1.594   9.839  18.755  0.00  0.00    +0.000 A 
ATOM     10  C   UNL     1       2.062   8.967  17.788  0.00  0.00    +0.000 A 
ATOM     11  C   UNL     1       2.260   7.631  18.156  0.00  0.00    +0.000 A 
ATOM     12  C   UNL     1       2.010   7.180  19.477  0.00  0.00    +0.000 A 
ATOM     13  C   UNL     1       1.548   8.088  20.447  0.00  0.00    +0.000 A 
ATOM     14  C   UNL     1       1.325   9.394  20.048  0.00  0.00    +0.000 A 
ATOM     15  C   UNL     1       0.305  10.308  20.620  0.00  0.00    +0.000 C 
ATOM     16  O   UNL     1      -0.148  10.208  21.747  0.00  0.00    +0.000 OA
BRANCH  12  17
ATOM     17  C   UNL     1       2.120   5.716  19.833  0.00  0.00    +0.000 C 
ATOM     18  F   UNL     1       1.130   5.282  20.663  0.00  0.00    +0.000 F 
ATOM     19  F   UNL     1       2.071   4.909  18.737  0.00  0.00    +0.000 F 
ATOM     20  F   UNL     1       3.289   5.422  20.467  0.00  0.00    +0.000 F 
ENDBRANCH  12  17
ENDBRANCH   5   7
BRANCH   1  21
ATOM     21  C   UNL     1      -4.963  12.071  18.638  0.00  0.00    +0.000 C 
ATOM     22  C   UNL     1      -5.969  12.457  17.520  0.00  0.00    +0.000 C 
ATOM     23  O   UNL     1      -6.874  11.392  17.881  0.00  0.00    +0.000 OA
ATOM     24  C   UNL     1      -6.047  11.023  19.002  0.00  0.00    +0.000 C 
BRANCH  21  25
ATOM     25  C   UNL     1      -4.801  13.171  19.721  0.00  0.00    +0.000 C 
BRANCH  25  31
ATOM     26  C   UNL     1      -7.915  13.959  20.648  0.00  0.00    +0.000 C 
ATOM     27  C   UNL     1      -6.843  13.267  21.408  0.00  0.00    +0.000 A 
ATOM     28  C   UNL     1      -6.935  12.836  22.715  0.00  0.00    +0.000 A 
ATOM     29  N   UNL     1      -5.732  12.308  23.037  0.00  0.00    +0.000 N 
ATOM     30  N   UNL     1      -4.858  12.330  22.028  0.00  0.00    +0.000 NA
ATOM     31  C   UNL     1      -5.518  12.908  21.014  0.00  0.00    +0.000 A 
ATOM     32  H   UNL     1      -5.425  11.919  23.923  0.00  0.00    +0.000 HD
ENDBRANCH  25  31
ENDBRANCH  21  25
ENDBRANCH   1  21
TORSDOF 5
ENDMDL
MODEL 8
REMARK VINA RESULT:      -7.9      2.577      3.296
REMARK  Name = 
REMARK  6 active torsions:
REMARK  status: ('A' for Active; 'I' for Inactive)
REMARK    1  A    between atoms: C_1  and  C_2
REMARK    2  A    between atoms: C_6  and  C_7
REMARK    3  A    between atoms: C_7  and  C_8
REMARK    4  A    between atoms: C_8  and  C_9
REMARK    5  A    between atoms: C_13  and  N_14
REMARK    6  A    between atoms: C_19  and  C_20
REMARK                            x       y       z     vdW  Elec       q    Type
REMARK                         _______ _______ _______ _____ _____    ______ ____
ROOT
ATOM      1  C   UNL     1       2.633   4.585  19.059  0.00  0.00    +0.000 A 
ATOM      2  C   UNL     1       2.343   4.323  20.414  0.00  0.00    +0.000 A 
ATOM      3  C   UNL     1       1.626   5.217  21.206  0.00  0.00    +0.000 A 
ATOM      4  C   UNL     1       1.309   6.471  20.709  0.00  0.00    +0.000 A 
ATOM      5  C   UNL     1       1.860   6.868  19.486  0.00  0.00    +0.000 A 
ATOM      6  C   UNL     1       2.328   5.884  18.607  0.00  0.00    +0.000 A 
ENDROOT
BRANCH   5   7
ATOM      7  N   UNL     1       2.453   8.201  19.367  0.00  0.00    +0.000 N 
ATOM      8  C   UNL     1       1.958   9.069  20.470  0.00  0.00    +0.000 C 
ATOM      9  C   UNL     1       0.714   9.638  19.866  0.00  0.00    +0.000 A 
ATOM     10  C   UNL     1      -0.544   9.789  20.422  0.00  0.00    +0.000 A 
ATOM     11  C   UNL     1      -1.621  10.000  19.552  0.00  0.00    +0.000 A 
ATOM     12  C   UNL     1      -1.436  10.077  18.147  0.00  0.00    +0.000 A 
ATOM     13  C   UNL     1      -0.146   9.935  17.606  0.00  0.00    +0.000 A 
ATOM     14  C   UNL     1       0.895   9.690  18.485  0.00  0.00    +0.000 A 
ATOM     15  C   UNL     1       2.118   8.906  18.176  0.00  0.00    +0.000 C 
ATOM     16  O   UNL     1       2.569   8.757  17.054  0.00  0.00    +0.000 OA
BRANCH  12  17
ATOM     17  C   UNL     1      -2.618  10.193  17.213  0.00  0.00    +0.000 C 
ATOM     18  F   UNL     1      -3.695   9.455  17.605  0.00  0.00    +0.000 F 
ATOM     19  F   UNL     1      -3.063  11.474  17.094  0.00  0.00    +0.000 F 
ATOM     20  F   UNL     1      -2.324   9.775  15.950  0.00  0.00    +0.000 F 
ENDBRANCH  12  17
ENDBRANCH   5   7
BRANCH   1  21
ATOM     21  C   UNL     1       3.285   3.481  18.081  0.00  0.00    +0.000 C 
ATOM     22  C   UNL     1       3.946   2.216  18.695  0.00  0.00    +0.000 C 
ATOM     23  O   UNL     1       2.872   1.361  18.248  0.00  0.00    +0.000 OA
ATOM     24  C   UNL     1       2.236   2.461  17.566  0.00  0.00    +0.000 C 
BRANCH  21  25
ATOM     25  C   UNL     1       4.122   4.113  16.937  0.00  0.00    +0.000 C 
BRANCH  25  31
ATOM     26  C   UNL     1       6.739   4.401  14.877  0.00  0.00    +0.000 C 
ATOM     27  C   UNL     1       6.689   4.428  16.360  0.00  0.00    +0.000 A 
ATOM     28  C   UNL     1       7.779   4.547  17.198  0.00  0.00    +0.000 A 
ATOM     29  N   UNL     1       7.307   4.478  18.464  0.00  0.00    +0.000 N 
ATOM     30  N   UNL     1       5.979   4.353  18.527  0.00  0.00    +0.000 NA
ATOM     31  C   UNL     1       5.575   4.326  17.248  0.00  0.00    +0.000 A 
ATOM     32  H   UNL     1       7.823   4.502  19.338  0.00  0.00    +0.000 HD
ENDBRANCH  25  31
ENDBRANCH  21  25
ENDBRANCH   1  21
TORSDOF 5
ENDMDL
MODEL 9
REMARK VINA RESULT:      -7.8      1.096      1.283
REMARK  Name = 
REMARK  6 active torsions:
REMARK  status: ('A' for Active; 'I' for Inactive)
REMARK    1  A    between atoms: C_1  and  C_2
REMARK    2  A    between atoms: C_6  and  C_7
REMARK    3  A    between atoms: C_7  and  C_8
REMARK    4  A    between atoms: C_8  and  C_9
REMARK    5  A    between atoms: C_13  and  N_14
REMARK    6  A    between atoms: C_19  and  C_20
REMARK                            x       y       z     vdW  Elec       q    Type
REMARK                         _______ _______ _______ _____ _____    ______ ____
ROOT
ATOM      1  C   UNL     1       2.128   5.358  19.339  0.00  0.00    +0.000 A 
ATOM      2  C   UNL     1       2.065   6.110  18.148  0.00  0.00    +0.000 A 
ATOM      3  C   UNL     1       2.139   7.502  18.144  0.00  0.00    +0.000 A 
ATOM      4  C   UNL     1       2.123   8.192  19.344  0.00  0.00    +0.000 A 
ATOM      5  C   UNL     1       1.867   7.484  20.523  0.00  0.00    +0.000 A 
ATOM      6  C   UNL     1       2.071   6.099  20.536  0.00  0.00    +0.000 A 
ENDROOT
BRANCH   5   7
ATOM      7  N   UNL     1       0.904   8.021  21.486  0.00  0.00    +0.000 N 
ATOM      8  C   UNL     1      -0.411   8.225  20.819  0.00  0.00    +0.000 C 
ATOM      9  C   UNL     1      -0.263   9.615  20.286  0.00  0.00    +0.000 A 
ATOM     10  C   UNL     1      -0.592  10.119  19.040  0.00  0.00    +0.000 A 
ATOM     11  C   UNL     1      -0.025  11.341  18.661  0.00  0.00    +0.000 A 
ATOM     12  C   UNL     1       0.844  12.057  19.525  0.00  0.00    +0.000 A 
ATOM     13  C   UNL     1       1.152  11.531  20.792  0.00  0.00    +0.000 A 
ATOM     14  C   UNL     1       0.609  10.303  21.128  0.00  0.00    +0.000 A 
ATOM     15  C   UNL     1       1.236   9.298  22.023  0.00  0.00    +0.000 C 
ATOM     16  O   UNL     1       2.046   9.568  22.892  0.00  0.00    +0.000 OA
BRANCH  12  17
ATOM     17  C   UNL     1       1.536  13.317  19.061  0.00  0.00    +0.000 C 
ATOM     18  F   UNL     1       2.302  13.902  20.025  0.00  0.00    +0.000 F 
ATOM     19  F   UNL     1       2.365  13.096  18.005  0.00  0.00    +0.000 F 
ATOM     20  F   UNL     1       0.655  14.274  18.658  0.00  0.00    +0.000 F 
ENDBRANCH  12  17
ENDBRANCH   5   7
BRANCH   1  21
ATOM     21  C   UNL     1       2.243   3.749  19.345  0.00  0.00    +0.000 C 
ATOM     22  C   UNL     1       1.325   2.925  20.289  0.00  0.00    +0.000 C 
ATOM     23  O   UNL     1       0.525   2.439  19.190  0.00  0.00    +0.000 OA
ATOM     24  C   UNL     1       1.381   3.095  18.234  0.00  0.00    +0.000 C 
BRANCH  21  25
ATOM     25  C   UNL     1       3.714   3.253  19.337  0.00  0.00    +0.000 C 
BRANCH  25  31
ATOM     26  C   UNL     1       6.237   5.446  19.342  0.00  0.00    +0.000 C 
ATOM     27  C   UNL     1       5.618   4.712  18.210  0.00  0.00    +0.000 A 
ATOM     28  C   UNL     1       5.970   4.840  16.882  0.00  0.00    +0.000 A 
ATOM     29  N   UNL     1       5.134   4.042  16.179  0.00  0.00    +0.000 N 
ATOM     30  N   UNL     1       4.274   3.369  16.947  0.00  0.00    +0.000 NA
ATOM     31  C   UNL     1       4.555   3.759  18.200  0.00  0.00    +0.000 A 
ATOM     32  H   UNL     1       5.081   3.903  15.174  0.00  0.00    +0.000 HD
ENDBRANCH  25  31
ENDBRANCH  21  25
ENDBRANCH   1  21
TORSDOF 5
ENDMDL
