MODEL 1
REMARK VINA RESULT:      -8.8      0.000      0.000
REMARK  Name = 
REMARK  8 active torsions:
REMARK  status: ('A' for Active; 'I' for Inactive)
REMARK    1  A    between atoms: C_1  and  N_2
REMARK    2  A    between atoms: C_6  and  C_7
REMARK    3  A    between atoms: C_7  and  C_8
REMARK    4  A    between atoms: C_12  and  N_13
REMARK    5  A    between atoms: C_18  and  C_19
REMARK    6  A    between atoms: C_19  and  N_20
REMARK    7  A    between atoms: N_20  and  C_21
REMARK    8  A    between atoms: C_25  and  C_26
REMARK                            x       y       z     vdW  Elec       q    Type
REMARK                         _______ _______ _______ _____ _____    ______ ____
ROOT
ATOM      1  N   UNL     1       4.122   4.666  19.104  0.00  0.00    +0.000 N 
ATOM      2  C   UNL     1       5.444   5.303  19.307  0.00  0.00    +0.000 C 
ATOM      3  C   UNL     1       6.052   5.207  17.938  0.00  0.00    +0.000 A 
ATOM      4  C   UNL     1       5.499   4.085  17.315  0.00  0.00    +0.000 A 
ATOM      5  C   UNL     1       5.744   3.755  15.995  0.00  0.00    +0.000 A 
ATOM      6  C   UNL     1       6.537   4.627  15.232  0.00  0.00    +0.000 A 
ATOM      7  C   UNL     1       7.084   5.776  15.857  0.00  0.00    +0.000 A 
ATOM      8  C   UNL     1       6.845   6.093  17.216  0.00  0.00    +0.000 A 
ATOM      9  C   UNL     1       4.354   3.635  18.155  0.00  0.00    +0.000 C 
ATOM     10  O   UNL     1       3.654   2.683  17.878  0.00  0.00    +0.000 OA
ENDROOT
BRANCH   1  15
ATOM     11  C   UNL     1       1.962   7.508  19.789  0.00  0.00    +0.000 A 
ATOM     12  C   UNL     1       2.525   8.371  18.838  0.00  0.00    +0.000 A 
ATOM     13  C   UNL     1       3.197   7.863  17.730  0.00  0.00    +0.000 A 
ATOM     14  C   UNL     1       3.419   6.497  17.619  0.00  0.00    +0.000 A 
ATOM     15  C   UNL     1       3.134   5.673  18.716  0.00  0.00    +0.000 A 
ATOM     16  C   UNL     1       2.249   6.136  19.699  0.00  0.00    +0.000 A 
BRANCH  11  17
ATOM     17  C   UNL     1       1.038   8.066  20.848  0.00  0.00    +0.000 C 
BRANCH  17  23
ATOM     18  C   UNL     1      -0.810   9.862  19.029  0.00  0.00    +0.000 C 
ATOM     19  N   UNL     1       0.061  10.301  20.085  0.00  0.00    +0.000 N 
ATOM     20  C   UNL     1       0.185  11.586  20.517  0.00  0.00    +0.000 A 
ATOM     21  N   UNL     1       1.052  11.639  21.498  0.00  0.00    +0.000 NA
ATOM     22  N   UNL     1       1.500  10.362  21.723  0.00  0.00    +0.000 NA
ATOM     23  C   UNL     1       0.897   9.551  20.874  0.00  0.00    +0.000 A 
ENDBRANCH  17  23
ENDBRANCH  11  17
ENDBRANCH   1  15
BRANCH   8  24
ATOM     24  C   UNL     1       7.346   7.404  17.763  0.00  0.00    +0.000 C 
ATOM     25  F   UNL     1       8.037   7.310  18.931  0.00  0.00    +0.000 F 
ATOM     26  F   UNL     1       8.180   8.043  16.896  0.00  0.00    +0.000 F 
ATOM     27  F   UNL     1       6.332   8.284  18.015  0.00  0.00    +0.000 F 
ENDBRANCH   8  24
BRANCH   6  28
ATOM     28  C   UNL     1       6.811   4.376  13.754  0.00  0.00    +0.000 C 
BRANCH  28  29
ATOM     29  N   UNL     1       6.301   3.083  13.283  0.00  0.00    +0.000 NA
ATOM     30  H   UNL     1       5.486   2.837  13.844  0.00  0.00    +0.000 HD
BRANCH  29  31
ATOM     31  C   UNL     1       5.949   3.092  11.860  0.00  0.00    +0.000 C 
ATOM     32  C   UNL     1       4.490   3.024  11.501  0.00  0.00    +0.000 C 
ATOM     33  C   UNL     1       5.385   1.849  11.234  0.00  0.00    +0.000 C 
ENDBRANCH  29  31
ENDBRANCH  28  29
ENDBRANCH   6  28
TORSDOF 7
ENDMDL
MODEL 2
REMARK VINA RESULT:      -8.6      0.782      1.175
REMARK  Name = 
REMARK  8 active torsions:
REMARK  status: ('A' for Active; 'I' for Inactive)
REMARK    1  A    between atoms: C_1  and  N_2
REMARK    2  A    between atoms: C_6  and  C_7
REMARK    3  A    between atoms: C_7  and  C_8
REMARK    4  A    between atoms: C_12  and  N_13
REMARK    5  A    between atoms: C_18  and  C_19
REMARK    6  A    between atoms: C_19  and  N_20
REMARK    7  A    between atoms: N_20  and  C_21
REMARK    8  A    between atoms: C_25  and  C_26
REMARK                            x       y       z     vdW  Elec       q    Type
REMARK                         _______ _______ _______ _____ _____    ______ ____
ROOT
ATOM      1  N   UNL     1       4.038   4.422  19.088  0.00  0.00    +0.000 N 
ATOM      2  C   UNL     1       5.382   5.027  19.243  0.00  0.00    +0.000 C 
ATOM      3  C   UNL     1       5.929   4.938  17.848  0.00  0.00    +0.000 A 
ATOM      4  C   UNL     1       5.325   3.837  17.234  0.00  0.00    +0.000 A 
ATOM      5  C   UNL     1       5.506   3.521  15.900  0.00  0.00    +0.000 A 
ATOM      6  C   UNL     1       6.285   4.387  15.116  0.00  0.00    +0.000 A 
ATOM      7  C   UNL     1       6.883   5.515  15.733  0.00  0.00    +0.000 A 
ATOM      8  C   UNL     1       6.710   5.817  17.105  0.00  0.00    +0.000 A 
ATOM      9  C   UNL     1       4.207   3.400  18.115  0.00  0.00    +0.000 C 
ATOM     10  O   UNL     1       3.474   2.467  17.856  0.00  0.00    +0.000 OA
ENDROOT
BRANCH   1  15
ATOM     11  C   UNL     1       2.143   7.434  19.824  0.00  0.00    +0.000 A 
ATOM     12  C   UNL     1       2.608   8.188  18.736  0.00  0.00    +0.000 A 
ATOM     13  C   UNL     1       3.091   7.557  17.593  0.00  0.00    +0.000 A 
ATOM     14  C   UNL     1       3.226   6.176  17.566  0.00  0.00    +0.000 A 
ATOM     15  C   UNL     1       3.057   5.455  18.756  0.00  0.00    +0.000 A 
ATOM     16  C   UNL     1       2.345   6.045  19.810  0.00  0.00    +0.000 A 
BRANCH  11  17
ATOM     17  C   UNL     1       1.407   8.126  20.949  0.00  0.00    +0.000 C 
BRANCH  17  23
ATOM     18  C   UNL     1      -0.396   9.918  22.817  0.00  0.00    +0.000 C 
ATOM     19  N   UNL     1      -0.219  10.046  21.396  0.00  0.00    +0.000 N 
ATOM     20  C   UNL     1      -0.770  11.022  20.622  0.00  0.00    +0.000 A 
ATOM     21  N   UNL     1      -0.401  10.854  19.375  0.00  0.00    +0.000 NA
ATOM     22  N   UNL     1       0.417   9.754  19.330  0.00  0.00    +0.000 NA
ATOM     23  C   UNL     1       0.533   9.268  20.552  0.00  0.00    +0.000 A 
ENDBRANCH  17  23
ENDBRANCH  11  17
ENDBRANCH   1  15
BRANCH   8  24
ATOM     24  C   UNL     1       7.262   7.109  17.648  0.00  0.00    +0.000 C 
ATOM     25  F   UNL     1       7.914   6.997  18.837  0.00  0.00    +0.000 F 
ATOM     26  F   UNL     1       8.152   7.691  16.797  0.00  0.00    +0.000 F 
ATOM     27  F   UNL     1       6.289   8.043  17.859  0.00  0.00    +0.000 F 
ENDBRANCH   8  24
BRANCH   6  28
ATOM     28  C   UNL     1       6.490   4.152  13.625  0.00  0.00    +0.000 C 
BRANCH  28  29
ATOM     29  N   UNL     1       5.831   2.937  13.135  0.00  0.00    +0.000 NA
ATOM     30  H   UNL     1       4.836   3.004  13.348  0.00  0.00    +0.000 HD
BRANCH  29  31
ATOM     31  C   UNL     1       6.025   2.721  11.698  0.00  0.00    +0.000 C 
ATOM     32  C   UNL     1       6.020   1.302  11.198  0.00  0.00    +0.000 C 
ATOM     33  C   UNL     1       7.298   2.088  11.214  0.00  0.00    +0.000 C 
ENDBRANCH  29  31
ENDBRANCH  28  29
ENDBRANCH   6  28
TORSDOF 7
ENDMDL
MODEL 3
REMARK VINA RESULT:      -8.2      0.705      1.357
REMARK  Name = 
REMARK  8 active torsions:
REMARK  status: ('A' for Active; 'I' for Inactive)
REMARK    1  A    between atoms: C_1  and  N_2
REMARK    2  A    between atoms: C_6  and  C_7
REMARK    3  A    between atoms: C_7  and  C_8
REMARK    4  A    between atoms: C_12  and  N_13
REMARK    5  A    between atoms: C_18  and  C_19
REMARK    6  A    between atoms: C_19  and  N_20
REMARK    7  A    between atoms: N_20  and  C_21
REMARK    8  A    between atoms: C_25  and  C_26
REMARK                            x       y       z     vdW  Elec       q    Type
REMARK                         _______ _______ _______ _____ _____    ______ ____
ROOT
ATOM      1  N   UNL     1       3.904   4.940  19.041  0.00  0.00    +0.000 N 
ATOM      2  C   UNL     1       5.250   5.510  19.288  0.00  0.00    +0.000 C 
ATOM      3  C   UNL     1       5.914   5.338  17.952  0.00  0.00    +0.000 A 
ATOM      4  C   UNL     1       5.327   4.228  17.337  0.00  0.00    +0.000 A 
ATOM      5  C   UNL     1       5.613   3.843  16.040  0.00  0.00    +0.000 A 
ATOM      6  C   UNL     1       6.488   4.646  15.290  0.00  0.00    +0.000 A 
ATOM      7  C   UNL     1       7.069   5.783  15.907  0.00  0.00    +0.000 A 
ATOM      8  C   UNL     1       6.787   6.155  17.243  0.00  0.00    +0.000 A 
ATOM      9  C   UNL     1       4.122   3.868  18.134  0.00  0.00    +0.000 C 
ATOM     10  O   UNL     1       3.383   2.947  17.853  0.00  0.00    +0.000 OA
ENDROOT
BRANCH   1  15
ATOM     11  C   UNL     1       2.048   8.034  19.475  0.00  0.00    +0.000 A 
ATOM     12  C   UNL     1       2.638   8.727  18.408  0.00  0.00    +0.000 A 
ATOM     13  C   UNL     1       3.205   8.036  17.341  0.00  0.00    +0.000 A 
ATOM     14  C   UNL     1       3.297   6.651  17.381  0.00  0.00    +0.000 A 
ATOM     15  C   UNL     1       2.994   5.986  18.577  0.00  0.00    +0.000 A 
ATOM     16  C   UNL     1       2.205   6.640  19.534  0.00  0.00    +0.000 A 
BRANCH  11  17
ATOM     17  C   UNL     1       1.232   8.793  20.496  0.00  0.00    +0.000 C 
BRANCH  17  23
ATOM     18  C   UNL     1       1.507  11.931  20.666  0.00  0.00    +0.000 C 
ATOM     19  N   UNL     1       0.463  11.183  20.019  0.00  0.00    +0.000 N 
ATOM     20  C   UNL     1      -0.566  11.725  19.311  0.00  0.00    +0.000 A 
ATOM     21  N   UNL     1      -1.331  10.767  18.846  0.00  0.00    +0.000 NA
ATOM     22  N   UNL     1      -0.789   9.572  19.248  0.00  0.00    +0.000 NA
ATOM     23  C   UNL     1       0.299   9.822  19.952  0.00  0.00    +0.000 A 
ENDBRANCH  17  23
ENDBRANCH  11  17
ENDBRANCH   1  15
BRANCH   8  24
ATOM     24  C   UNL     1       7.335   7.454  17.774  0.00  0.00    +0.000 C 
ATOM     25  F   UNL     1       6.397   8.398  18.054  0.00  0.00    +0.000 F 
ATOM     26  F   UNL     1       8.040   7.286  18.927  0.00  0.00    +0.000 F 
ATOM     27  F   UNL     1       8.197   8.052  16.900  0.00  0.00    +0.000 F 
ENDBRANCH   8  24
BRANCH   6  28
ATOM     28  C   UNL     1       6.815   4.334  13.835  0.00  0.00    +0.000 C 
BRANCH  28  29
ATOM     29  N   UNL     1       6.199   3.090  13.359  0.00  0.00    +0.000 NA
ATOM     30  H   UNL     1       5.335   2.940  13.880  0.00  0.00    +0.000 HD
BRANCH  29  31
ATOM     31  C   UNL     1       5.923   3.104  11.919  0.00  0.00    +0.000 C 
ATOM     32  C   UNL     1       4.484   3.085  11.483  0.00  0.00    +0.000 C 
ATOM     33  C   UNL     1       5.350   1.879  11.268  0.00  0.00    +0.000 C 
ENDBRANCH  29  31
ENDBRANCH  28  29
ENDBRANCH   6  28
TORSDOF 7
ENDMDL
MODEL 4
REMARK VINA RESULT:      -8.2      1.180      1.705
REMARK  Name = 
REMARK  8 active torsions:
REMARK  status: ('A' for Active; 'I' for Inactive)
REMARK    1  A    between atoms: C_1  and  N_2
REMARK    2  A    between atoms: C_6  and  C_7
REMARK    3  A    between atoms: C_7  and  C_8
REMARK    4  A    between atoms: C_12  and  N_13
REMARK    5  A    between atoms: C_18  and  C_19
REMARK    6  A    between atoms: C_19  and  N_20
REMARK    7  A    between atoms: N_20  and  C_21
REMARK    8  A    between atoms: C_25  and  C_26
REMARK                            x       y       z     vdW  Elec       q    Type
REMARK                         _______ _______ _______ _____ _____    ______ ____
ROOT
ATOM      1  N   UNL     1       3.022   3.877  18.794  0.00  0.00    +0.000 N 
ATOM      2  C   UNL     1       4.393   4.014  19.340  0.00  0.00    +0.000 C 
ATOM      3  C   UNL     1       5.216   4.150  18.092  0.00  0.00    +0.000 A 
ATOM      4  C   UNL     1       4.542   3.470  17.074  0.00  0.00    +0.000 A 
ATOM      5  C   UNL     1       4.954   3.483  15.754  0.00  0.00    +0.000 A 
ATOM      6  C   UNL     1       6.068   4.270  15.417  0.00  0.00    +0.000 A 
ATOM      7  C   UNL     1       6.741   4.976  16.447  0.00  0.00    +0.000 A 
ATOM      8  C   UNL     1       6.325   4.937  17.799  0.00  0.00    +0.000 A 
ATOM      9  C   UNL     1       3.181   3.148  17.585  0.00  0.00    +0.000 C 
ATOM     10  O   UNL     1       2.341   2.564  16.932  0.00  0.00    +0.000 OA
ENDROOT
BRANCH   1  15
ATOM     11  C   UNL     1       2.066   7.143  20.070  0.00  0.00    +0.000 A 
ATOM     12  C   UNL     1       2.775   7.899  19.124  0.00  0.00    +0.000 A 
ATOM     13  C   UNL     1       3.096   7.360  17.882  0.00  0.00    +0.000 A 
ATOM     14  C   UNL     1       2.821   6.026  17.613  0.00  0.00    +0.000 A 
ATOM     15  C   UNL     1       2.402   5.195  18.660  0.00  0.00    +0.000 A 
ATOM     16  C   UNL     1       1.852   5.780  19.810  0.00  0.00    +0.000 A 
BRANCH  11  17
ATOM     17  C   UNL     1       1.521   7.819  21.307  0.00  0.00    +0.000 C 
BRANCH  17  23
ATOM     18  C   UNL     1      -0.002   9.550  23.461  0.00  0.00    +0.000 C 
ATOM     19  N   UNL     1       0.001   9.740  22.035  0.00  0.00    +0.000 N 
ATOM     20  C   UNL     1      -0.621  10.758  21.378  0.00  0.00    +0.000 A 
ATOM     21  N   UNL     1      -0.411  10.643  20.090  0.00  0.00    +0.000 NA
ATOM     22  N   UNL     1       0.373   9.533  19.896  0.00  0.00    +0.000 NA
ATOM     23  C   UNL     1       0.628   8.990  21.072  0.00  0.00    +0.000 A 
ENDBRANCH  17  23
ENDBRANCH  11  17
ENDBRANCH   1  15
BRANCH   8  24
ATOM     24  C   UNL     1       7.009   5.826  18.804  0.00  0.00    +0.000 C 
ATOM     25  F   UNL     1       7.265   7.089  18.369  0.00  0.00    +0.000 F 
ATOM     26  F   UNL     1       6.282   5.973  19.945  0.00  0.00    +0.000 F 
ATOM     27  F   UNL     1       8.218   5.330  19.199  0.00  0.00    +0.000 F 
ENDBRANCH   8  24
BRANCH   6  28
ATOM     28  C   UNL     1       6.557   4.394  13.980  0.00  0.00    +0.000 C 
BRANCH  28  29
ATOM     29  N   UNL     1       6.493   3.130  13.237  0.00  0.00    +0.000 NA
ATOM     30  H   UNL     1       5.929   2.472  13.774  0.00  0.00    +0.000 HD
BRANCH  29  31
ATOM     31  C   UNL     1       5.938   3.288  11.890  0.00  0.00    +0.000 C 
ATOM     32  C   UNL     1       4.443   3.228  11.739  0.00  0.00    +0.000 C 
ATOM     33  C   UNL     1       5.295   2.109  11.216  0.00  0.00    +0.000 C 
ENDBRANCH  29  31
ENDBRANCH  28  29
ENDBRANCH   6  28
TORSDOF 7
ENDMDL
MODEL 5
REMARK VINA RESULT:      -7.9      1.247      1.944
REMARK  Name = 
REMARK  8 active torsions:
REMARK  status: ('A' for Active; 'I' for Inactive)
REMARK    1  A    between atoms: C_1  and  N_2
REMARK    2  A    between atoms: C_6  and  C_7
REMARK    3  A    between atoms: C_7  and  C_8
REMARK    4  A    between atoms: C_12  and  N_13
REMARK    5  A    between atoms: C_18  and  C_19
REMARK    6  A    between atoms: C_19  and  N_20
REMARK    7  A    between atoms: N_20  and  C_21
REMARK    8  A    between atoms: C_25  and  C_26
REMARK                            x       y       z     vdW  Elec       q    Type
REMARK                         _______ _______ _______ _____ _____    ______ ____
ROOT
ATOM      1  N   UNL     1       4.283   3.533  19.281  0.00  0.00    +0.000 N 
ATOM      2  C   UNL     1       5.531   4.332  19.248  0.00  0.00    +0.000 C 
ATOM      3  C   UNL     1       5.803   4.428  17.774  0.00  0.00    +0.000 A 
ATOM      4  C   UNL     1       5.255   3.290  17.176  0.00  0.00    +0.000 A 
ATOM      5  C   UNL     1       5.217   3.100  15.807  0.00  0.00    +0.000 A 
ATOM      6  C   UNL     1       5.697   4.131  14.982  0.00  0.00    +0.000 A 
ATOM      7  C   UNL     1       6.236   5.294  15.588  0.00  0.00    +0.000 A 
ATOM      8  C   UNL     1       6.291   5.469  16.992  0.00  0.00    +0.000 A 
ATOM      9  C   UNL     1       4.404   2.621  18.198  0.00  0.00    +0.000 C 
ATOM     10  O   UNL     1       3.776   1.604  17.986  0.00  0.00    +0.000 OA
ENDROOT
BRANCH   1  15
ATOM     11  C   UNL     1       2.617   6.635  18.384  0.00  0.00    +0.000 A 
ATOM     12  C   UNL     1       1.621   6.058  17.582  0.00  0.00    +0.000 A 
ATOM     13  C   UNL     1       1.244   4.731  17.767  0.00  0.00    +0.000 A 
ATOM     14  C   UNL     1       1.934   3.932  18.668  0.00  0.00    +0.000 A 
ATOM     15  C   UNL     1       3.119   4.418  19.235  0.00  0.00    +0.000 A 
ATOM     16  C   UNL     1       3.348   5.802  19.244  0.00  0.00    +0.000 A 
BRANCH  11  17
ATOM     17  C   UNL     1       2.842   8.130  18.331  0.00  0.00    +0.000 C 
BRANCH  17  23
ATOM     18  C   UNL     1       1.371   8.418  21.107  0.00  0.00    +0.000 C 
ATOM     19  N   UNL     1       1.059   9.104  19.882  0.00  0.00    +0.000 N 
ATOM     20  C   UNL     1       0.093  10.052  19.738  0.00  0.00    +0.000 A 
ATOM     21  N   UNL     1       0.078  10.480  18.499  0.00  0.00    +0.000 NA
ATOM     22  N   UNL     1       1.061   9.808  17.817  0.00  0.00    +0.000 NA
ATOM     23  C   UNL     1       1.659   8.980  18.654  0.00  0.00    +0.000 A 
ENDBRANCH  17  23
ENDBRANCH  11  17
ENDBRANCH   1  15
BRANCH   8  24
ATOM     24  C   UNL     1       6.749   6.791  17.550  0.00  0.00    +0.000 C 
ATOM     25  F   UNL     1       7.204   6.744  18.831  0.00  0.00    +0.000 F 
ATOM     26  F   UNL     1       7.761   7.338  16.822  0.00  0.00    +0.000 F 
ATOM     27  F   UNL     1       5.753   7.725  17.556  0.00  0.00    +0.000 F 
ENDBRANCH   8  24
BRANCH   6  28
ATOM     28  C   UNL     1       5.639   4.036  13.463  0.00  0.00    +0.000 C 
BRANCH  28  29
ATOM     29  N   UNL     1       6.575   3.050  12.910  0.00  0.00    +0.000 NA
ATOM     30  H   UNL     1       6.590   2.240  13.529  0.00  0.00    +0.000 HD
BRANCH  29  31
ATOM     31  C   UNL     1       6.230   2.637  11.547  0.00  0.00    +0.000 C 
ATOM     32  C   UNL     1       5.949   1.178  11.310  0.00  0.00    +0.000 C 
ATOM     33  C   UNL     1       7.200   1.799  10.764  0.00  0.00    +0.000 C 
ENDBRANCH  29  31
ENDBRANCH  28  29
ENDBRANCH   6  28
TORSDOF 7
ENDMDL
MODEL 6
REMARK VINA RESULT:      -7.8      5.642      9.501
REMARK  Name = 
REMARK  8 active torsions:
REMARK  status: ('A' for Active; 'I' for Inactive)
REMARK    1  A    between atoms: C_1  and  N_2
REMARK    2  A    between atoms: C_6  and  C_7
REMARK    3  A    between atoms: C_7  and  C_8
REMARK    4  A    between atoms: C_12  and  N_13
REMARK    5  A    between atoms: C_18  and  C_19
REMARK    6  A    between atoms: C_19  and  N_20
REMARK    7  A    between atoms: N_20  and  C_21
REMARK    8  A    between atoms: C_25  and  C_26
REMARK                            x       y       z     vdW  Elec       q    Type
REMARK                         _______ _______ _______ _____ _____    ______ ____
ROOT
ATOM      1  N   UNL     1      -0.275  14.060  20.507  0.00  0.00    +0.000 N 
ATOM      2  C   UNL     1      -0.701  13.446  19.227  0.00  0.00    +0.000 C 
ATOM      3  C   UNL     1      -0.381  11.996  19.452  0.00  0.00    +0.000 A 
ATOM      4  C   UNL     1       0.687  11.942  20.351  0.00  0.00    +0.000 A 
ATOM      5  C   UNL     1       1.173  10.759  20.877  0.00  0.00    +0.000 A 
ATOM      6  C   UNL     1       0.518   9.565  20.535  0.00  0.00    +0.000 A 
ATOM      7  C   UNL     1      -0.578   9.621  19.637  0.00  0.00    +0.000 A 
ATOM      8  C   UNL     1      -1.054  10.835  19.086  0.00  0.00    +0.000 A 
ATOM      9  C   UNL     1       0.863  13.310  20.910  0.00  0.00    +0.000 C 
ATOM     10  O   UNL     1       1.708  13.595  21.734  0.00  0.00    +0.000 OA
ENDROOT
BRANCH   1  15
ATOM     11  C   UNL     1      -3.729  13.418  21.439  0.00  0.00    +0.000 A 
ATOM     12  C   UNL     1      -3.450  12.548  22.504  0.00  0.00    +0.000 A 
ATOM     13  C   UNL     1      -2.224  12.605  23.162  0.00  0.00    +0.000 A 
ATOM     14  C   UNL     1      -1.222  13.443  22.692  0.00  0.00    +0.000 A 
ATOM     15  C   UNL     1      -1.391  14.073  21.452  0.00  0.00    +0.000 A 
ATOM     16  C   UNL     1      -2.687  14.212  20.934  0.00  0.00    +0.000 A 
BRANCH  11  17
ATOM     17  C   UNL     1      -5.138  13.506  20.899  0.00  0.00    +0.000 C 
BRANCH  17  23
ATOM     18  C   UNL     1      -6.719  14.364  23.490  0.00  0.00    +0.000 C 
ATOM     19  N   UNL     1      -6.861  13.139  22.750  0.00  0.00    +0.000 N 
ATOM     20  C   UNL     1      -7.764  12.157  23.024  0.00  0.00    +0.000 A 
ATOM     21  N   UNL     1      -7.636  11.187  22.153  0.00  0.00    +0.000 NA
ATOM     22  N   UNL     1      -6.636  11.541  21.282  0.00  0.00    +0.000 NA
ATOM     23  C   UNL     1      -6.171  12.724  21.639  0.00  0.00    +0.000 A 
ENDBRANCH  17  23
ENDBRANCH  11  17
ENDBRANCH   1  15
BRANCH   8  24
ATOM     24  C   UNL     1      -2.309  10.822  18.253  0.00  0.00    +0.000 C 
ATOM     25  F   UNL     1      -2.777   9.583  17.945  0.00  0.00    +0.000 F 
ATOM     26  F   UNL     1      -3.343  11.462  18.865  0.00  0.00    +0.000 F 
ATOM     27  F   UNL     1      -2.143  11.452  17.053  0.00  0.00    +0.000 F 
ENDBRANCH   8  24
BRANCH   6  28
ATOM     28  C   UNL     1       0.944   8.221  21.113  0.00  0.00    +0.000 C 
BRANCH  28  29
ATOM     29  N   UNL     1       2.203   7.722  20.547  0.00  0.00    +0.000 NA
ATOM     30  H   UNL     1       2.892   7.668  21.296  0.00  0.00    +0.000 HD
BRANCH  29  31
ATOM     31  C   UNL     1       2.058   6.416  19.899  0.00  0.00    +0.000 C 
ATOM     32  C   UNL     1       3.314   5.654  19.575  0.00  0.00    +0.000 C 
ATOM     33  C   UNL     1       2.493   6.250  18.471  0.00  0.00    +0.000 C 
ENDBRANCH  29  31
ENDBRANCH  28  29
ENDBRANCH   6  28
TORSDOF 7
ENDMDL
MODEL 7
REMARK VINA RESULT:      -7.8      7.536     10.993
REMARK  Name = 
REMARK  8 active torsions:
REMARK  status: ('A' for Active; 'I' for Inactive)
REMARK    1  A    between atoms: C_1  and  N_2
REMARK    2  A    between atoms: C_6  and  C_7
REMARK    3  A    between atoms: C_7  and  C_8
REMARK    4  A    between atoms: C_12  and  N_13
REMARK    5  A    between atoms: C_18  and  C_19
REMARK    6  A    between atoms: C_19  and  N_20
REMARK    7  A    between atoms: N_20  and  C_21
REMARK    8  A    between atoms: C_25  and  C_26
REMARK                            x       y       z     vdW  Elec       q    Type
REMARK                         _______ _______ _______ _____ _____    ______ ____
ROOT
ATOM      1  N   UNL     1      -0.290  11.303  18.393  0.00  0.00    +0.000 N 
ATOM      2  C   UNL     1       0.452  10.539  19.423  0.00  0.00    +0.000 C 
ATOM      3  C   UNL     1       0.006  11.207  20.691  0.00  0.00    +0.000 A 
ATOM      4  C   UNL     1      -0.310  12.530  20.374  0.00  0.00    +0.000 A 
ATOM      5  C   UNL     1      -0.869  13.413  21.281  0.00  0.00    +0.000 A 
ATOM      6  C   UNL     1      -1.189  12.931  22.561  0.00  0.00    +0.000 A 
ATOM      7  C   UNL     1      -0.885  11.583  22.878  0.00  0.00    +0.000 A 
ATOM      8  C   UNL     1      -0.292  10.694  21.949  0.00  0.00    +0.000 A 
ATOM      9  C   UNL     1      -0.340  12.633  18.889  0.00  0.00    +0.000 C 
ATOM     10  O   UNL     1      -0.597  13.659  18.293  0.00  0.00    +0.000 OA
ENDROOT
BRANCH   1  15
ATOM     11  C   UNL     1      -3.861  11.414  17.730  0.00  0.00    +0.000 A 
ATOM     12  C   UNL     1      -3.819  10.736  16.503  0.00  0.00    +0.000 A 
ATOM     13  C   UNL     1      -2.768   9.873  16.206  0.00  0.00    +0.000 A 
ATOM     14  C   UNL     1      -1.690   9.768  17.074  0.00  0.00    +0.000 A 
ATOM     15  C   UNL     1      -1.586  10.674  18.138  0.00  0.00    +0.000 A 
ATOM     16  C   UNL     1      -2.737  11.348  18.568  0.00  0.00    +0.000 A 
BRANCH  11  17
ATOM     17  C   UNL     1      -5.119  12.152  18.131  0.00  0.00    +0.000 C 
BRANCH  17  23
ATOM     18  C   UNL     1      -6.504  13.325  20.711  0.00  0.00    +0.000 C 
ATOM     19  N   UNL     1      -6.625  11.990  20.189  0.00  0.00    +0.000 N 
ATOM     20  C   UNL     1      -7.423  11.015  20.706  0.00  0.00    +0.000 A 
ATOM     21  N   UNL     1      -7.306   9.925  19.987  0.00  0.00    +0.000 NA
ATOM     22  N   UNL     1      -6.423  10.192  18.971  0.00  0.00    +0.000 NA
ATOM     23  C   UNL     1      -6.015  11.442  19.088  0.00  0.00    +0.000 A 
ENDBRANCH  17  23
ENDBRANCH  11  17
ENDBRANCH   1  15
BRANCH   8  24
ATOM     24  C   UNL     1      -0.133   9.243  22.320  0.00  0.00    +0.000 C 
ATOM     25  F   UNL     1      -0.880   8.379  21.581  0.00  0.00    +0.000 F 
ATOM     26  F   UNL     1       1.153   8.814  22.195  0.00  0.00    +0.000 F 
ATOM     27  F   UNL     1      -0.479   8.997  23.618  0.00  0.00    +0.000 F 
ENDBRANCH   8  24
BRANCH   6  28
ATOM     28  C   UNL     1      -1.862  13.813  23.605  0.00  0.00    +0.000 C 
BRANCH  28  29
ATOM     29  N   UNL     1      -0.920  14.678  24.324  0.00  0.00    +0.000 NA
ATOM     30  H   UNL     1       0.010  14.265  24.256  0.00  0.00    +0.000 HD
BRANCH  29  31
ATOM     31  C   UNL     1      -0.900  16.051  23.811  0.00  0.00    +0.000 C 
ATOM     32  C   UNL     1       0.373  16.542  23.178  0.00  0.00    +0.000 C 
ATOM     33  C   UNL     1      -0.061  17.085  24.507  0.00  0.00    +0.000 C 
ENDBRANCH  29  31
ENDBRANCH  28  29
ENDBRANCH   6  28
TORSDOF 7
ENDMDL
MODEL 8
REMARK VINA RESULT:      -7.8      7.602     11.178
REMARK  Name = 
REMARK  8 active torsions:
REMARK  status: ('A' for Active; 'I' for Inactive)
REMARK    1  A    between atoms: C_1  and  N_2
REMARK    2  A    between atoms: C_6  and  C_7
REMARK    3  A    between atoms: C_7  and  C_8
REMARK    4  A    between atoms: C_12  and  N_13
REMARK    5  A    between atoms: C_18  and  C_19
REMARK    6  A    between atoms: C_19  and  N_20
REMARK    7  A    between atoms: N_20  and  C_21
REMARK    8  A    between atoms: C_25  and  C_26
REMARK                            x       y       z     vdW  Elec       q    Type
REMARK                         _______ _______ _______ _____ _____    ______ ____
ROOT
ATOM      1  N   UNL     1      -0.252  11.495  18.528  0.00  0.00    +0.000 N 
ATOM      2  C   UNL     1       0.513  10.780  19.577  0.00  0.00    +0.000 C 
ATOM      3  C   UNL     1      -0.041  11.383  20.836  0.00  0.00    +0.000 A 
ATOM      4  C   UNL     1      -0.461  12.679  20.525  0.00  0.00    +0.000 A 
ATOM      5  C   UNL     1      -1.132  13.492  21.421  0.00  0.00    +0.000 A 
ATOM      6  C   UNL     1      -1.458  12.960  22.679  0.00  0.00    +0.000 A 
ATOM      7  C   UNL     1      -1.049  11.638  22.989  0.00  0.00    +0.000 A 
ATOM      8  C   UNL     1      -0.343  10.823  22.072  0.00  0.00    +0.000 A 
ATOM      9  C   UNL     1      -0.440  12.806  19.042  0.00  0.00    +0.000 C 
ATOM     10  O   UNL     1      -0.764  13.816  18.451  0.00  0.00    +0.000 OA
ENDROOT
BRANCH   1  15
ATOM     11  C   UNL     1      -3.712  11.296  17.432  0.00  0.00    +0.000 A 
ATOM     12  C   UNL     1      -3.483  10.464  16.327  0.00  0.00    +0.000 A 
ATOM     13  C   UNL     1      -2.365   9.636  16.282  0.00  0.00    +0.000 A 
ATOM     14  C   UNL     1      -1.403   9.715  17.280  0.00  0.00    +0.000 A 
ATOM     15  C   UNL     1      -1.476  10.759  18.211  0.00  0.00    +0.000 A 
ATOM     16  C   UNL     1      -2.702  11.413  18.401  0.00  0.00    +0.000 A 
BRANCH  11  17
ATOM     17  C   UNL     1      -5.042  12.002  17.572  0.00  0.00    +0.000 C 
BRANCH  17  23
ATOM     18  C   UNL     1      -5.434  13.639  20.240  0.00  0.00    +0.000 C 
ATOM     19  N   UNL     1      -6.031  12.376  19.898  0.00  0.00    +0.000 N 
ATOM     20  C   UNL     1      -6.927  11.699  20.667  0.00  0.00    +0.000 A 
ATOM     21  N   UNL     1      -7.279  10.592  20.060  0.00  0.00    +0.000 NA
ATOM     22  N   UNL     1      -6.609  10.545  18.863  0.00  0.00    +0.000 NA
ATOM     23  C   UNL     1      -5.859  11.626  18.761  0.00  0.00    +0.000 A 
ENDBRANCH  17  23
ENDBRANCH  11  17
ENDBRANCH   1  15
BRANCH   8  24
ATOM     24  C   UNL     1      -0.070   9.384  22.428  0.00  0.00    +0.000 C 
ATOM     25  F   UNL     1      -0.831   8.476  21.759  0.00  0.00    +0.000 F 
ATOM     26  F   UNL     1       1.221   9.027  22.187  0.00  0.00    +0.000 F 
ATOM     27  F   UNL     1      -0.284   9.126  23.752  0.00  0.00    +0.000 F 
ENDBRANCH   8  24
BRANCH   6  28
ATOM     28  C   UNL     1      -2.248  13.760  23.708  0.00  0.00    +0.000 C 
BRANCH  28  29
ATOM     29  N   UNL     1      -3.401  14.461  23.132  0.00  0.00    +0.000 NA
ATOM     30  H   UNL     1      -3.736  13.925  22.332  0.00  0.00    +0.000 HD
BRANCH  29  31
ATOM     31  C   UNL     1      -4.488  14.660  24.096  0.00  0.00    +0.000 C 
ATOM     32  C   UNL     1      -5.827  14.057  23.772  0.00  0.00    +0.000 C 
ATOM     33  C   UNL     1      -5.644  15.545  23.729  0.00  0.00    +0.000 C 
ENDBRANCH  29  31
ENDBRANCH  28  29
ENDBRANCH   6  28
TORSDOF 7
ENDMDL
MODEL 9
REMARK VINA RESULT:      -7.7      7.526     10.873
REMARK  Name = 
REMARK  8 active torsions:
REMARK  status: ('A' for Active; 'I' for Inactive)
REMARK    1  A    between atoms: C_1  and  N_2
REMARK    2  A    between atoms: C_6  and  C_7
REMARK    3  A    between atoms: C_7  and  C_8
REMARK    4  A    between atoms: C_12  and  N_13
REMARK    5  A    between atoms: C_18  and  C_19
REMARK    6  A    between atoms: C_19  and  N_20
REMARK    7  A    between atoms: N_20  and  C_21
REMARK    8  A    between atoms: C_25  and  C_26
REMARK                            x       y       z     vdW  Elec       q    Type
REMARK                         _______ _______ _______ _____ _____    ______ ____
ROOT
ATOM      1  N   UNL     1      -0.298  11.297  18.346  0.00  0.00    +0.000 N 
ATOM      2  C   UNL     1       0.442  10.525  19.373  0.00  0.00    +0.000 C 
ATOM      3  C   UNL     1       0.016  11.202  20.643  0.00  0.00    +0.000 A 
ATOM      4  C   UNL     1      -0.284  12.530  20.325  0.00  0.00    +0.000 A 
ATOM      5  C   UNL     1      -0.823  13.422  21.234  0.00  0.00    +0.000 A 
ATOM      6  C   UNL     1      -1.139  12.947  22.518  0.00  0.00    +0.000 A 
ATOM      7  C   UNL     1      -0.852  11.595  22.836  0.00  0.00    +0.000 A 
ATOM      8  C   UNL     1      -0.279  10.697  21.904  0.00  0.00    +0.000 A 
ATOM      9  C   UNL     1      -0.325  12.629  18.840  0.00  0.00    +0.000 C 
ATOM     10  O   UNL     1      -0.573  13.657  18.244  0.00  0.00    +0.000 OA
ENDROOT
BRANCH   1  15
ATOM     11  C   UNL     1      -3.857  11.457  17.628  0.00  0.00    +0.000 A 
ATOM     12  C   UNL     1      -3.814  10.720  16.436  0.00  0.00    +0.000 A 
ATOM     13  C   UNL     1      -2.780   9.820  16.196  0.00  0.00    +0.000 A 
ATOM     14  C   UNL     1      -1.716   9.733  17.084  0.00  0.00    +0.000 A 
ATOM     15  C   UNL     1      -1.604  10.686  18.104  0.00  0.00    +0.000 A 
ATOM     16  C   UNL     1      -2.745  11.407  18.485  0.00  0.00    +0.000 A 
BRANCH  11  17
ATOM     17  C   UNL     1      -5.102  12.242  17.975  0.00  0.00    +0.000 C 
BRANCH  17  23
ATOM     18  C   UNL     1      -7.075  10.659  19.860  0.00  0.00    +0.000 C 
ATOM     19  N   UNL     1      -6.197  11.737  20.228  0.00  0.00    +0.000 N 
ATOM     20  C   UNL     1      -6.032  12.218  21.492  0.00  0.00    +0.000 A 
ATOM     21  N   UNL     1      -5.153  13.190  21.480  0.00  0.00    +0.000 NA
ATOM     22  N   UNL     1      -4.724  13.346  20.186  0.00  0.00    +0.000 NA
ATOM     23  C   UNL     1      -5.350  12.464  19.429  0.00  0.00    +0.000 A 
ENDBRANCH  17  23
ENDBRANCH  11  17
ENDBRANCH   1  15
BRANCH   8  24
ATOM     24  C   UNL     1      -0.138   9.244  22.277  0.00  0.00    +0.000 C 
ATOM     25  F   UNL     1      -0.900   8.389  21.544  0.00  0.00    +0.000 F 
ATOM     26  F   UNL     1       1.142   8.797  22.145  0.00  0.00    +0.000 F 
ATOM     27  F   UNL     1      -0.479   9.005  23.578  0.00  0.00    +0.000 F 
ENDBRANCH   8  24
BRANCH   6  28
ATOM     28  C   UNL     1      -1.790  13.841  23.566  0.00  0.00    +0.000 C 
BRANCH  28  29
ATOM     29  N   UNL     1      -3.090  14.374  23.142  0.00  0.00    +0.000 NA
ATOM     30  H   UNL     1      -3.814  13.950  23.721  0.00  0.00    +0.000 HD
BRANCH  29  31
ATOM     31  C   UNL     1      -3.164  15.835  23.232  0.00  0.00    +0.000 C 
ATOM     32  C   UNL     1      -3.645  16.586  22.021  0.00  0.00    +0.000 C 
ATOM     33  C   UNL     1      -2.205  16.672  22.434  0.00  0.00    +0.000 C 
ENDBRANCH  29  31
ENDBRANCH  28  29
ENDBRANCH   6  28
TORSDOF 7
ENDMDL
