MODEL 1
REMARK VINA RESULT:      -8.5      0.000      0.000
REMARK  Name = 
REMARK  7 active torsions:
REMARK  status: ('A' for Active; 'I' for Inactive)
REMARK    1  A    between atoms: C_1  and  C_2
REMARK    2  A    between atoms: C_2  and  C_3
REMARK    3  A    between atoms: C_5  and  N_6
REMARK    4  A    between atoms: C_7  and  C_9
REMARK    5  A    between atoms: C_9  and  C_10
REMARK    6  A    between atoms: C_10  and  C_11
REMARK    7  A    between atoms: C_13  and  C_14
REMARK                            x       y       z     vdW  Elec       q    Type
REMARK                         _______ _______ _______ _____ _____    ______ ____
ROOT
ATOM      1  N   UNL     1       2.217   7.171  18.763  0.00  0.00    +0.000 N 
ATOM      2  C   UNL     1       1.992   8.466  18.344  0.00  0.00    +0.000 C 
ATOM      3  O   UNL     1       2.116   8.838  17.184  0.00  0.00    +0.000 OA
ATOM      4  H   UNL     1       1.976   6.890  19.703  0.00  0.00    +0.000 HD
ENDROOT
BRANCH   1   9
ATOM      5  C   UNL     1       1.430   2.784  19.325  0.00  0.00    +0.000 C 
ATOM      6  C   UNL     1       2.304   4.041  19.203  0.00  0.00    +0.000 C 
ATOM      7  C   UNL     1       2.239   4.775  20.556  0.00  0.00    +0.000 C 
ATOM      8  C   UNL     1       1.815   4.844  17.993  0.00  0.00    +0.000 C 
ATOM      9  C   UNL     1       2.620   6.129  17.823  0.00  0.00    +0.000 C 
ATOM     10  C   UNL     1       4.092   5.810  17.959  0.00  0.00    +0.000 A 
ATOM     11  C   UNL     1       5.059   6.730  17.524  0.00  0.00    +0.000 A 
ATOM     12  C   UNL     1       6.417   6.419  17.614  0.00  0.00    +0.000 A 
ATOM     13  C   UNL     1       6.806   5.189  18.134  0.00  0.00    +0.000 A 
ATOM     14  F   UNL     1       8.112   4.894  18.214  0.00  0.00    +0.000 F 
ATOM     15  C   UNL     1       5.870   4.270  18.573  0.00  0.00    +0.000 A 
ATOM     16  C   UNL     1       4.513   4.581  18.501  0.00  0.00    +0.000 A 
ATOM     17  O   UNL     1       3.660   3.616  18.977  0.00  0.00    +0.000 OA
ENDBRANCH   1   9
BRANCH   2  18
ATOM     18  C   UNL     1       1.527   9.403  19.435  0.00  0.00    +0.000 C 
BRANCH  18  19
ATOM     19  C   UNL     1       1.425   8.679  20.775  0.00  0.00    +0.000 C 
BRANCH  19  20
ATOM     20  C   UNL     1       0.544   9.390  21.739  0.00  0.00    +0.000 A 
ATOM     21  N   UNL     1      -0.474  10.170  21.498  0.00  0.00    +0.000 NA
ATOM     22  C   UNL     1      -0.786  10.641  22.755  0.00  0.00    +0.000 A 
ATOM     23  N   UNL     1      -0.062  10.097  23.744  0.00  0.00    +0.000 NA
ATOM     24  O   UNL     1       0.823   9.248  23.068  0.00  0.00    +0.000 OA
BRANCH  22  25
ATOM     25  C   UNL     1      -1.802  11.712  22.965  0.00  0.00    +0.000 A 
ATOM     26  C   UNL     1      -1.668  13.027  22.553  0.00  0.00    +0.000 A 
ATOM     27  C   UNL     1      -2.816  13.719  23.006  0.00  0.00    +0.000 A 
ATOM     28  C   UNL     1      -3.575  12.792  23.680  0.00  0.00    +0.000 A 
ATOM     29  O   UNL     1      -2.988  11.568  23.630  0.00  0.00    +0.000 OA
ENDBRANCH  22  25
ENDBRANCH  19  20
ENDBRANCH  18  19
ENDBRANCH   2  18
TORSDOF 5
ENDMDL
MODEL 2
REMARK VINA RESULT:      -8.5      2.946      5.125
REMARK  Name = 
REMARK  7 active torsions:
REMARK  status: ('A' for Active; 'I' for Inactive)
REMARK    1  A    between atoms: C_1  and  C_2
REMARK    2  A    between atoms: C_2  and  C_3
REMARK    3  A    between atoms: C_5  and  N_6
REMARK    4  A    between atoms: C_7  and  C_9
REMARK    5  A    between atoms: C_9  and  C_10
REMARK    6  A    between atoms: C_10  and  C_11
REMARK    7  A    between atoms: C_13  and  C_14
REMARK                            x       y       z     vdW  Elec       q    Type
REMARK                         _______ _______ _______ _____ _____    ______ ____
ROOT
ATOM      1  N   UNL     1       4.414   4.274  17.031  0.00  0.00    +0.000 N 
ATOM      2  C   UNL     1       3.605   3.518  17.854  0.00  0.00    +0.000 C 
ATOM      3  O   UNL     1       3.978   2.506  18.433  0.00  0.00    +0.000 OA
ATOM      4  H   UNL     1       4.095   5.167  16.682  0.00  0.00    +0.000 HD
ENDROOT
BRANCH   1   9
ATOM      5  C   UNL     1       7.939   6.778  18.250  0.00  0.00    +0.000 C 
ATOM      6  C   UNL     1       6.990   6.094  17.254  0.00  0.00    +0.000 C 
ATOM      7  C   UNL     1       5.722   6.963  17.161  0.00  0.00    +0.000 C 
ATOM      8  C   UNL     1       6.769   4.651  17.724  0.00  0.00    +0.000 C 
ATOM      9  C   UNL     1       5.809   3.912  16.797  0.00  0.00    +0.000 C 
ATOM     10  C   UNL     1       6.209   4.174  15.363  0.00  0.00    +0.000 A 
ATOM     11  C   UNL     1       5.710   3.365  14.329  0.00  0.00    +0.000 A 
ATOM     12  C   UNL     1       6.110   3.583  13.009  0.00  0.00    +0.000 A 
ATOM     13  C   UNL     1       7.009   4.605  12.725  0.00  0.00    +0.000 A 
ATOM     14  F   UNL     1       7.393   4.807  11.456  0.00  0.00    +0.000 F 
ATOM     15  C   UNL     1       7.508   5.418  13.728  0.00  0.00    +0.000 A 
ATOM     16  C   UNL     1       7.101   5.216  15.045  0.00  0.00    +0.000 A 
ATOM     17  O   UNL     1       7.634   6.082  15.968  0.00  0.00    +0.000 OA
ENDBRANCH   1   9
BRANCH   2  18
ATOM     18  C   UNL     1       2.208   4.065  18.030  0.00  0.00    +0.000 C 
BRANCH  18  19
ATOM     19  C   UNL     1       1.929   4.402  19.492  0.00  0.00    +0.000 C 
BRANCH  19  20
ATOM     20  C   UNL     1       1.897   5.868  19.743  0.00  0.00    +0.000 A 
ATOM     21  N   UNL     1       1.366   6.517  20.743  0.00  0.00    +0.000 NA
ATOM     22  C   UNL     1       1.519   7.830  20.353  0.00  0.00    +0.000 A 
ATOM     23  N   UNL     1       2.205   7.992  19.212  0.00  0.00    +0.000 NA
ATOM     24  O   UNL     1       2.471   6.678  18.806  0.00  0.00    +0.000 OA
BRANCH  22  25
ATOM     25  C   UNL     1       0.906   8.954  21.117  0.00  0.00    +0.000 A 
ATOM     26  C   UNL     1      -0.019   8.812  22.137  0.00  0.00    +0.000 A 
ATOM     27  C   UNL     1      -0.390  10.116  22.541  0.00  0.00    +0.000 A 
ATOM     28  C   UNL     1       0.316  10.976  21.735  0.00  0.00    +0.000 A 
ATOM     29  O   UNL     1       1.129  10.285  20.895  0.00  0.00    +0.000 OA
ENDBRANCH  22  25
ENDBRANCH  19  20
ENDBRANCH  18  19
ENDBRANCH   2  18
TORSDOF 5
ENDMDL
MODEL 3
REMARK VINA RESULT:      -8.4      6.340      8.766
REMARK  Name = 
REMARK  7 active torsions:
REMARK  status: ('A' for Active; 'I' for Inactive)
REMARK    1  A    between atoms: C_1  and  C_2
REMARK    2  A    between atoms: C_2  and  C_3
REMARK    3  A    between atoms: C_5  and  N_6
REMARK    4  A    between atoms: C_7  and  C_9
REMARK    5  A    between atoms: C_9  and  C_10
REMARK    6  A    between atoms: C_10  and  C_11
REMARK    7  A    between atoms: C_13  and  C_14
REMARK                            x       y       z     vdW  Elec       q    Type
REMARK                         _______ _______ _______ _____ _____    ______ ____
ROOT
ATOM      1  N   UNL     1       6.852   6.687  17.423  0.00  0.00    +0.000 N 
ATOM      2  C   UNL     1       7.804   7.325  18.191  0.00  0.00    +0.000 C 
ATOM      3  O   UNL     1       8.465   6.770  19.058  0.00  0.00    +0.000 OA
ATOM      4  H   UNL     1       6.429   7.160  16.637  0.00  0.00    +0.000 HD
ENDROOT
BRANCH   1   9
ATOM      5  C   UNL     1       6.034   3.828  14.056  0.00  0.00    +0.000 C 
ATOM      6  C   UNL     1       5.688   4.639  15.314  0.00  0.00    +0.000 C 
ATOM      7  C   UNL     1       5.422   6.087  14.863  0.00  0.00    +0.000 C 
ATOM      8  C   UNL     1       6.828   4.460  16.322  0.00  0.00    +0.000 C 
ATOM      9  C   UNL     1       6.571   5.264  17.593  0.00  0.00    +0.000 C 
ATOM     10  C   UNL     1       5.143   5.039  18.037  0.00  0.00    +0.000 A 
ATOM     11  C   UNL     1       4.742   5.387  19.337  0.00  0.00    +0.000 A 
ATOM     12  C   UNL     1       3.433   5.143  19.759  0.00  0.00    +0.000 A 
ATOM     13  C   UNL     1       2.530   4.550  18.884  0.00  0.00    +0.000 A 
ATOM     14  F   UNL     1       1.276   4.314  19.296  0.00  0.00    +0.000 F 
ATOM     15  C   UNL     1       2.902   4.204  17.597  0.00  0.00    +0.000 A 
ATOM     16  C   UNL     1       4.202   4.460  17.164  0.00  0.00    +0.000 A 
ATOM     17  O   UNL     1       4.474   4.100  15.867  0.00  0.00    +0.000 OA
ENDBRANCH   1   9
BRANCH   2  18
ATOM     18  C   UNL     1       8.008   8.782  17.847  0.00  0.00    +0.000 C 
BRANCH  18  19
ATOM     19  C   UNL     1       8.937   9.460  18.850  0.00  0.00    +0.000 C 
BRANCH  19  20
ATOM     20  C   UNL     1       9.249  10.866  18.477  0.00  0.00    +0.000 A 
ATOM     21  N   UNL     1      10.246  11.615  18.865  0.00  0.00    +0.000 NA
ATOM     22  C   UNL     1       9.922  12.838  18.316  0.00  0.00    +0.000 A 
ATOM     23  N   UNL     1       8.831  12.823  17.538  0.00  0.00    +0.000 NA
ATOM     24  O   UNL     1       8.383  11.499  17.633  0.00  0.00    +0.000 OA
BRANCH  22  25
ATOM     25  C   UNL     1      10.699  14.071  18.631  0.00  0.00    +0.000 A 
ATOM     26  C   UNL     1      11.956  14.093  19.211  0.00  0.00    +0.000 A 
ATOM     27  C   UNL     1      12.299  15.453  19.397  0.00  0.00    +0.000 A 
ATOM     28  C   UNL     1      11.227  16.180  18.936  0.00  0.00    +0.000 A 
ATOM     29  O   UNL     1      10.270  15.355  18.438  0.00  0.00    +0.000 OA
ENDBRANCH  22  25
ENDBRANCH  19  20
ENDBRANCH  18  19
ENDBRANCH   2  18
TORSDOF 5
ENDMDL
MODEL 4
REMARK VINA RESULT:      -8.4      2.756      4.502
REMARK  Name = 
REMARK  7 active torsions:
REMARK  status: ('A' for Active; 'I' for Inactive)
REMARK    1  A    between atoms: C_1  and  C_2
REMARK    2  A    between atoms: C_2  and  C_3
REMARK    3  A    between atoms: C_5  and  N_6
REMARK    4  A    between atoms: C_7  and  C_9
REMARK    5  A    between atoms: C_9  and  C_10
REMARK    6  A    between atoms: C_10  and  C_11
REMARK    7  A    between atoms: C_13  and  C_14
REMARK                            x       y       z     vdW  Elec       q    Type
REMARK                         _______ _______ _______ _____ _____    ______ ____
ROOT
ATOM      1  N   UNL     1       4.103   5.255  17.270  0.00  0.00    +0.000 N 
ATOM      2  C   UNL     1       3.287   5.148  18.377  0.00  0.00    +0.000 C 
ATOM      3  O   UNL     1       3.525   4.418  19.330  0.00  0.00    +0.000 OA
ATOM      4  H   UNL     1       3.927   5.966  16.573  0.00  0.00    +0.000 HD
ENDROOT
BRANCH   1   9
ATOM      5  C   UNL     1       8.148   6.774  18.500  0.00  0.00    +0.000 C 
ATOM      6  C   UNL     1       7.083   6.286  17.507  0.00  0.00    +0.000 C 
ATOM      7  C   UNL     1       6.124   7.463  17.251  0.00  0.00    +0.000 C 
ATOM      8  C   UNL     1       6.438   5.022  18.086  0.00  0.00    +0.000 C 
ATOM      9  C   UNL     1       5.343   4.491  17.165  0.00  0.00    +0.000 C 
ATOM     10  C   UNL     1       5.858   4.479  15.743  0.00  0.00    +0.000 A 
ATOM     11  C   UNL     1       5.190   3.741  14.754  0.00  0.00    +0.000 A 
ATOM     12  C   UNL     1       5.688   3.698  13.450  0.00  0.00    +0.000 A 
ATOM     13  C   UNL     1       6.854   4.390  13.139  0.00  0.00    +0.000 A 
ATOM     14  F   UNL     1       7.330   4.342  11.886  0.00  0.00    +0.000 F 
ATOM     15  C   UNL     1       7.526   5.128  14.097  0.00  0.00    +0.000 A 
ATOM     16  C   UNL     1       7.025   5.188  15.396  0.00  0.00    +0.000 A 
ATOM     17  O   UNL     1       7.748   5.959  16.273  0.00  0.00    +0.000 OA
ENDBRANCH   1   9
BRANCH   2  18
ATOM     18  C   UNL     1       2.075   6.050  18.348  0.00  0.00    +0.000 C 
BRANCH  18  19
ATOM     19  C   UNL     1       2.428   7.429  17.798  0.00  0.00    +0.000 C 
BRANCH  19  20
ATOM     20  C   UNL     1       1.787   8.529  18.566  0.00  0.00    +0.000 A 
ATOM     21  N   UNL     1       1.536   8.598  19.846  0.00  0.00    +0.000 NA
ATOM     22  C   UNL     1       0.810   9.765  19.939  0.00  0.00    +0.000 A 
ATOM     23  N   UNL     1       0.703  10.443  18.787  0.00  0.00    +0.000 NA
ATOM     24  O   UNL     1       1.368   9.624  17.866  0.00  0.00    +0.000 OA
BRANCH  22  25
ATOM     25  C   UNL     1       0.153  10.183  21.210  0.00  0.00    +0.000 A 
ATOM     26  C   UNL     1      -0.203   9.329  22.241  0.00  0.00    +0.000 A 
ATOM     27  C   UNL     1      -0.855  10.115  23.219  0.00  0.00    +0.000 A 
ATOM     28  C   UNL     1      -0.875  11.397  22.724  0.00  0.00    +0.000 A 
ATOM     29  O   UNL     1      -0.237  11.455  21.526  0.00  0.00    +0.000 OA
ENDBRANCH  22  25
ENDBRANCH  19  20
ENDBRANCH  18  19
ENDBRANCH   2  18
TORSDOF 5
ENDMDL
MODEL 5
REMARK VINA RESULT:      -8.3      3.200      5.099
REMARK  Name = 
REMARK  7 active torsions:
REMARK  status: ('A' for Active; 'I' for Inactive)
REMARK    1  A    between atoms: C_1  and  C_2
REMARK    2  A    between atoms: C_2  and  C_3
REMARK    3  A    between atoms: C_5  and  N_6
REMARK    4  A    between atoms: C_7  and  C_9
REMARK    5  A    between atoms: C_9  and  C_10
REMARK    6  A    between atoms: C_10  and  C_11
REMARK    7  A    between atoms: C_13  and  C_14
REMARK                            x       y       z     vdW  Elec       q    Type
REMARK                         _______ _______ _______ _____ _____    ______ ____
ROOT
ATOM      1  N   UNL     1       4.355   4.830  17.580  0.00  0.00    +0.000 N 
ATOM      2  C   UNL     1       3.556   4.325  18.584  0.00  0.00    +0.000 C 
ATOM      3  O   UNL     1       3.900   3.428  19.342  0.00  0.00    +0.000 OA
ATOM      4  H   UNL     1       4.072   5.655  17.069  0.00  0.00    +0.000 HD
ENDROOT
BRANCH   1   9
ATOM      5  C   UNL     1       8.121   7.144  18.380  0.00  0.00    +0.000 C 
ATOM      6  C   UNL     1       7.081   6.430  17.504  0.00  0.00    +0.000 C 
ATOM      7  C   UNL     1       5.889   7.389  17.338  0.00  0.00    +0.000 C 
ATOM      8  C   UNL     1       6.758   5.081  18.156  0.00  0.00    +0.000 C 
ATOM      9  C   UNL     1       5.704   4.321  17.356  0.00  0.00    +0.000 C 
ATOM     10  C   UNL     1       6.071   4.369  15.889  0.00  0.00    +0.000 A 
ATOM     11  C   UNL     1       5.467   3.487  14.979  0.00  0.00    +0.000 A 
ATOM     12  C   UNL     1       5.834   3.506  13.632  0.00  0.00    +0.000 A 
ATOM     13  C   UNL     1       6.805   4.403  13.198  0.00  0.00    +0.000 A 
ATOM     14  F   UNL     1       7.156   4.413  11.904  0.00  0.00    +0.000 F 
ATOM     15  C   UNL     1       7.408   5.285  14.077  0.00  0.00    +0.000 A 
ATOM     16  C   UNL     1       7.034   5.282  15.419  0.00  0.00    +0.000 A 
ATOM     17  O   UNL     1       7.673   6.204  16.212  0.00  0.00    +0.000 OA
ENDBRANCH   1   9
BRANCH   2  18
ATOM     18  C   UNL     1       2.212   5.003  18.713  0.00  0.00    +0.000 C 
BRANCH  18  19
ATOM     19  C   UNL     1       2.260   6.128  19.743  0.00  0.00    +0.000 C 
BRANCH  19  20
ATOM     20  C   UNL     1       2.125   7.473  19.123  0.00  0.00    +0.000 A 
ATOM     21  N   UNL     1       1.609   8.561  19.628  0.00  0.00    +0.000 NA
ATOM     22  C   UNL     1       1.628   9.421  18.551  0.00  0.00    +0.000 A 
ATOM     23  N   UNL     1       2.224   8.924  17.458  0.00  0.00    +0.000 NA
ATOM     24  O   UNL     1       2.570   7.622  17.841  0.00  0.00    +0.000 OA
BRANCH  22  25
ATOM     25  C   UNL     1       0.976  10.761  18.603  0.00  0.00    +0.000 A 
ATOM     26  C   UNL     1       1.647  11.968  18.707  0.00  0.00    +0.000 A 
ATOM     27  C   UNL     1       0.660  12.980  18.794  0.00  0.00    +0.000 A 
ATOM     28  C   UNL     1      -0.551  12.331  18.753  0.00  0.00    +0.000 A 
ATOM     29  O   UNL     1      -0.371  10.993  18.602  0.00  0.00    +0.000 OA
ENDBRANCH  22  25
ENDBRANCH  19  20
ENDBRANCH  18  19
ENDBRANCH   2  18
TORSDOF 5
ENDMDL
MODEL 6
REMARK VINA RESULT:      -8.2      6.298      8.541
REMARK  Name = 
REMARK  7 active torsions:
REMARK  status: ('A' for Active; 'I' for Inactive)
REMARK    1  A    between atoms: C_1  and  C_2
REMARK    2  A    between atoms: C_2  and  C_3
REMARK    3  A    between atoms: C_5  and  N_6
REMARK    4  A    between atoms: C_7  and  C_9
REMARK    5  A    between atoms: C_9  and  C_10
REMARK    6  A    between atoms: C_10  and  C_11
REMARK    7  A    between atoms: C_13  and  C_14
REMARK                            x       y       z     vdW  Elec       q    Type
REMARK                         _______ _______ _______ _____ _____    ______ ____
ROOT
ATOM      1  N   UNL     1       6.924   6.823  17.502  0.00  0.00    +0.000 N 
ATOM      2  C   UNL     1       7.900   7.462  18.238  0.00  0.00    +0.000 C 
ATOM      3  O   UNL     1       8.580   6.910  19.093  0.00  0.00    +0.000 OA
ATOM      4  H   UNL     1       6.484   7.291  16.723  0.00  0.00    +0.000 HD
ENDROOT
BRANCH   1   9
ATOM      5  C   UNL     1       6.178   3.898  14.175  0.00  0.00    +0.000 C 
ATOM      6  C   UNL     1       5.806   4.734  15.408  0.00  0.00    +0.000 C 
ATOM      7  C   UNL     1       5.551   6.173  14.923  0.00  0.00    +0.000 C 
ATOM      8  C   UNL     1       6.923   4.574  16.446  0.00  0.00    +0.000 C 
ATOM      9  C   UNL     1       6.638   5.404  17.694  0.00  0.00    +0.000 C 
ATOM     10  C   UNL     1       5.200   5.188  18.110  0.00  0.00    +0.000 A 
ATOM     11  C   UNL     1       4.770   5.562  19.394  0.00  0.00    +0.000 A 
ATOM     12  C   UNL     1       3.453   5.327  19.791  0.00  0.00    +0.000 A 
ATOM     13  C   UNL     1       2.568   4.717  18.908  0.00  0.00    +0.000 A 
ATOM     14  F   UNL     1       1.305   4.490  19.297  0.00  0.00    +0.000 F 
ATOM     15  C   UNL     1       2.969   4.346  17.637  0.00  0.00    +0.000 A 
ATOM     16  C   UNL     1       4.278   4.592  17.228  0.00  0.00    +0.000 A 
ATOM     17  O   UNL     1       4.579   4.206  15.945  0.00  0.00    +0.000 OA
ENDBRANCH   1   9
BRANCH   2  18
ATOM     18  C   UNL     1       8.105   8.914  17.874  0.00  0.00    +0.000 C 
BRANCH  18  19
ATOM     19  C   UNL     1       8.781   9.677  19.010  0.00  0.00    +0.000 C 
BRANCH  19  20
ATOM     20  C   UNL     1       9.379  10.961  18.556  0.00  0.00    +0.000 A 
ATOM     21  N   UNL     1       9.051  12.180  18.889  0.00  0.00    +0.000 NA
ATOM     22  C   UNL     1       9.841  12.935  18.048  0.00  0.00    +0.000 A 
ATOM     23  N   UNL     1      10.695  12.219  17.302  0.00  0.00    +0.000 NA
ATOM     24  O   UNL     1      10.397  10.895  17.649  0.00  0.00    +0.000 OA
BRANCH  22  25
ATOM     25  C   UNL     1       9.693  14.415  17.948  0.00  0.00    +0.000 A 
ATOM     26  C   UNL     1       8.680  15.155  18.534  0.00  0.00    +0.000 A 
ATOM     27  C   UNL     1       8.871  16.500  18.138  0.00  0.00    +0.000 A 
ATOM     28  C   UNL     1       9.978  16.500  17.323  0.00  0.00    +0.000 A 
ATOM     29  O   UNL     1      10.503  15.251  17.230  0.00  0.00    +0.000 OA
ENDBRANCH  22  25
ENDBRANCH  19  20
ENDBRANCH  18  19
ENDBRANCH   2  18
TORSDOF 5
ENDMDL
MODEL 7
REMARK VINA RESULT:      -8.1      2.904      4.338
REMARK  Name = 
REMARK  7 active torsions:
REMARK  status: ('A' for Active; 'I' for Inactive)
REMARK    1  A    between atoms: C_1  and  C_2
REMARK    2  A    between atoms: C_2  and  C_3
REMARK    3  A    between atoms: C_5  and  N_6
REMARK    4  A    between atoms: C_7  and  C_9
REMARK    5  A    between atoms: C_9  and  C_10
REMARK    6  A    between atoms: C_10  and  C_11
REMARK    7  A    between atoms: C_13  and  C_14
REMARK                            x       y       z     vdW  Elec       q    Type
REMARK                         _______ _______ _______ _____ _____    ______ ____
ROOT
ATOM      1  N   UNL     1       4.069   5.086  17.123  0.00  0.00    +0.000 N 
ATOM      2  C   UNL     1       3.294   5.010  18.261  0.00  0.00    +0.000 C 
ATOM      3  O   UNL     1       3.589   4.342  19.243  0.00  0.00    +0.000 OA
ATOM      4  H   UNL     1       3.845   5.751  16.396  0.00  0.00    +0.000 HD
ENDROOT
BRANCH   1   9
ATOM      5  C   UNL     1       8.051   6.686  18.454  0.00  0.00    +0.000 C 
ATOM      6  C   UNL     1       7.014   6.194  17.432  0.00  0.00    +0.000 C 
ATOM      7  C   UNL     1       6.026   7.350  17.194  0.00  0.00    +0.000 C 
ATOM      8  C   UNL     1       6.398   4.897  17.967  0.00  0.00    +0.000 C 
ATOM      9  C   UNL     1       5.332   4.361  17.016  0.00  0.00    +0.000 C 
ATOM     10  C   UNL     1       5.868   4.402  15.602  0.00  0.00    +0.000 A 
ATOM     11  C   UNL     1       5.235   3.672  14.584  0.00  0.00    +0.000 A 
ATOM     12  C   UNL     1       5.753   3.680  13.287  0.00  0.00    +0.000 A 
ATOM     13  C   UNL     1       6.903   4.412  13.012  0.00  0.00    +0.000 A 
ATOM     14  F   UNL     1       7.398   4.412  11.765  0.00  0.00    +0.000 F 
ATOM     15  C   UNL     1       7.539   5.143  13.999  0.00  0.00    +0.000 A 
ATOM     16  C   UNL     1       7.018   5.153  15.292  0.00  0.00    +0.000 A 
ATOM     17  O   UNL     1       7.706   5.920  16.200  0.00  0.00    +0.000 OA
ENDBRANCH   1   9
BRANCH   2  18
ATOM     18  C   UNL     1       2.049   5.866  18.226  0.00  0.00    +0.000 C 
BRANCH  18  19
ATOM     19  C   UNL     1       2.399   7.350  18.302  0.00  0.00    +0.000 C 
BRANCH  19  20
ATOM     20  C   UNL     1       1.756   8.028  19.459  0.00  0.00    +0.000 A 
ATOM     21  N   UNL     1       1.173   9.195  19.504  0.00  0.00    +0.000 NA
ATOM     22  C   UNL     1       0.914   9.340  20.850  0.00  0.00    +0.000 A 
ATOM     23  N   UNL     1       1.227   8.267  21.592  0.00  0.00    +0.000 NA
ATOM     24  O   UNL     1       1.781   7.380  20.660  0.00  0.00    +0.000 OA
BRANCH  22  25
ATOM     25  C   UNL     1       0.390  10.615  21.418  0.00  0.00    +0.000 A 
ATOM     26  C   UNL     1      -0.708  10.721  22.256  0.00  0.00    +0.000 A 
ATOM     27  C   UNL     1      -0.902  12.101  22.504  0.00  0.00    +0.000 A 
ATOM     28  C   UNL     1       0.074  12.755  21.792  0.00  0.00    +0.000 A 
ATOM     29  O   UNL     1       0.883  11.864  21.161  0.00  0.00    +0.000 OA
ENDBRANCH  22  25
ENDBRANCH  19  20
ENDBRANCH  18  19
ENDBRANCH   2  18
TORSDOF 5
ENDMDL
MODEL 8
REMARK VINA RESULT:      -8.0      1.202      1.413
REMARK  Name = 
REMARK  7 active torsions:
REMARK  status: ('A' for Active; 'I' for Inactive)
REMARK    1  A    between atoms: C_1  and  C_2
REMARK    2  A    between atoms: C_2  and  C_3
REMARK    3  A    between atoms: C_5  and  N_6
REMARK    4  A    between atoms: C_7  and  C_9
REMARK    5  A    between atoms: C_9  and  C_10
REMARK    6  A    between atoms: C_10  and  C_11
REMARK    7  A    between atoms: C_13  and  C_14
REMARK                            x       y       z     vdW  Elec       q    Type
REMARK                         _______ _______ _______ _____ _____    ______ ____
ROOT
ATOM      1  N   UNL     1       2.226   6.493  19.659  0.00  0.00    +0.000 N 
ATOM      2  C   UNL     1       1.860   7.818  19.774  0.00  0.00    +0.000 C 
ATOM      3  O   UNL     1       1.640   8.550  18.818  0.00  0.00    +0.000 OA
ATOM      4  H   UNL     1       2.270   5.903  20.478  0.00  0.00    +0.000 HD
ENDROOT
BRANCH   1   9
ATOM      5  C   UNL     1       1.406   2.155  18.829  0.00  0.00    +0.000 C 
ATOM      6  C   UNL     1       2.282   3.410  18.960  0.00  0.00    +0.000 C 
ATOM      7  C   UNL     1       2.546   3.628  20.461  0.00  0.00    +0.000 C 
ATOM      8  C   UNL     1       1.572   4.562  18.241  0.00  0.00    +0.000 C 
ATOM      9  C   UNL     1       2.370   5.857  18.353  0.00  0.00    +0.000 C 
ATOM     10  C   UNL     1       3.822   5.569  18.042  0.00  0.00    +0.000 A 
ATOM     11  C   UNL     1       4.706   6.620  17.751  0.00  0.00    +0.000 A 
ATOM     12  C   UNL     1       6.037   6.351  17.426  0.00  0.00    +0.000 A 
ATOM     13  C   UNL     1       6.481   5.033  17.390  0.00  0.00    +0.000 A 
ATOM     14  F   UNL     1       7.759   4.780  17.073  0.00  0.00    +0.000 F 
ATOM     15  C   UNL     1       5.628   3.982  17.679  0.00  0.00    +0.000 A 
ATOM     16  C   UNL     1       4.303   4.245  18.019  0.00  0.00    +0.000 A 
ATOM     17  O   UNL     1       3.537   3.143  18.308  0.00  0.00    +0.000 OA
ENDBRANCH   1   9
BRANCH   2  18
ATOM     18  C   UNL     1       1.703   8.300  21.197  0.00  0.00    +0.000 C 
BRANCH  18  19
ATOM     19  C   UNL     1       0.233   8.533  21.540  0.00  0.00    +0.000 C 
BRANCH  19  20
ATOM     20  C   UNL     1      -0.035   9.931  21.971  0.00  0.00    +0.000 A 
ATOM     21  N   UNL     1      -0.981  10.381  22.751  0.00  0.00    +0.000 NA
ATOM     22  C   UNL     1      -0.811  11.746  22.658  0.00  0.00    +0.000 A 
ATOM     23  N   UNL     1       0.255  12.122  21.939  0.00  0.00    +0.000 NA
ATOM     24  O   UNL     1       0.786  10.908  21.486  0.00  0.00    +0.000 OA
BRANCH  22  25
ATOM     25  C   UNL     1      -1.783  12.702  23.262  0.00  0.00    +0.000 A 
ATOM     26  C   UNL     1      -3.097  12.405  23.581  0.00  0.00    +0.000 A 
ATOM     27  C   UNL     1      -3.682  13.601  24.063  0.00  0.00    +0.000 A 
ATOM     28  C   UNL     1      -2.698  14.557  23.995  0.00  0.00    +0.000 A 
ATOM     29  O   UNL     1      -1.536  14.016  23.546  0.00  0.00    +0.000 OA
ENDBRANCH  22  25
ENDBRANCH  19  20
ENDBRANCH  18  19
ENDBRANCH   2  18
TORSDOF 5
ENDMDL
MODEL 9
REMARK VINA RESULT:      -8.0      2.561      4.838
REMARK  Name = 
REMARK  7 active torsions:
REMARK  status: ('A' for Active; 'I' for Inactive)
REMARK    1  A    between atoms: C_1  and  C_2
REMARK    2  A    between atoms: C_2  and  C_3
REMARK    3  A    between atoms: C_5  and  N_6
REMARK    4  A    between atoms: C_7  and  C_9
REMARK    5  A    between atoms: C_9  and  C_10
REMARK    6  A    between atoms: C_10  and  C_11
REMARK    7  A    between atoms: C_13  and  C_14
REMARK                            x       y       z     vdW  Elec       q    Type
REMARK                         _______ _______ _______ _____ _____    ______ ____
ROOT
ATOM      1  N   UNL     1       4.970   5.017  18.457  0.00  0.00    +0.000 N 
ATOM      2  C   UNL     1       4.311   4.255  19.400  0.00  0.00    +0.000 C 
ATOM      3  O   UNL     1       4.789   3.259  19.926  0.00  0.00    +0.000 OA
ATOM      4  H   UNL     1       4.582   5.899  18.152  0.00  0.00    +0.000 HD
ENDROOT
BRANCH   1   9
ATOM      5  C   UNL     1       8.356   7.951  18.140  0.00  0.00    +0.000 C 
ATOM      6  C   UNL     1       7.311   6.962  17.602  0.00  0.00    +0.000 C 
ATOM      7  C   UNL     1       5.960   7.699  17.570  0.00  0.00    +0.000 C 
ATOM      8  C   UNL     1       7.357   5.703  18.475  0.00  0.00    +0.000 C 
ATOM      9  C   UNL     1       6.321   4.679  18.020  0.00  0.00    +0.000 C 
ATOM     10  C   UNL     1       6.391   4.544  16.515  0.00  0.00    +0.000 A 
ATOM     11  C   UNL     1       5.791   3.449  15.873  0.00  0.00    +0.000 A 
ATOM     12  C   UNL     1       5.889   3.305  14.488  0.00  0.00    +0.000 A 
ATOM     13  C   UNL     1       6.589   4.252  13.748  0.00  0.00    +0.000 A 
ATOM     14  F   UNL     1       6.683   4.105  12.418  0.00  0.00    +0.000 F 
ATOM     15  C   UNL     1       7.183   5.341  14.359  0.00  0.00    +0.000 A 
ATOM     16  C   UNL     1       7.075   5.500  15.739  0.00  0.00    +0.000 A 
ATOM     17  O   UNL     1       7.680   6.620  16.254  0.00  0.00    +0.000 OA
ENDBRANCH   1   9
BRANCH   2  18
ATOM     18  C   UNL     1       2.945   4.777  19.779  0.00  0.00    +0.000 C 
BRANCH  18  19
ATOM     19  C   UNL     1       2.378   5.680  18.687  0.00  0.00    +0.000 C 
BRANCH  19  20
ATOM     20  C   UNL     1       2.011   7.028  19.197  0.00  0.00    +0.000 A 
ATOM     21  N   UNL     1       1.567   7.365  20.378  0.00  0.00    +0.000 NA
ATOM     22  C   UNL     1       1.268   8.700  20.207  0.00  0.00    +0.000 A 
ATOM     23  N   UNL     1       1.607   9.193  19.008  0.00  0.00    +0.000 NA
ATOM     24  O   UNL     1       2.117   8.079  18.331  0.00  0.00    +0.000 OA
BRANCH  22  25
ATOM     25  C   UNL     1       0.566   9.489  21.260  0.00  0.00    +0.000 A 
ATOM     26  C   UNL     1      -0.009   8.957  22.402  0.00  0.00    +0.000 A 
ATOM     27  C   UNL     1      -0.623  10.030  23.091  0.00  0.00    +0.000 A 
ATOM     28  C   UNL     1      -0.402  11.148  22.322  0.00  0.00    +0.000 A 
ATOM     29  O   UNL     1       0.346  10.838  21.232  0.00  0.00    +0.000 OA
ENDBRANCH  22  25
ENDBRANCH  19  20
ENDBRANCH  18  19
ENDBRANCH   2  18
TORSDOF 5
ENDMDL
