MODEL 1
REMARK VINA RESULT:      -7.7      0.000      0.000
REMARK  Name = 
REMARK  4 active torsions:
REMARK  status: ('A' for Active; 'I' for Inactive)
REMARK    1  A    between atoms: C_1  and  C_2
REMARK    2  A    between atoms: C_6  and  C_7
REMARK    3  A    between atoms: C_8  and  N_9
REMARK    4  A    between atoms: C_10  and  C_12
REMARK                            x       y       z     vdW  Elec       q    Type
REMARK                         _______ _______ _______ _____ _____    ______ ____
ROOT
ATOM      1  C   UNL     1       3.743   4.579  18.098  0.00  0.00    +0.000 A 
ATOM      2  C   UNL     1       4.027   5.896  18.240  0.00  0.00    +0.000 A 
ATOM      3  S   UNL     1       5.261   6.753  17.386  0.00  0.00    +0.000 S 
ATOM      4  C   UNL     1       5.673   5.620  16.088  0.00  0.00    +0.000 A 
ATOM      5  C   UNL     1       6.382   6.108  14.977  0.00  0.00    +0.000 A 
ATOM      6  C   UNL     1       6.800   5.249  13.956  0.00  0.00    +0.000 A 
ATOM      7  C   UNL     1       6.523   3.889  14.034  0.00  0.00    +0.000 A 
ATOM      8  C   UNL     1       5.814   3.394  15.128  0.00  0.00    +0.000 A 
ATOM      9  C   UNL     1       5.382   4.261  16.148  0.00  0.00    +0.000 A 
ATOM     10  C   UNL     1       4.602   3.691  17.263  0.00  0.00    +0.000 A 
ATOM     11  O   UNL     1       4.624   2.473  17.444  0.00  0.00    +0.000 OA
ENDROOT
BRANCH   1  17
ATOM     12  C   UNL     1       1.643   2.625  22.212  0.00  0.00    +0.000 C 
ATOM     13  C   UNL     1       1.556   3.005  20.763  0.00  0.00    +0.000 A 
ATOM     14  C   UNL     1       0.389   2.761  20.032  0.00  0.00    +0.000 A 
ATOM     15  C   UNL     1       0.306   3.127  18.687  0.00  0.00    +0.000 A 
ATOM     16  C   UNL     1       1.396   3.723  18.052  0.00  0.00    +0.000 A 
ATOM     17  C   UNL     1       2.574   3.964  18.762  0.00  0.00    +0.000 A 
ATOM     18  C   UNL     1       2.639   3.630  20.126  0.00  0.00    +0.000 A 
ENDBRANCH   1  17
BRANCH   2  19
ATOM     19  N   UNL     1       3.265   6.740  19.031  0.00  0.00    +0.000 N 
ATOM     20  C   UNL     1       2.359   7.665  18.531  0.00  0.00    +0.000 C 
ATOM     21  O   UNL     1       2.149   7.862  17.337  0.00  0.00    +0.000 OA
ATOM     22  H   UNL     1       3.483   6.738  20.017  0.00  0.00    +0.000 HD
BRANCH  20  23
ATOM     23  C   UNL     1       1.653   8.502  19.558  0.00  0.00    +0.000 A 
ATOM     24  C   UNL     1       1.536   8.012  20.871  0.00  0.00    +0.000 A 
ATOM     25  C   UNL     1       0.788   8.718  21.820  0.00  0.00    +0.000 A 
ATOM     26  C   UNL     1       0.181   9.917  21.469  0.00  0.00    +0.000 A 
ATOM     27  F   UNL     1      -0.574  10.570  22.365  0.00  0.00    +0.000 F 
ATOM     28  C   UNL     1       0.344  10.448  20.196  0.00  0.00    +0.000 A 
ATOM     29  C   UNL     1       1.092   9.748  19.242  0.00  0.00    +0.000 A 
ENDBRANCH  20  23
ENDBRANCH   2  19
TORSDOF 3
ENDMDL
MODEL 2
REMARK VINA RESULT:      -7.2      6.358      8.948
REMARK  Name = 
REMARK  4 active torsions:
REMARK  status: ('A' for Active; 'I' for Inactive)
REMARK    1  A    between atoms: C_1  and  C_2
REMARK    2  A    between atoms: C_6  and  C_7
REMARK    3  A    between atoms: C_8  and  N_9
REMARK    4  A    between atoms: C_10  and  C_12
REMARK                            x       y       z     vdW  Elec       q    Type
REMARK                         _______ _______ _______ _____ _____    ______ ____
ROOT
ATOM      1  C   UNL     1       0.531  13.121  20.596  0.00  0.00    +0.000 A 
ATOM      2  C   UNL     1      -0.430  13.793  19.918  0.00  0.00    +0.000 A 
ATOM      3  S   UNL     1      -0.173  15.193  18.939  0.00  0.00    +0.000 S 
ATOM      4  C   UNL     1       1.589  15.197  18.747  0.00  0.00    +0.000 A 
ATOM      5  C   UNL     1       2.146  15.976  17.718  0.00  0.00    +0.000 A 
ATOM      6  C   UNL     1       3.532  16.078  17.563  0.00  0.00    +0.000 A 
ATOM      7  C   UNL     1       4.381  15.409  18.438  0.00  0.00    +0.000 A 
ATOM      8  C   UNL     1       3.840  14.627  19.457  0.00  0.00    +0.000 A 
ATOM      9  C   UNL     1       2.446  14.514  19.604  0.00  0.00    +0.000 A 
ATOM     10  C   UNL     1       1.926  13.642  20.675  0.00  0.00    +0.000 A 
ATOM     11  O   UNL     1       2.682  13.305  21.587  0.00  0.00    +0.000 OA
ENDROOT
BRANCH   1  17
ATOM     12  C   UNL     1       1.202   8.166  20.992  0.00  0.00    +0.000 C 
ATOM     13  C   UNL     1       0.563   9.435  21.477  0.00  0.00    +0.000 A 
ATOM     14  C   UNL     1      -0.319   9.419  22.562  0.00  0.00    +0.000 A 
ATOM     15  C   UNL     1      -0.901  10.602  23.019  0.00  0.00    +0.000 A 
ATOM     16  C   UNL     1      -0.626  11.813  22.384  0.00  0.00    +0.000 A 
ATOM     17  C   UNL     1       0.242  11.848  21.290  0.00  0.00    +0.000 A 
ATOM     18  C   UNL     1       0.858  10.660  20.859  0.00  0.00    +0.000 A 
ENDBRANCH   1  17
BRANCH   2  19
ATOM     19  N   UNL     1      -1.741  13.349  19.851  0.00  0.00    +0.000 N 
ATOM     20  C   UNL     1      -2.201  12.422  18.926  0.00  0.00    +0.000 C 
ATOM     21  O   UNL     1      -1.512  11.912  18.046  0.00  0.00    +0.000 OA
ATOM     22  H   UNL     1      -2.400  13.828  20.448  0.00  0.00    +0.000 HD
BRANCH  20  23
ATOM     23  C   UNL     1      -3.664  12.098  19.006  0.00  0.00    +0.000 A 
ATOM     24  C   UNL     1      -4.414  12.601  20.083  0.00  0.00    +0.000 A 
ATOM     25  C   UNL     1      -5.753  12.224  20.245  0.00  0.00    +0.000 A 
ATOM     26  C   UNL     1      -6.345  11.368  19.325  0.00  0.00    +0.000 A 
ATOM     27  F   UNL     1      -7.613  10.970  19.505  0.00  0.00    +0.000 F 
ATOM     28  C   UNL     1      -5.637  10.917  18.219  0.00  0.00    +0.000 A 
ATOM     29  C   UNL     1      -4.299  11.291  18.049  0.00  0.00    +0.000 A 
ENDBRANCH  20  23
ENDBRANCH   2  19
TORSDOF 3
ENDMDL
MODEL 3
REMARK VINA RESULT:      -7.0      6.571      9.087
REMARK  Name = 
REMARK  4 active torsions:
REMARK  status: ('A' for Active; 'I' for Inactive)
REMARK    1  A    between atoms: C_1  and  C_2
REMARK    2  A    between atoms: C_6  and  C_7
REMARK    3  A    between atoms: C_8  and  N_9
REMARK    4  A    between atoms: C_10  and  C_12
REMARK                            x       y       z     vdW  Elec       q    Type
REMARK                         _______ _______ _______ _____ _____    ______ ____
ROOT
ATOM      1  C   UNL     1       0.803  13.025  20.021  0.00  0.00    +0.000 A 
ATOM      2  C   UNL     1      -0.229  13.706  19.470  0.00  0.00    +0.000 A 
ATOM      3  S   UNL     1      -0.155  15.324  18.868  0.00  0.00    +0.000 S 
ATOM      4  C   UNL     1       1.592  15.610  18.781  0.00  0.00    +0.000 A 
ATOM      5  C   UNL     1       2.053  16.684  18.000  0.00  0.00    +0.000 A 
ATOM      6  C   UNL     1       3.413  17.006  17.951  0.00  0.00    +0.000 A 
ATOM      7  C   UNL     1       4.330  16.264  18.687  0.00  0.00    +0.000 A 
ATOM      8  C   UNL     1       3.885  15.192  19.459  0.00  0.00    +0.000 A 
ATOM      9  C   UNL     1       2.519  14.861  19.497  0.00  0.00    +0.000 A 
ATOM     10  C   UNL     1       2.107  13.693  20.299  0.00  0.00    +0.000 A 
ATOM     11  O   UNL     1       2.884  13.248  21.145  0.00  0.00    +0.000 OA
ENDROOT
BRANCH   1  17
ATOM     12  C   UNL     1      -0.350   9.484  23.382  0.00  0.00    +0.000 C 
ATOM     13  C   UNL     1       0.132   9.871  22.014  0.00  0.00    +0.000 A 
ATOM     14  C   UNL     1       0.491   8.892  21.082  0.00  0.00    +0.000 A 
ATOM     15  C   UNL     1       0.927   9.256  19.806  0.00  0.00    +0.000 A 
ATOM     16  C   UNL     1       1.028  10.601  19.454  0.00  0.00    +0.000 A 
ATOM     17  C   UNL     1       0.686  11.593  20.375  0.00  0.00    +0.000 A 
ATOM     18  C   UNL     1       0.210  11.223  21.645  0.00  0.00    +0.000 A 
ENDBRANCH   1  17
BRANCH   2  19
ATOM     19  N   UNL     1      -1.461  13.120  19.226  0.00  0.00    +0.000 N 
ATOM     20  C   UNL     1      -2.516  13.125  20.129  0.00  0.00    +0.000 C 
ATOM     21  O   UNL     1      -2.472  13.620  21.252  0.00  0.00    +0.000 OA
ATOM     22  H   UNL     1      -1.528  12.569  18.383  0.00  0.00    +0.000 HD
BRANCH  20  23
ATOM     23  C   UNL     1      -3.756  12.409  19.679  0.00  0.00    +0.000 A 
ATOM     24  C   UNL     1      -3.702  11.618  18.518  0.00  0.00    +0.000 A 
ATOM     25  C   UNL     1      -4.868  11.030  18.013  0.00  0.00    +0.000 A 
ATOM     26  C   UNL     1      -6.075  11.211  18.675  0.00  0.00    +0.000 A 
ATOM     27  F   UNL     1      -7.200  10.687  18.166  0.00  0.00    +0.000 F 
ATOM     28  C   UNL     1      -6.133  11.933  19.860  0.00  0.00    +0.000 A 
ATOM     29  C   UNL     1      -4.971  12.522  20.372  0.00  0.00    +0.000 A 
ENDBRANCH  20  23
ENDBRANCH   2  19
TORSDOF 3
ENDMDL
MODEL 4
REMARK VINA RESULT:      -7.0      4.939     10.741
REMARK  Name = 
REMARK  4 active torsions:
REMARK  status: ('A' for Active; 'I' for Inactive)
REMARK    1  A    between atoms: C_1  and  C_2
REMARK    2  A    between atoms: C_6  and  C_7
REMARK    3  A    between atoms: C_8  and  N_9
REMARK    4  A    between atoms: C_10  and  C_12
REMARK                            x       y       z     vdW  Elec       q    Type
REMARK                         _______ _______ _______ _____ _____    ______ ____
ROOT
ATOM      1  C   UNL     1       0.047  13.262  21.781  0.00  0.00    +0.000 A 
ATOM      2  C   UNL     1      -0.129  11.935  21.986  0.00  0.00    +0.000 A 
ATOM      3  S   UNL     1      -1.337  11.229  23.001  0.00  0.00    +0.000 S 
ATOM      4  C   UNL     1      -2.432  12.593  23.282  0.00  0.00    +0.000 A 
ATOM      5  C   UNL     1      -3.724  12.322  23.765  0.00  0.00    +0.000 A 
ATOM      6  C   UNL     1      -4.607  13.360  24.078  0.00  0.00    +0.000 A 
ATOM      7  C   UNL     1      -4.211  14.683  23.918  0.00  0.00    +0.000 A 
ATOM      8  C   UNL     1      -2.935  14.963  23.432  0.00  0.00    +0.000 A 
ATOM      9  C   UNL     1      -2.051  13.920  23.105  0.00  0.00    +0.000 A 
ATOM     10  C   UNL     1      -0.727  14.272  22.559  0.00  0.00    +0.000 A 
ATOM     11  O   UNL     1      -0.312  15.423  22.699  0.00  0.00    +0.000 OA
ENDROOT
BRANCH   1  17
ATOM     12  C   UNL     1       4.691  14.773  20.638  0.00  0.00    +0.000 C 
ATOM     13  C   UNL     1       3.270  14.512  20.229  0.00  0.00    +0.000 A 
ATOM     14  C   UNL     1       2.848  14.767  18.920  0.00  0.00    +0.000 A 
ATOM     15  C   UNL     1       1.530  14.512  18.539  0.00  0.00    +0.000 A 
ATOM     16  C   UNL     1       0.612  14.018  19.467  0.00  0.00    +0.000 A 
ATOM     17  C   UNL     1       1.012  13.770  20.782  0.00  0.00    +0.000 A 
ATOM     18  C   UNL     1       2.351  13.990  21.150  0.00  0.00    +0.000 A 
ENDBRANCH   1  17
BRANCH   2  19
ATOM     19  N   UNL     1       0.596  10.974  21.299  0.00  0.00    +0.000 N 
ATOM     20  C   UNL     1       0.175  10.382  20.117  0.00  0.00    +0.000 C 
ATOM     21  O   UNL     1      -0.894  10.618  19.559  0.00  0.00    +0.000 OA
ATOM     22  H   UNL     1       1.418  10.623  21.768  0.00  0.00    +0.000 HD
BRANCH  20  23
ATOM     23  C   UNL     1       1.096   9.342  19.549  0.00  0.00    +0.000 A 
ATOM     24  C   UNL     1       1.541   9.479  18.222  0.00  0.00    +0.000 A 
ATOM     25  C   UNL     1       2.309   8.469  17.631  0.00  0.00    +0.000 A 
ATOM     26  C   UNL     1       2.651   7.341  18.365  0.00  0.00    +0.000 A 
ATOM     27  F   UNL     1       3.347   6.353  17.784  0.00  0.00    +0.000 F 
ATOM     28  C   UNL     1       2.277   7.223  19.697  0.00  0.00    +0.000 A 
ATOM     29  C   UNL     1       1.511   8.229  20.296  0.00  0.00    +0.000 A 
ENDBRANCH  20  23
ENDBRANCH   2  19
TORSDOF 3
ENDMDL
MODEL 5
REMARK VINA RESULT:      -6.9      6.413      9.315
REMARK  Name = 
REMARK  4 active torsions:
REMARK  status: ('A' for Active; 'I' for Inactive)
REMARK    1  A    between atoms: C_1  and  C_2
REMARK    2  A    between atoms: C_6  and  C_7
REMARK    3  A    between atoms: C_8  and  N_9
REMARK    4  A    between atoms: C_10  and  C_12
REMARK                            x       y       z     vdW  Elec       q    Type
REMARK                         _______ _______ _______ _____ _____    ______ ____
ROOT
ATOM      1  C   UNL     1       0.467  13.235  20.602  0.00  0.00    +0.000 A 
ATOM      2  C   UNL     1      -0.517  13.861  19.916  0.00  0.00    +0.000 A 
ATOM      3  S   UNL     1      -0.330  15.307  18.988  0.00  0.00    +0.000 S 
ATOM      4  C   UNL     1       1.432  15.435  18.849  0.00  0.00    +0.000 A 
ATOM      5  C   UNL     1       1.963  16.283  17.862  0.00  0.00    +0.000 A 
ATOM      6  C   UNL     1       3.342  16.484  17.752  0.00  0.00    +0.000 A 
ATOM      7  C   UNL     1       4.211  15.846  18.631  0.00  0.00    +0.000 A 
ATOM      8  C   UNL     1       3.696  14.997  19.609  0.00  0.00    +0.000 A 
ATOM      9  C   UNL     1       2.309  14.785  19.711  0.00  0.00    +0.000 A 
ATOM     10  C   UNL     1       1.821  13.846  20.739  0.00  0.00    +0.000 A 
ATOM     11  O   UNL     1       2.572  13.532  21.663  0.00  0.00    +0.000 OA
ENDROOT
BRANCH   1  17
ATOM     12  C   UNL     1       1.256   8.282  20.708  0.00  0.00    +0.000 C 
ATOM     13  C   UNL     1       0.625   9.512  21.294  0.00  0.00    +0.000 A 
ATOM     14  C   UNL     1      -0.186   9.423  22.430  0.00  0.00    +0.000 A 
ATOM     15  C   UNL     1      -0.761  10.570  22.981  0.00  0.00    +0.000 A 
ATOM     16  C   UNL     1      -0.549  11.816  22.391  0.00  0.00    +0.000 A 
ATOM     17  C   UNL     1       0.247  11.923  21.249  0.00  0.00    +0.000 A 
ATOM     18  C   UNL     1       0.857  10.771  20.721  0.00  0.00    +0.000 A 
ENDBRANCH   1  17
BRANCH   2  19
ATOM     19  N   UNL     1      -1.792  13.332  19.796  0.00  0.00    +0.000 N 
ATOM     20  C   UNL     1      -2.850  13.656  20.634  0.00  0.00    +0.000 C 
ATOM     21  O   UNL     1      -2.774  14.422  21.591  0.00  0.00    +0.000 OA
ATOM     22  H   UNL     1      -1.899  12.587  19.123  0.00  0.00    +0.000 HD
BRANCH  20  23
ATOM     23  C   UNL     1      -4.143  12.949  20.349  0.00  0.00    +0.000 A 
ATOM     24  C   UNL     1      -5.170  12.994  21.308  0.00  0.00    +0.000 A 
ATOM     25  C   UNL     1      -6.342  12.253  21.119  0.00  0.00    +0.000 A 
ATOM     26  C   UNL     1      -6.499  11.489  19.969  0.00  0.00    +0.000 A 
ATOM     27  F   UNL     1      -7.601  10.743  19.810  0.00  0.00    +0.000 F 
ATOM     28  C   UNL     1      -5.523  11.488  18.981  0.00  0.00    +0.000 A 
ATOM     29  C   UNL     1      -4.349  12.228  19.162  0.00  0.00    +0.000 A 
ENDBRANCH  20  23
ENDBRANCH   2  19
TORSDOF 3
ENDMDL
MODEL 6
REMARK VINA RESULT:      -6.8      4.779     10.475
REMARK  Name = 
REMARK  4 active torsions:
REMARK  status: ('A' for Active; 'I' for Inactive)
REMARK    1  A    between atoms: C_1  and  C_2
REMARK    2  A    between atoms: C_6  and  C_7
REMARK    3  A    between atoms: C_8  and  N_9
REMARK    4  A    between atoms: C_10  and  C_12
REMARK                            x       y       z     vdW  Elec       q    Type
REMARK                         _______ _______ _______ _____ _____    ______ ____
ROOT
ATOM      1  C   UNL     1       0.196  12.856  21.609  0.00  0.00    +0.000 A 
ATOM      2  C   UNL     1      -0.180  11.564  21.752  0.00  0.00    +0.000 A 
ATOM      3  S   UNL     1      -1.382  10.985  22.852  0.00  0.00    +0.000 S 
ATOM      4  C   UNL     1      -2.195  12.482  23.338  0.00  0.00    +0.000 A 
ATOM      5  C   UNL     1      -3.458  12.387  23.947  0.00  0.00    +0.000 A 
ATOM      6  C   UNL     1      -4.116  13.526  24.420  0.00  0.00    +0.000 A 
ATOM      7  C   UNL     1      -3.520  14.776  24.297  0.00  0.00    +0.000 A 
ATOM      8  C   UNL     1      -2.271  14.883  23.688  0.00  0.00    +0.000 A 
ATOM      9  C   UNL     1      -1.615  13.739  23.200  0.00  0.00    +0.000 A 
ATOM     10  C   UNL     1      -0.313  13.914  22.530  0.00  0.00    +0.000 A 
ATOM     11  O   UNL     1       0.304  14.967  22.692  0.00  0.00    +0.000 OA
ENDROOT
BRANCH   1  17
ATOM     12  C   UNL     1       4.636  14.749  20.243  0.00  0.00    +0.000 C 
ATOM     13  C   UNL     1       3.284  14.207  19.877  0.00  0.00    +0.000 A 
ATOM     14  C   UNL     1       2.892  14.118  18.537  0.00  0.00    +0.000 A 
ATOM     15  C   UNL     1       1.640  13.601  18.199  0.00  0.00    +0.000 A 
ATOM     16  C   UNL     1       0.758  13.185  19.196  0.00  0.00    +0.000 A 
ATOM     17  C   UNL     1       1.127  13.278  20.540  0.00  0.00    +0.000 A 
ATOM     18  C   UNL     1       2.404  13.761  20.874  0.00  0.00    +0.000 A 
ENDBRANCH   1  17
BRANCH   2  19
ATOM     19  N   UNL     1       0.297  10.555  20.931  0.00  0.00    +0.000 N 
ATOM     20  C   UNL     1       1.116   9.522  21.364  0.00  0.00    +0.000 C 
ATOM     21  O   UNL     1       1.535   9.397  22.512  0.00  0.00    +0.000 OA
ATOM     22  H   UNL     1       0.114  10.666  19.944  0.00  0.00    +0.000 HD
BRANCH  20  23
ATOM     23  C   UNL     1       1.544   8.546  20.306  0.00  0.00    +0.000 A 
ATOM     24  C   UNL     1       1.822   7.219  20.678  0.00  0.00    +0.000 A 
ATOM     25  C   UNL     1       2.329   6.318  19.735  0.00  0.00    +0.000 A 
ATOM     26  C   UNL     1       2.536   6.731  18.425  0.00  0.00    +0.000 A 
ATOM     27  F   UNL     1       3.066   5.881  17.534  0.00  0.00    +0.000 F 
ATOM     28  C   UNL     1       2.203   8.018  18.027  0.00  0.00    +0.000 A 
ATOM     29  C   UNL     1       1.693   8.926  18.964  0.00  0.00    +0.000 A 
ENDBRANCH  20  23
ENDBRANCH   2  19
TORSDOF 3
ENDMDL
MODEL 7
REMARK VINA RESULT:      -6.8      4.177      7.990
REMARK  Name = 
REMARK  4 active torsions:
REMARK  status: ('A' for Active; 'I' for Inactive)
REMARK    1  A    between atoms: C_1  and  C_2
REMARK    2  A    between atoms: C_6  and  C_7
REMARK    3  A    between atoms: C_8  and  N_9
REMARK    4  A    between atoms: C_10  and  C_12
REMARK                            x       y       z     vdW  Elec       q    Type
REMARK                         _______ _______ _______ _____ _____    ______ ____
ROOT
ATOM      1  C   UNL     1       0.914  10.940  19.669  0.00  0.00    +0.000 A 
ATOM      2  C   UNL     1       0.296  10.500  20.791  0.00  0.00    +0.000 A 
ATOM      3  S   UNL     1       0.164   8.848  21.280  0.00  0.00    +0.000 S 
ATOM      4  C   UNL     1       1.348   8.052  20.229  0.00  0.00    +0.000 A 
ATOM      5  C   UNL     1       1.787   6.763  20.578  0.00  0.00    +0.000 A 
ATOM      6  C   UNL     1       2.663   6.053  19.750  0.00  0.00    +0.000 A 
ATOM      7  C   UNL     1       3.107   6.619  18.560  0.00  0.00    +0.000 A 
ATOM      8  C   UNL     1       2.684   7.899  18.208  0.00  0.00    +0.000 A 
ATOM      9  C   UNL     1       1.814   8.618  19.047  0.00  0.00    +0.000 A 
ATOM     10  C   UNL     1       1.429   9.984  18.647  0.00  0.00    +0.000 A 
ATOM     11  O   UNL     1       1.602  10.334  17.479  0.00  0.00    +0.000 OA
ENDROOT
BRANCH   1  17
ATOM     12  C   UNL     1       3.742  15.066  20.051  0.00  0.00    +0.000 C 
ATOM     13  C   UNL     1       2.479  14.392  19.600  0.00  0.00    +0.000 A 
ATOM     14  C   UNL     1       1.475  15.120  18.955  0.00  0.00    +0.000 A 
ATOM     15  C   UNL     1       0.307  14.488  18.525  0.00  0.00    +0.000 A 
ATOM     16  C   UNL     1       0.119  13.125  18.753  0.00  0.00    +0.000 A 
ATOM     17  C   UNL     1       1.106  12.383  19.406  0.00  0.00    +0.000 A 
ATOM     18  C   UNL     1       2.297  13.015  19.801  0.00  0.00    +0.000 A 
ENDBRANCH   1  17
BRANCH   2  19
ATOM     19  N   UNL     1      -0.217  11.364  21.745  0.00  0.00    +0.000 N 
ATOM     20  C   UNL     1      -1.485  11.926  21.683  0.00  0.00    +0.000 C 
ATOM     21  O   UNL     1      -2.284  11.748  20.767  0.00  0.00    +0.000 OA
ATOM     22  H   UNL     1       0.431  11.673  22.455  0.00  0.00    +0.000 HD
BRANCH  20  23
ATOM     23  C   UNL     1      -1.836  12.859  22.806  0.00  0.00    +0.000 A 
ATOM     24  C   UNL     1      -3.062  12.691  23.471  0.00  0.00    +0.000 A 
ATOM     25  C   UNL     1      -3.465  13.612  24.445  0.00  0.00    +0.000 A 
ATOM     26  C   UNL     1      -2.640  14.681  24.769  0.00  0.00    +0.000 A 
ATOM     27  F   UNL     1      -3.047  15.589  25.668  0.00  0.00    +0.000 F 
ATOM     28  C   UNL     1      -1.396  14.822  24.169  0.00  0.00    +0.000 A 
ATOM     29  C   UNL     1      -0.984  13.904  23.196  0.00  0.00    +0.000 A 
ENDBRANCH  20  23
ENDBRANCH   2  19
TORSDOF 3
ENDMDL
MODEL 8
REMARK VINA RESULT:      -6.7      6.985      9.577
REMARK  Name = 
REMARK  4 active torsions:
REMARK  status: ('A' for Active; 'I' for Inactive)
REMARK    1  A    between atoms: C_1  and  C_2
REMARK    2  A    between atoms: C_6  and  C_7
REMARK    3  A    between atoms: C_8  and  N_9
REMARK    4  A    between atoms: C_10  and  C_12
REMARK                            x       y       z     vdW  Elec       q    Type
REMARK                         _______ _______ _______ _____ _____    ______ ____
ROOT
ATOM      1  C   UNL     1       0.329  13.476  19.867  0.00  0.00    +0.000 A 
ATOM      2  C   UNL     1      -0.748  14.296  19.901  0.00  0.00    +0.000 A 
ATOM      3  S   UNL     1      -0.747  15.972  19.477  0.00  0.00    +0.000 S 
ATOM      4  C   UNL     1       0.806  16.144  18.642  0.00  0.00    +0.000 A 
ATOM      5  C   UNL     1       1.008  17.278  17.837  0.00  0.00    +0.000 A 
ATOM      6  C   UNL     1       2.238  17.508  17.213  0.00  0.00    +0.000 A 
ATOM      7  C   UNL     1       3.286  16.612  17.389  0.00  0.00    +0.000 A 
ATOM      8  C   UNL     1       3.095  15.480  18.179  0.00  0.00    +0.000 A 
ATOM      9  C   UNL     1       1.854  15.242  18.796  0.00  0.00    +0.000 A 
ATOM     10  C   UNL     1       1.694  14.009  19.589  0.00  0.00    +0.000 A 
ATOM     11  O   UNL     1       2.701  13.401  19.954  0.00  0.00    +0.000 OA
ENDROOT
BRANCH   1  17
ATOM     12  C   UNL     1      -0.047   9.641  23.078  0.00  0.00    +0.000 C 
ATOM     13  C   UNL     1       0.029  10.156  21.670  0.00  0.00    +0.000 A 
ATOM     14  C   UNL     1       0.005   9.272  20.586  0.00  0.00    +0.000 A 
ATOM     15  C   UNL     1       0.062   9.755  19.278  0.00  0.00    +0.000 A 
ATOM     16  C   UNL     1       0.165  11.125  19.037  0.00  0.00    +0.000 A 
ATOM     17  C   UNL     1       0.203  12.022  20.106  0.00  0.00    +0.000 A 
ATOM     18  C   UNL     1       0.105  11.535  21.421  0.00  0.00    +0.000 A 
ENDBRANCH   1  17
BRANCH   2  19
ATOM     19  N   UNL     1      -2.024  13.836  20.184  0.00  0.00    +0.000 N 
ATOM     20  C   UNL     1      -2.614  13.902  21.439  0.00  0.00    +0.000 C 
ATOM     21  O   UNL     1      -2.067  14.348  22.445  0.00  0.00    +0.000 OA
ATOM     22  H   UNL     1      -2.484  13.326  19.443  0.00  0.00    +0.000 HD
BRANCH  20  23
ATOM     23  C   UNL     1      -3.994  13.322  21.538  0.00  0.00    +0.000 A 
ATOM     24  C   UNL     1      -4.553  12.698  20.408  0.00  0.00    +0.000 A 
ATOM     25  C   UNL     1      -5.878  12.248  20.437  0.00  0.00    +0.000 A 
ATOM     26  C   UNL     1      -6.633  12.398  21.593  0.00  0.00    +0.000 A 
ATOM     27  F   UNL     1      -7.917  12.009  21.606  0.00  0.00    +0.000 F 
ATOM     28  C   UNL     1      -6.075  12.950  22.738  0.00  0.00    +0.000 A 
ATOM     29  C   UNL     1      -4.750  13.400  22.718  0.00  0.00    +0.000 A 
ENDBRANCH  20  23
ENDBRANCH   2  19
TORSDOF 3
ENDMDL
MODEL 9
REMARK VINA RESULT:      -6.6      6.636      9.013
REMARK  Name = 
REMARK  4 active torsions:
REMARK  status: ('A' for Active; 'I' for Inactive)
REMARK    1  A    between atoms: C_1  and  C_2
REMARK    2  A    between atoms: C_6  and  C_7
REMARK    3  A    between atoms: C_8  and  N_9
REMARK    4  A    between atoms: C_10  and  C_12
REMARK                            x       y       z     vdW  Elec       q    Type
REMARK                         _______ _______ _______ _____ _____    ______ ____
ROOT
ATOM      1  C   UNL     1       0.665  13.095  20.154  0.00  0.00    +0.000 A 
ATOM      2  C   UNL     1      -0.413  13.835  19.802  0.00  0.00    +0.000 A 
ATOM      3  S   UNL     1      -0.367  15.465  19.230  0.00  0.00    +0.000 S 
ATOM      4  C   UNL     1       1.351  15.680  18.850  0.00  0.00    +0.000 A 
ATOM      5  C   UNL     1       1.722  16.755  18.025  0.00  0.00    +0.000 A 
ATOM      6  C   UNL     1       3.067  17.020  17.750  0.00  0.00    +0.000 A 
ATOM      7  C   UNL     1       4.061  16.219  18.302  0.00  0.00    +0.000 A 
ATOM      8  C   UNL     1       3.704  15.146  19.116  0.00  0.00    +0.000 A 
ATOM      9  C   UNL     1       2.351  14.871  19.381  0.00  0.00    +0.000 A 
ATOM     10  C   UNL     1       2.027  13.700  20.218  0.00  0.00    +0.000 A 
ATOM     11  O   UNL     1       2.915  13.199  20.909  0.00  0.00    +0.000 OA
ENDROOT
BRANCH   1  17
ATOM     12  C   UNL     1      -0.549   9.524  23.460  0.00  0.00    +0.000 C 
ATOM     13  C   UNL     1      -0.041   9.924  22.105  0.00  0.00    +0.000 A 
ATOM     14  C   UNL     1       0.339   8.954  21.172  0.00  0.00    +0.000 A 
ATOM     15  C   UNL     1       0.800   9.329  19.909  0.00  0.00    +0.000 A 
ATOM     16  C   UNL     1       0.906  10.678  19.570  0.00  0.00    +0.000 A 
ATOM     17  C   UNL     1       0.543  11.661  20.493  0.00  0.00    +0.000 A 
ATOM     18  C   UNL     1       0.042  11.278  21.749  0.00  0.00    +0.000 A 
ENDBRANCH   1  17
BRANCH   2  19
ATOM     19  N   UNL     1      -1.694  13.309  19.761  0.00  0.00    +0.000 N 
ATOM     20  C   UNL     1      -2.178  12.521  18.726  0.00  0.00    +0.000 C 
ATOM     21  O   UNL     1      -1.541  12.222  17.719  0.00  0.00    +0.000 OA
ATOM     22  H   UNL     1      -2.325  13.627  20.483  0.00  0.00    +0.000 HD
BRANCH  20  23
ATOM     23  C   UNL     1      -3.605  12.075  18.863  0.00  0.00    +0.000 A 
ATOM     24  C   UNL     1      -4.365  12.551  19.945  0.00  0.00    +0.000 A 
ATOM     25  C   UNL     1      -5.660  12.067  20.161  0.00  0.00    +0.000 A 
ATOM     26  C   UNL     1      -6.202  11.131  19.290  0.00  0.00    +0.000 A 
ATOM     27  F   UNL     1      -7.425  10.632  19.522  0.00  0.00    +0.000 F 
ATOM     28  C   UNL     1      -5.489  10.702  18.178  0.00  0.00    +0.000 A 
ATOM     29  C   UNL     1      -4.194  11.184  17.954  0.00  0.00    +0.000 A 
ENDBRANCH  20  23
ENDBRANCH   2  19
TORSDOF 3
ENDMDL
