MODEL 1
REMARK VINA RESULT:      -7.8      0.000      0.000
REMARK  Name = 
REMARK  5 active torsions:
REMARK  status: ('A' for Active; 'I' for Inactive)
REMARK    1  A    between atoms: C_2  and  C_20
REMARK    2  A    between atoms: N_3  and  C_4
REMARK    3  A    between atoms: C_6  and  C_7
REMARK    4  A    between atoms: C_13  and  N_14
REMARK    5  A    between atoms: N_22  and  C_23
REMARK                            x       y       z     vdW  Elec       q    Type
REMARK                         _______ _______ _______ _____ _____    ______ ____
ROOT
ATOM      1  C   UNL     1       2.639   6.025  19.129  0.00  0.00    +0.000 A 
ATOM      2  C   UNL     1       2.322   7.363  19.411  0.00  0.00    +0.000 A 
ATOM      3  C   UNL     1       1.468   7.689  20.457  0.00  0.00    +0.000 A 
ATOM      4  C   UNL     1       0.891   6.649  21.193  0.00  0.00    +0.000 A 
ATOM      5  C   UNL     1       1.213   5.312  20.910  0.00  0.00    +0.000 A 
ATOM      6  C   UNL     1       2.117   4.956  19.893  0.00  0.00    +0.000 A 
ENDROOT
BRANCH   6   7
ATOM      7  N   UNL     1       2.476   3.636  19.681  0.00  0.00    +0.000 N 
ATOM      8  C   UNL     1       3.262   2.875  20.670  0.00  0.00    +0.000 C 
ATOM      9  C   UNL     1       4.260   1.991  19.899  0.00  0.00    +0.000 C 
ATOM     10  O   UNL     1       3.601   1.129  18.953  0.00  0.00    +0.000 OA
ATOM     11  C   UNL     1       2.814   1.896  18.019  0.00  0.00    +0.000 C 
ATOM     12  C   UNL     1       1.757   2.738  18.758  0.00  0.00    +0.000 C 
ENDBRANCH   6   7
BRANCH   1  15
ATOM     13  O   UNL     1       5.382   5.554  19.549  0.00  0.00    +0.000 OA
ATOM     14  C   UNL     1       4.920   5.621  18.413  0.00  0.00    +0.000 C 
ATOM     15  N   UNL     1       3.582   5.785  18.108  0.00  0.00    +0.000 N 
ATOM     16  H   UNL     1       3.365   6.164  17.195  0.00  0.00    +0.000 HD
BRANCH  14  17
ATOM     17  C   UNL     1       5.796   5.610  17.253  0.00  0.00    +0.000 A 
ATOM     18  C   UNL     1       5.599   4.874  16.106  0.00  0.00    +0.000 A 
ATOM     19  N   UNL     1       6.627   5.221  15.272  0.00  0.00    +0.000 N 
ATOM     20  N   UNL     1       7.466   6.069  15.926  0.00  0.00    +0.000 NA
ATOM     21  N   UNL     1       6.959   6.323  17.128  0.00  0.00    +0.000 NA
BRANCH  19  22
ATOM     22  C   UNL     1       6.835   4.819  13.927  0.00  0.00    +0.000 A 
ATOM     23  C   UNL     1       7.750   5.499  13.108  0.00  0.00    +0.000 A 
ATOM     24  C   UNL     1       7.964   5.077  11.793  0.00  0.00    +0.000 A 
ATOM     25  C   UNL     1       7.265   3.985  11.287  0.00  0.00    +0.000 A 
ATOM     26  C   UNL     1       6.351   3.308  12.094  0.00  0.00    +0.000 A 
ATOM     27  C   UNL     1       6.134   3.719  13.411  0.00  0.00    +0.000 A 
ENDBRANCH  19  22
ENDBRANCH  14  17
ENDBRANCH   1  15
BRANCH   3  28
ATOM     28  C   UNL     1       1.187   9.129  20.813  0.00  0.00    +0.000 C 
ATOM     29  F   UNL     1       1.825   9.551  21.941  0.00  0.00    +0.000 F 
ATOM     30  F   UNL     1       1.557   9.995  19.829  0.00  0.00    +0.000 F 
ATOM     31  F   UNL     1      -0.138   9.363  21.034  0.00  0.00    +0.000 F 
ENDBRANCH   3  28
TORSDOF 5
ENDMDL
MODEL 2
REMARK VINA RESULT:      -7.8      0.126      1.114
REMARK  Name = 
REMARK  5 active torsions:
REMARK  status: ('A' for Active; 'I' for Inactive)
REMARK    1  A    between atoms: C_2  and  C_20
REMARK    2  A    between atoms: N_3  and  C_4
REMARK    3  A    between atoms: C_6  and  C_7
REMARK    4  A    between atoms: C_13  and  N_14
REMARK    5  A    between atoms: N_22  and  C_23
REMARK                            x       y       z     vdW  Elec       q    Type
REMARK                         _______ _______ _______ _____ _____    ______ ____
ROOT
ATOM      1  C   UNL     1       2.653   6.027  19.044  0.00  0.00    +0.000 A 
ATOM      2  C   UNL     1       2.309   7.367  19.282  0.00  0.00    +0.000 A 
ATOM      3  C   UNL     1       1.453   7.710  20.321  0.00  0.00    +0.000 A 
ATOM      4  C   UNL     1       0.901   6.684  21.094  0.00  0.00    +0.000 A 
ATOM      5  C   UNL     1       1.250   5.345  20.855  0.00  0.00    +0.000 A 
ATOM      6  C   UNL     1       2.157   4.974  19.846  0.00  0.00    +0.000 A 
ENDROOT
BRANCH   6   7
ATOM      7  N   UNL     1       2.542   3.655  19.677  0.00  0.00    +0.000 N 
ATOM      8  C   UNL     1       3.301   2.928  20.710  0.00  0.00    +0.000 C 
ATOM      9  C   UNL     1       4.340   2.043  19.996  0.00  0.00    +0.000 C 
ATOM     10  O   UNL     1       3.729   1.150  19.046  0.00  0.00    +0.000 OA
ATOM     11  C   UNL     1       2.967   1.885  18.067  0.00  0.00    +0.000 C 
ATOM     12  C   UNL     1       1.871   2.727  18.747  0.00  0.00    +0.000 C 
ENDBRANCH   6   7
BRANCH   1  15
ATOM     13  O   UNL     1       5.404   5.612  19.467  0.00  0.00    +0.000 OA
ATOM     14  C   UNL     1       4.938   5.639  18.331  0.00  0.00    +0.000 C 
ATOM     15  N   UNL     1       3.596   5.773  18.027  0.00  0.00    +0.000 N 
ATOM     16  H   UNL     1       3.370   6.120  17.103  0.00  0.00    +0.000 HD
BRANCH  14  17
ATOM     17  C   UNL     1       5.811   5.607  17.170  0.00  0.00    +0.000 A 
ATOM     18  C   UNL     1       5.612   4.849  16.037  0.00  0.00    +0.000 A 
ATOM     19  N   UNL     1       6.637   5.182  15.193  0.00  0.00    +0.000 N 
ATOM     20  N   UNL     1       7.475   6.045  15.828  0.00  0.00    +0.000 NA
ATOM     21  N   UNL     1       6.971   6.321  17.027  0.00  0.00    +0.000 NA
BRANCH  19  22
ATOM     22  C   UNL     1       6.842   4.756  13.856  0.00  0.00    +0.000 A 
ATOM     23  C   UNL     1       6.162   3.638  13.347  0.00  0.00    +0.000 A 
ATOM     24  C   UNL     1       6.354   3.244  12.020  0.00  0.00    +0.000 A 
ATOM     25  C   UNL     1       7.226   3.954  11.199  0.00  0.00    +0.000 A 
ATOM     26  C   UNL     1       7.907   5.063  11.700  0.00  0.00    +0.000 A 
ATOM     27  C   UNL     1       7.718   5.467  13.024  0.00  0.00    +0.000 A 
ENDBRANCH  19  22
ENDBRANCH  14  17
ENDBRANCH   1  15
BRANCH   3  28
ATOM     28  C   UNL     1       1.144   9.156  20.630  0.00  0.00    +0.000 C 
ATOM     29  F   UNL     1       1.608  10.030  19.693  0.00  0.00    +0.000 F 
ATOM     30  F   UNL     1      -0.193   9.395  20.735  0.00  0.00    +0.000 F 
ATOM     31  F   UNL     1       1.688   9.564  21.812  0.00  0.00    +0.000 F 
ENDBRANCH   3  28
TORSDOF 5
ENDMDL
MODEL 3
REMARK VINA RESULT:      -7.7      3.799      7.939
REMARK  Name = 
REMARK  5 active torsions:
REMARK  status: ('A' for Active; 'I' for Inactive)
REMARK    1  A    between atoms: C_2  and  C_20
REMARK    2  A    between atoms: N_3  and  C_4
REMARK    3  A    between atoms: C_6  and  C_7
REMARK    4  A    between atoms: C_13  and  N_14
REMARK    5  A    between atoms: N_22  and  C_23
REMARK                            x       y       z     vdW  Elec       q    Type
REMARK                         _______ _______ _______ _____ _____    ______ ____
ROOT
ATOM      1  C   UNL     1       2.942   5.178  17.786  0.00  0.00    +0.000 A 
ATOM      2  C   UNL     1       1.897   4.429  18.350  0.00  0.00    +0.000 A 
ATOM      3  C   UNL     1       2.028   3.060  18.548  0.00  0.00    +0.000 A 
ATOM      4  C   UNL     1       3.206   2.436  18.127  0.00  0.00    +0.000 A 
ATOM      5  C   UNL     1       4.250   3.190  17.566  0.00  0.00    +0.000 A 
ATOM      6  C   UNL     1       4.167   4.584  17.405  0.00  0.00    +0.000 A 
ENDROOT
BRANCH   6   7
ATOM      7  N   UNL     1       5.237   5.316  16.919  0.00  0.00    +0.000 N 
ATOM      8  C   UNL     1       5.521   5.414  15.476  0.00  0.00    +0.000 C 
ATOM      9  C   UNL     1       7.050   5.365  15.292  0.00  0.00    +0.000 C 
ATOM     10  O   UNL     1       7.718   6.394  16.045  0.00  0.00    +0.000 OA
ATOM     11  C   UNL     1       7.397   6.296  17.448  0.00  0.00    +0.000 C 
ATOM     12  C   UNL     1       5.878   6.413  17.670  0.00  0.00    +0.000 C 
ENDBRANCH   6   7
BRANCH   1  15
ATOM     13  O   UNL     1       2.342   6.860  19.962  0.00  0.00    +0.000 OA
ATOM     14  C   UNL     1       2.413   7.307  18.820  0.00  0.00    +0.000 C 
ATOM     15  N   UNL     1       2.763   6.574  17.701  0.00  0.00    +0.000 N 
ATOM     16  H   UNL     1       2.462   6.938  16.805  0.00  0.00    +0.000 HD
BRANCH  14  17
ATOM     17  C   UNL     1       2.044   8.684  18.537  0.00  0.00    +0.000 A 
ATOM     18  C   UNL     1       1.137   9.434  19.252  0.00  0.00    +0.000 A 
ATOM     19  N   UNL     1       1.155  10.674  18.672  0.00  0.00    +0.000 N 
ATOM     20  N   UNL     1       1.978  10.648  17.590  0.00  0.00    +0.000 NA
ATOM     21  N   UNL     1       2.535   9.444  17.509  0.00  0.00    +0.000 NA
BRANCH  19  22
ATOM     22  C   UNL     1       0.472  11.845  19.091  0.00  0.00    +0.000 A 
ATOM     23  C   UNL     1       0.932  13.116  18.716  0.00  0.00    +0.000 A 
ATOM     24  C   UNL     1       0.235  14.261  19.114  0.00  0.00    +0.000 A 
ATOM     25  C   UNL     1      -0.915  14.144  19.891  0.00  0.00    +0.000 A 
ATOM     26  C   UNL     1      -1.375  12.883  20.269  0.00  0.00    +0.000 A 
ATOM     27  C   UNL     1      -0.687  11.734  19.872  0.00  0.00    +0.000 A 
ENDBRANCH  19  22
ENDBRANCH  14  17
ENDBRANCH   1  15
BRANCH   3  28
ATOM     28  C   UNL     1       0.938   2.264  19.227  0.00  0.00    +0.000 C 
ATOM     29  F   UNL     1      -0.010   1.790  18.371  0.00  0.00    +0.000 F 
ATOM     30  F   UNL     1       1.419   1.176  19.891  0.00  0.00    +0.000 F 
ATOM     31  F   UNL     1       0.260   2.996  20.155  0.00  0.00    +0.000 F 
ENDBRANCH   3  28
TORSDOF 5
ENDMDL
MODEL 4
REMARK VINA RESULT:      -7.7      1.551      2.119
REMARK  Name = 
REMARK  5 active torsions:
REMARK  status: ('A' for Active; 'I' for Inactive)
REMARK    1  A    between atoms: C_2  and  C_20
REMARK    2  A    between atoms: N_3  and  C_4
REMARK    3  A    between atoms: C_6  and  C_7
REMARK    4  A    between atoms: C_13  and  N_14
REMARK    5  A    between atoms: N_22  and  C_23
REMARK                            x       y       z     vdW  Elec       q    Type
REMARK                         _______ _______ _______ _____ _____    ______ ____
ROOT
ATOM      1  C   UNL     1       3.041   6.703  18.217  0.00  0.00    +0.000 A 
ATOM      2  C   UNL     1       2.642   8.004  17.869  0.00  0.00    +0.000 A 
ATOM      3  C   UNL     1       1.902   8.782  18.749  0.00  0.00    +0.000 A 
ATOM      4  C   UNL     1       1.519   8.222  19.972  0.00  0.00    +0.000 A 
ATOM      5  C   UNL     1       1.922   6.923  20.318  0.00  0.00    +0.000 A 
ATOM      6  C   UNL     1       2.719   6.133  19.470  0.00  0.00    +0.000 A 
ENDROOT
BRANCH   6   7
ATOM      7  N   UNL     1       3.166   4.883  19.864  0.00  0.00    +0.000 N 
ATOM      8  C   UNL     1       4.599   4.537  19.872  0.00  0.00    +0.000 C 
ATOM      9  C   UNL     1       4.735   3.081  19.387  0.00  0.00    +0.000 C 
ATOM     10  O   UNL     1       3.954   2.171  20.182  0.00  0.00    +0.000 OA
ATOM     11  C   UNL     1       2.563   2.551  20.185  0.00  0.00    +0.000 C 
ATOM     12  C   UNL     1       2.388   3.980  20.733  0.00  0.00    +0.000 C 
ENDBRANCH   6   7
BRANCH   1  15
ATOM     13  O   UNL     1       5.786   7.193  17.839  0.00  0.00    +0.000 OA
ATOM     14  C   UNL     1       5.193   6.367  17.150  0.00  0.00    +0.000 C 
ATOM     15  N   UNL     1       3.865   6.013  17.304  0.00  0.00    +0.000 N 
ATOM     16  H   UNL     1       3.405   5.605  16.500  0.00  0.00    +0.000 HD
BRANCH  14  17
ATOM     17  C   UNL     1       5.851   5.728  16.024  0.00  0.00    +0.000 A 
ATOM     18  C   UNL     1       5.279   4.804  15.178  0.00  0.00    +0.000 A 
ATOM     19  N   UNL     1       6.236   4.529  14.240  0.00  0.00    +0.000 N 
ATOM     20  N   UNL     1       7.377   5.196  14.558  0.00  0.00    +0.000 NA
ATOM     21  N   UNL     1       7.147   5.941  15.634  0.00  0.00    +0.000 NA
BRANCH  19  22
ATOM     22  C   UNL     1       6.120   3.711  13.086  0.00  0.00    +0.000 A 
ATOM     23  C   UNL     1       4.860   3.376  12.568  0.00  0.00    +0.000 A 
ATOM     24  C   UNL     1       4.760   2.591  11.416  0.00  0.00    +0.000 A 
ATOM     25  C   UNL     1       5.911   2.131  10.782  0.00  0.00    +0.000 A 
ATOM     26  C   UNL     1       7.166   2.458  11.294  0.00  0.00    +0.000 A 
ATOM     27  C   UNL     1       7.276   3.246  12.442  0.00  0.00    +0.000 A 
ENDBRANCH  19  22
ENDBRANCH  14  17
ENDBRANCH   1  15
BRANCH   3  28
ATOM     28  C   UNL     1       1.539  10.209  18.411  0.00  0.00    +0.000 C 
ATOM     29  F   UNL     1       1.475  11.031  19.495  0.00  0.00    +0.000 F 
ATOM     30  F   UNL     1       2.427  10.787  17.554  0.00  0.00    +0.000 F 
ATOM     31  F   UNL     1       0.321  10.307  17.806  0.00  0.00    +0.000 F 
ENDBRANCH   3  28
TORSDOF 5
ENDMDL
MODEL 5
REMARK VINA RESULT:      -7.6      3.833      8.090
REMARK  Name = 
REMARK  5 active torsions:
REMARK  status: ('A' for Active; 'I' for Inactive)
REMARK    1  A    between atoms: C_2  and  C_20
REMARK    2  A    between atoms: N_3  and  C_4
REMARK    3  A    between atoms: C_6  and  C_7
REMARK    4  A    between atoms: C_13  and  N_14
REMARK    5  A    between atoms: N_22  and  C_23
REMARK                            x       y       z     vdW  Elec       q    Type
REMARK                         _______ _______ _______ _____ _____    ______ ____
ROOT
ATOM      1  C   UNL     1       3.605   5.191  17.542  0.00  0.00    +0.000 A 
ATOM      2  C   UNL     1       4.503   5.370  16.478  0.00  0.00    +0.000 A 
ATOM      3  C   UNL     1       5.354   4.346  16.083  0.00  0.00    +0.000 A 
ATOM      4  C   UNL     1       5.332   3.147  16.803  0.00  0.00    +0.000 A 
ATOM      5  C   UNL     1       4.430   2.971  17.864  0.00  0.00    +0.000 A 
ATOM      6  C   UNL     1       3.518   3.970  18.250  0.00  0.00    +0.000 A 
ENDROOT
BRANCH   6   7
ATOM      7  N   UNL     1       2.588   3.747  19.250  0.00  0.00    +0.000 N 
ATOM      8  C   UNL     1       2.740   4.325  20.597  0.00  0.00    +0.000 C 
ATOM      9  C   UNL     1       2.277   3.269  21.619  0.00  0.00    +0.000 C 
ATOM     10  O   UNL     1       0.929   2.830  21.369  0.00  0.00    +0.000 OA
ATOM     11  C   UNL     1       0.800   2.300  20.034  0.00  0.00    +0.000 C 
ATOM     12  C   UNL     1       1.189   3.358  18.985  0.00  0.00    +0.000 C 
ENDBRANCH   6   7
BRANCH   1  15
ATOM     13  O   UNL     1       4.301   7.918  17.565  0.00  0.00    +0.000 OA
ATOM     14  C   UNL     1       3.167   7.554  17.864  0.00  0.00    +0.000 C 
ATOM     15  N   UNL     1       2.715   6.249  17.821  0.00  0.00    +0.000 N 
ATOM     16  H   UNL     1       1.913   6.024  18.396  0.00  0.00    +0.000 HD
BRANCH  14  17
ATOM     17  C   UNL     1       2.196   8.503  18.382  0.00  0.00    +0.000 A 
ATOM     18  C   UNL     1       1.680   8.507  19.659  0.00  0.00    +0.000 A 
ATOM     19  N   UNL     1       0.861   9.602  19.717  0.00  0.00    +0.000 N 
ATOM     20  N   UNL     1       0.815  10.188  18.490  0.00  0.00    +0.000 NA
ATOM     21  N   UNL     1       1.636   9.534  17.676  0.00  0.00    +0.000 NA
BRANCH  19  22
ATOM     22  C   UNL     1       0.163  10.114  20.841  0.00  0.00    +0.000 A 
ATOM     23  C   UNL     1      -0.432  11.384  20.799  0.00  0.00    +0.000 A 
ATOM     24  C   UNL     1      -1.138  11.866  21.904  0.00  0.00    +0.000 A 
ATOM     25  C   UNL     1      -1.248  11.090  23.056  0.00  0.00    +0.000 A 
ATOM     26  C   UNL     1      -0.656   9.828  23.105  0.00  0.00    +0.000 A 
ATOM     27  C   UNL     1       0.048   9.337  22.003  0.00  0.00    +0.000 A 
ENDBRANCH  19  22
ENDBRANCH  14  17
ENDBRANCH   1  15
BRANCH   3  28
ATOM     28  C   UNL     1       6.266   4.507  14.889  0.00  0.00    +0.000 C 
ATOM     29  F   UNL     1       6.131   3.522  13.958  0.00  0.00    +0.000 F 
ATOM     30  F   UNL     1       6.059   5.680  14.227  0.00  0.00    +0.000 F 
ATOM     31  F   UNL     1       7.584   4.504  15.236  0.00  0.00    +0.000 F 
ENDBRANCH   3  28
TORSDOF 5
ENDMDL
MODEL 6
REMARK VINA RESULT:      -7.5      3.963      8.301
REMARK  Name = 
REMARK  5 active torsions:
REMARK  status: ('A' for Active; 'I' for Inactive)
REMARK    1  A    between atoms: C_2  and  C_20
REMARK    2  A    between atoms: N_3  and  C_4
REMARK    3  A    between atoms: C_6  and  C_7
REMARK    4  A    between atoms: C_13  and  N_14
REMARK    5  A    between atoms: N_22  and  C_23
REMARK                            x       y       z     vdW  Elec       q    Type
REMARK                         _______ _______ _______ _____ _____    ______ ____
ROOT
ATOM      1  C   UNL     1       4.121   5.676  19.227  0.00  0.00    +0.000 A 
ATOM      2  C   UNL     1       5.184   6.478  18.783  0.00  0.00    +0.000 A 
ATOM      3  C   UNL     1       6.214   5.940  18.021  0.00  0.00    +0.000 A 
ATOM      4  C   UNL     1       6.193   4.569  17.749  0.00  0.00    +0.000 A 
ATOM      5  C   UNL     1       5.126   3.770  18.192  0.00  0.00    +0.000 A 
ATOM      6  C   UNL     1       4.043   4.299  18.917  0.00  0.00    +0.000 A 
ENDROOT
BRANCH   6   7
ATOM      7  N   UNL     1       2.967   3.507  19.279  0.00  0.00    +0.000 N 
ATOM      8  C   UNL     1       2.162   2.783  18.279  0.00  0.00    +0.000 C 
ATOM      9  C   UNL     1       0.687   2.856  18.718  0.00  0.00    +0.000 C 
ATOM     10  O   UNL     1       0.493   2.337  20.047  0.00  0.00    +0.000 OA
ATOM     11  C   UNL     1       1.316   3.040  21.000  0.00  0.00    +0.000 C 
ATOM     12  C   UNL     1       2.805   2.925  20.625  0.00  0.00    +0.000 C 
ENDBRANCH   6   7
BRANCH   1  15
ATOM     13  O   UNL     1       2.480   7.693  18.150  0.00  0.00    +0.000 OA
ATOM     14  C   UNL     1       2.359   7.339  19.320  0.00  0.00    +0.000 C 
ATOM     15  N   UNL     1       3.073   6.318  19.918  0.00  0.00    +0.000 N 
ATOM     16  H   UNL     1       3.145   6.341  20.928  0.00  0.00    +0.000 HD
BRANCH  14  17
ATOM     17  C   UNL     1       1.471   8.051  20.224  0.00  0.00    +0.000 A 
ATOM     18  C   UNL     1       1.037   9.349  20.065  0.00  0.00    +0.000 A 
ATOM     19  N   UNL     1       0.178   9.574  21.107  0.00  0.00    +0.000 N 
ATOM     20  N   UNL     1       0.163   8.481  21.917  0.00  0.00    +0.000 NA
ATOM     21  N   UNL     1       0.936   7.543  21.378  0.00  0.00    +0.000 NA
BRANCH  19  22
ATOM     22  C   UNL     1      -0.615  10.724  21.353  0.00  0.00    +0.000 A 
ATOM     23  C   UNL     1      -1.103  11.500  20.291  0.00  0.00    +0.000 A 
ATOM     24  C   UNL     1      -1.905  12.616  20.546  0.00  0.00    +0.000 A 
ATOM     25  C   UNL     1      -2.218  12.966  21.857  0.00  0.00    +0.000 A 
ATOM     26  C   UNL     1      -1.733  12.201  22.917  0.00  0.00    +0.000 A 
ATOM     27  C   UNL     1      -0.935  11.081  22.671  0.00  0.00    +0.000 A 
ENDBRANCH  19  22
ENDBRANCH  14  17
ENDBRANCH   1  15
BRANCH   3  28
ATOM     28  C   UNL     1       7.317   6.815  17.475  0.00  0.00    +0.000 C 
ATOM     29  F   UNL     1       7.833   6.375  16.293  0.00  0.00    +0.000 F 
ATOM     30  F   UNL     1       6.910   8.096  17.252  0.00  0.00    +0.000 F 
ATOM     31  F   UNL     1       8.379   6.906  18.325  0.00  0.00    +0.000 F 
ENDBRANCH   3  28
TORSDOF 5
ENDMDL
MODEL 7
REMARK VINA RESULT:      -7.5      3.979      8.297
REMARK  Name = 
REMARK  5 active torsions:
REMARK  status: ('A' for Active; 'I' for Inactive)
REMARK    1  A    between atoms: C_2  and  C_20
REMARK    2  A    between atoms: N_3  and  C_4
REMARK    3  A    between atoms: C_6  and  C_7
REMARK    4  A    between atoms: C_13  and  N_14
REMARK    5  A    between atoms: N_22  and  C_23
REMARK                            x       y       z     vdW  Elec       q    Type
REMARK                         _______ _______ _______ _____ _____    ______ ____
ROOT
ATOM      1  C   UNL     1       4.118   5.667  19.237  0.00  0.00    +0.000 A 
ATOM      2  C   UNL     1       5.184   6.469  18.799  0.00  0.00    +0.000 A 
ATOM      3  C   UNL     1       6.221   5.929  18.050  0.00  0.00    +0.000 A 
ATOM      4  C   UNL     1       6.205   4.556  17.783  0.00  0.00    +0.000 A 
ATOM      5  C   UNL     1       5.135   3.758  18.220  0.00  0.00    +0.000 A 
ATOM      6  C   UNL     1       4.045   4.288  18.933  0.00  0.00    +0.000 A 
ENDROOT
BRANCH   6   7
ATOM      7  N   UNL     1       2.966   3.497  19.289  0.00  0.00    +0.000 N 
ATOM      8  C   UNL     1       2.170   2.769  18.284  0.00  0.00    +0.000 C 
ATOM      9  C   UNL     1       0.692   2.841  18.711  0.00  0.00    +0.000 C 
ATOM     10  O   UNL     1       0.487   2.327  20.040  0.00  0.00    +0.000 OA
ATOM     11  C   UNL     1       1.301   3.034  20.997  0.00  0.00    +0.000 C 
ATOM     12  C   UNL     1       2.794   2.919  20.635  0.00  0.00    +0.000 C 
ENDBRANCH   6   7
BRANCH   1  15
ATOM     13  O   UNL     1       2.500   7.694  18.145  0.00  0.00    +0.000 OA
ATOM     14  C   UNL     1       2.361   7.337  19.312  0.00  0.00    +0.000 C 
ATOM     15  N   UNL     1       3.062   6.310  19.917  0.00  0.00    +0.000 N 
ATOM     16  H   UNL     1       3.121   6.330  20.927  0.00  0.00    +0.000 HD
BRANCH  14  17
ATOM     17  C   UNL     1       1.463   8.049  20.206  0.00  0.00    +0.000 A 
ATOM     18  C   UNL     1       1.052   9.355  20.057  0.00  0.00    +0.000 A 
ATOM     19  N   UNL     1       0.174   9.578  21.082  0.00  0.00    +0.000 N 
ATOM     20  N   UNL     1       0.124   8.474  21.875  0.00  0.00    +0.000 NA
ATOM     21  N   UNL     1       0.894   7.533  21.340  0.00  0.00    +0.000 NA
BRANCH  19  22
ATOM     22  C   UNL     1      -0.608  10.737  21.327  0.00  0.00    +0.000 A 
ATOM     23  C   UNL     1      -0.866  11.165  22.639  0.00  0.00    +0.000 A 
ATOM     24  C   UNL     1      -1.616  12.321  22.866  0.00  0.00    +0.000 A 
ATOM     25  C   UNL     1      -2.118  13.051  21.791  0.00  0.00    +0.000 A 
ATOM     26  C   UNL     1      -1.869  12.629  20.485  0.00  0.00    +0.000 A 
ATOM     27  C   UNL     1      -1.116  11.476  20.249  0.00  0.00    +0.000 A 
ENDBRANCH  19  22
ENDBRANCH  14  17
ENDBRANCH   1  15
BRANCH   3  28
ATOM     28  C   UNL     1       7.328   6.802  17.509  0.00  0.00    +0.000 C 
ATOM     29  F   UNL     1       6.937   8.078  17.235  0.00  0.00    +0.000 F 
ATOM     30  F   UNL     1       8.379   6.910  18.370  0.00  0.00    +0.000 F 
ATOM     31  F   UNL     1       7.850   6.322  16.345  0.00  0.00    +0.000 F 
ENDBRANCH   3  28
TORSDOF 5
ENDMDL
MODEL 8
REMARK VINA RESULT:      -7.5      4.142      8.212
REMARK  Name = 
REMARK  5 active torsions:
REMARK  status: ('A' for Active; 'I' for Inactive)
REMARK    1  A    between atoms: C_2  and  C_20
REMARK    2  A    between atoms: N_3  and  C_4
REMARK    3  A    between atoms: C_6  and  C_7
REMARK    4  A    between atoms: C_13  and  N_14
REMARK    5  A    between atoms: N_22  and  C_23
REMARK                            x       y       z     vdW  Elec       q    Type
REMARK                         _______ _______ _______ _____ _____    ______ ____
ROOT
ATOM      1  C   UNL     1       3.747   6.229  18.789  0.00  0.00    +0.000 A 
ATOM      2  C   UNL     1       4.929   6.850  18.354  0.00  0.00    +0.000 A 
ATOM      3  C   UNL     1       6.059   6.100  18.053  0.00  0.00    +0.000 A 
ATOM      4  C   UNL     1       6.008   4.715  18.242  0.00  0.00    +0.000 A 
ATOM      5  C   UNL     1       4.823   4.098  18.674  0.00  0.00    +0.000 A 
ATOM      6  C   UNL     1       3.648   4.826  18.932  0.00  0.00    +0.000 A 
ENDROOT
BRANCH   6   7
ATOM      7  N   UNL     1       2.471   4.189  19.285  0.00  0.00    +0.000 N 
ATOM      8  C   UNL     1       1.940   4.241  20.659  0.00  0.00    +0.000 C 
ATOM      9  C   UNL     1       1.355   2.855  20.992  0.00  0.00    +0.000 C 
ATOM     10  O   UNL     1       0.354   2.448  20.041  0.00  0.00    +0.000 OA
ATOM     11  C   UNL     1       0.890   2.438  18.702  0.00  0.00    +0.000 C 
ATOM     12  C   UNL     1       1.419   3.831  18.314  0.00  0.00    +0.000 C 
ENDBRANCH   6   7
BRANCH   1  15
ATOM     13  O   UNL     1       2.945   8.302  17.063  0.00  0.00    +0.000 OA
ATOM     14  C   UNL     1       2.341   8.085  18.110  0.00  0.00    +0.000 C 
ATOM     15  N   UNL     1       2.620   7.053  18.987  0.00  0.00    +0.000 N 
ATOM     16  H   UNL     1       2.308   7.170  19.943  0.00  0.00    +0.000 HD
BRANCH  14  17
ATOM     17  C   UNL     1       1.291   8.982  18.562  0.00  0.00    +0.000 A 
ATOM     18  C   UNL     1       0.982   9.258  19.875  0.00  0.00    +0.000 A 
ATOM     19  N   UNL     1      -0.018  10.191  19.824  0.00  0.00    +0.000 N 
ATOM     20  N   UNL     1      -0.362  10.405  18.526  0.00  0.00    +0.000 NA
ATOM     21  N   UNL     1       0.440   9.684  17.750  0.00  0.00    +0.000 NA
BRANCH  19  22
ATOM     22  C   UNL     1      -0.627  10.880  20.905  0.00  0.00    +0.000 A 
ATOM     23  C   UNL     1      -1.252  12.120  20.704  0.00  0.00    +0.000 A 
ATOM     24  C   UNL     1      -1.870  12.777  21.771  0.00  0.00    +0.000 A 
ATOM     25  C   UNL     1      -1.862  12.206  23.042  0.00  0.00    +0.000 A 
ATOM     26  C   UNL     1      -1.239  10.976  23.248  0.00  0.00    +0.000 A 
ATOM     27  C   UNL     1      -0.623  10.310  22.186  0.00  0.00    +0.000 A 
ENDBRANCH  19  22
ENDBRANCH  14  17
ENDBRANCH   1  15
BRANCH   3  28
ATOM     28  C   UNL     1       7.307   6.755  17.510  0.00  0.00    +0.000 C 
ATOM     29  F   UNL     1       7.787   6.168  16.378  0.00  0.00    +0.000 F 
ATOM     30  F   UNL     1       7.117   8.068  17.200  0.00  0.00    +0.000 F 
ATOM     31  F   UNL     1       8.339   6.729  18.400  0.00  0.00    +0.000 F 
ENDBRANCH   3  28
TORSDOF 5
ENDMDL
MODEL 9
REMARK VINA RESULT:      -7.4      3.811      8.149
REMARK  Name = 
REMARK  5 active torsions:
REMARK  status: ('A' for Active; 'I' for Inactive)
REMARK    1  A    between atoms: C_2  and  C_20
REMARK    2  A    between atoms: N_3  and  C_4
REMARK    3  A    between atoms: C_6  and  C_7
REMARK    4  A    between atoms: C_13  and  N_14
REMARK    5  A    between atoms: N_22  and  C_23
REMARK                            x       y       z     vdW  Elec       q    Type
REMARK                         _______ _______ _______ _____ _____    ______ ____
ROOT
ATOM      1  C   UNL     1       3.843   5.086  17.233  0.00  0.00    +0.000 A 
ATOM      2  C   UNL     1       4.715   5.306  16.155  0.00  0.00    +0.000 A 
ATOM      3  C   UNL     1       5.586   4.312  15.728  0.00  0.00    +0.000 A 
ATOM      4  C   UNL     1       5.609   3.101  16.429  0.00  0.00    +0.000 A 
ATOM      5  C   UNL     1       4.732   2.884  17.504  0.00  0.00    +0.000 A 
ATOM      6  C   UNL     1       3.802   3.852  17.922  0.00  0.00    +0.000 A 
ENDROOT
BRANCH   6   7
ATOM      7  N   UNL     1       2.898   3.588  18.937  0.00  0.00    +0.000 N 
ATOM      8  C   UNL     1       2.094   2.353  18.960  0.00  0.00    +0.000 C 
ATOM      9  C   UNL     1       0.684   2.718  19.463  0.00  0.00    +0.000 C 
ATOM     10  O   UNL     1       0.719   3.364  20.749  0.00  0.00    +0.000 OA
ATOM     11  C   UNL     1       1.539   4.550  20.707  0.00  0.00    +0.000 C 
ATOM     12  C   UNL     1       2.976   4.206  20.274  0.00  0.00    +0.000 C 
ENDBRANCH   6   7
BRANCH   1  15
ATOM     13  O   UNL     1       4.540   7.776  17.678  0.00  0.00    +0.000 OA
ATOM     14  C   UNL     1       3.379   7.397  17.804  0.00  0.00    +0.000 C 
ATOM     15  N   UNL     1       2.930   6.115  17.546  0.00  0.00    +0.000 N 
ATOM     16  H   UNL     1       2.069   5.833  17.998  0.00  0.00    +0.000 HD
BRANCH  14  17
ATOM     17  C   UNL     1       2.359   8.289  18.330  0.00  0.00    +0.000 A 
ATOM     18  C   UNL     1       1.884   8.290  19.622  0.00  0.00    +0.000 A 
ATOM     19  N   UNL     1       0.991   9.327  19.679  0.00  0.00    +0.000 N 
ATOM     20  N   UNL     1       0.867   9.876  18.441  0.00  0.00    +0.000 NA
ATOM     21  N   UNL     1       1.707   9.260  17.617  0.00  0.00    +0.000 NA
BRANCH  19  22
ATOM     22  C   UNL     1       0.293   9.818  20.812  0.00  0.00    +0.000 A 
ATOM     23  C   UNL     1       0.105   9.011  21.945  0.00  0.00    +0.000 A 
ATOM     24  C   UNL     1      -0.562   9.516  23.064  0.00  0.00    +0.000 A 
ATOM     25  C   UNL     1      -1.050  10.821  23.057  0.00  0.00    +0.000 A 
ATOM     26  C   UNL     1      -0.869  11.626  21.933  0.00  0.00    +0.000 A 
ATOM     27  C   UNL     1      -0.199  11.131  20.812  0.00  0.00    +0.000 A 
ENDBRANCH  19  22
ENDBRANCH  14  17
ENDBRANCH   1  15
BRANCH   3  28
ATOM     28  C   UNL     1       6.469   4.516  14.520  0.00  0.00    +0.000 C 
ATOM     29  F   UNL     1       6.163   5.630  13.797  0.00  0.00    +0.000 F 
ATOM     30  F   UNL     1       7.786   4.633  14.847  0.00  0.00    +0.000 F 
ATOM     31  F   UNL     1       6.396   3.478  13.639  0.00  0.00    +0.000 F 
ENDBRANCH   3  28
TORSDOF 5
ENDMDL
