MODEL 1
REMARK VINA RESULT:      -9.2      0.000      0.000
REMARK  Name = 
REMARK  6 active torsions:
REMARK  status: ('A' for Active; 'I' for Inactive)
REMARK    1  A    between atoms: C_2  and  C_15
REMARK    2  A    between atoms: N_3  and  C_4
REMARK    3  A    between atoms: C_19  and  S_20
REMARK    4  A    between atoms: S_20  and  N_23
REMARK    5  A    between atoms: N_23  and  C_24
REMARK    6  A    between atoms: C_24  and  C_25
REMARK                            x       y       z     vdW  Elec       q    Type
REMARK                         _______ _______ _______ _____ _____    ______ ____
ROOT
ATOM      1  C   UNL     1       7.801   7.613  18.216  0.00  0.00    +0.000 A 
ATOM      2  C   UNL     1       8.347   6.709  19.143  0.00  0.00    +0.000 A 
ATOM      3  C   UNL     1       8.087   5.344  19.044  0.00  0.00    +0.000 A 
ATOM      4  C   UNL     1       7.284   4.872  18.013  0.00  0.00    +0.000 A 
ATOM      5  C   UNL     1       6.743   5.768  17.080  0.00  0.00    +0.000 A 
ATOM      6  C   UNL     1       6.993   7.144  17.176  0.00  0.00    +0.000 A 
ENDROOT
BRANCH   1   8
ATOM      7  O   UNL     1       7.823   9.787  17.450  0.00  0.00    +0.000 OA
ATOM      8  C   UNL     1       8.287   9.012  18.278  0.00  0.00    +0.000 C 
ATOM      9  N   UNL     1       9.259   9.317  19.225  0.00  0.00    +0.000 N 
ATOM     10  H   UNL     1       9.777   8.555  19.641  0.00  0.00    +0.000 HD
BRANCH   9  11
ATOM     11  C   UNL     1       9.729  10.635  19.465  0.00  0.00    +0.000 A 
ATOM     12  C   UNL     1       9.414  11.329  20.640  0.00  0.00    +0.000 A 
ATOM     13  C   UNL     1       9.867  12.629  20.857  0.00  0.00    +0.000 A 
ATOM     14  C   UNL     1      10.621  13.266  19.884  0.00  0.00    +0.000 A 
ATOM     15  C   UNL     1      10.954  12.592  18.707  0.00  0.00    +0.000 A 
ATOM     16  C   UNL     1      10.545  11.262  18.515  0.00  0.00    +0.000 A 
ATOM     17  O   UNL     1      11.736  13.162  17.736  0.00  0.00    +0.000 OA
ATOM     18  C   UNL     1      11.115  14.321  17.164  0.00  0.00    +0.000 C 
ATOM     19  C   UNL     1      11.291  15.579  18.006  0.00  0.00    +0.000 C 
ATOM     20  C   UNL     1      10.511  15.494  19.308  0.00  0.00    +0.000 C 
ATOM     21  O   UNL     1      11.075  14.520  20.182  0.00  0.00    +0.000 OA
ENDBRANCH   9  11
ENDBRANCH   1   8
BRANCH   5  22
ATOM     22  S   UNL     1       5.876   5.110  15.668  0.00  0.00    +0.000 S 
ATOM     23  O   UNL     1       5.371   6.235  14.917  0.00  0.00    +0.000 OA
ATOM     24  O   UNL     1       6.729   4.105  15.072  0.00  0.00    +0.000 OA
BRANCH  22  25
ATOM     25  N   UNL     1       4.583   4.284  16.359  0.00  0.00    +0.000 NA
ATOM     26  H   UNL     1       4.839   3.370  16.725  0.00  0.00    +0.000 HD
BRANCH  25  27
ATOM     27  C   UNL     1       3.713   5.067  17.245  0.00  0.00    +0.000 C 
BRANCH  27  28
ATOM     28  C   UNL     1       3.044   4.195  18.277  0.00  0.00    +0.000 A 
ATOM     29  C   UNL     1       1.648   4.096  18.333  0.00  0.00    +0.000 A 
ATOM     30  C   UNL     1       1.037   3.266  19.274  0.00  0.00    +0.000 A 
ATOM     31  C   UNL     1       1.815   2.529  20.165  0.00  0.00    +0.000 A 
ATOM     32  C   UNL     1       3.206   2.619  20.117  0.00  0.00    +0.000 A 
ATOM     33  C   UNL     1       3.818   3.448  19.177  0.00  0.00    +0.000 A 
ENDBRANCH  27  28
ENDBRANCH  25  27
ENDBRANCH  22  25
ENDBRANCH   5  22
TORSDOF 6
ENDMDL
MODEL 2
REMARK VINA RESULT:      -9.0      0.833      1.045
REMARK  Name = 
REMARK  6 active torsions:
REMARK  status: ('A' for Active; 'I' for Inactive)
REMARK    1  A    between atoms: C_2  and  C_15
REMARK    2  A    between atoms: N_3  and  C_4
REMARK    3  A    between atoms: C_19  and  S_20
REMARK    4  A    between atoms: S_20  and  N_23
REMARK    5  A    between atoms: N_23  and  C_24
REMARK    6  A    between atoms: C_24  and  C_25
REMARK                            x       y       z     vdW  Elec       q    Type
REMARK                         _______ _______ _______ _____ _____    ______ ____
ROOT
ATOM      1  C   UNL     1       7.931   7.776  18.255  0.00  0.00    +0.000 A 
ATOM      2  C   UNL     1       8.312   6.918  19.300  0.00  0.00    +0.000 A 
ATOM      3  C   UNL     1       8.074   5.548  19.218  0.00  0.00    +0.000 A 
ATOM      4  C   UNL     1       7.459   5.025  18.087  0.00  0.00    +0.000 A 
ATOM      5  C   UNL     1       7.084   5.875  17.037  0.00  0.00    +0.000 A 
ATOM      6  C   UNL     1       7.314   7.256  17.113  0.00  0.00    +0.000 A 
ENDROOT
BRANCH   1   8
ATOM      7  O   UNL     1       7.904   9.967  17.539  0.00  0.00    +0.000 OA
ATOM      8  C   UNL     1       8.400   9.180  18.337  0.00  0.00    +0.000 C 
ATOM      9  N   UNL     1       9.389   9.479  19.267  0.00  0.00    +0.000 N 
ATOM     10  H   UNL     1       9.929   8.715  19.653  0.00  0.00    +0.000 HD
BRANCH   9  11
ATOM     11  C   UNL     1       9.847  10.798  19.526  0.00  0.00    +0.000 A 
ATOM     12  C   UNL     1       9.573  11.450  20.735  0.00  0.00    +0.000 A 
ATOM     13  C   UNL     1      10.013  12.752  20.971  0.00  0.00    +0.000 A 
ATOM     14  C   UNL     1      10.710  13.432  19.984  0.00  0.00    +0.000 A 
ATOM     15  C   UNL     1      11.000  12.800  18.774  0.00  0.00    +0.000 A 
ATOM     16  C   UNL     1      10.606  11.469  18.560  0.00  0.00    +0.000 A 
ATOM     17  O   UNL     1      11.726  13.414  17.786  0.00  0.00    +0.000 OA
ATOM     18  C   UNL     1      11.059  14.577  17.278  0.00  0.00    +0.000 C 
ATOM     19  C   UNL     1      11.250  15.813  18.150  0.00  0.00    +0.000 C 
ATOM     20  C   UNL     1      10.533  15.674  19.483  0.00  0.00    +0.000 C 
ATOM     21  O   UNL     1      11.154  14.685  20.300  0.00  0.00    +0.000 OA
ENDBRANCH   9  11
ENDBRANCH   1   8
BRANCH   5  22
ATOM     22  S   UNL     1       6.471   5.150  15.529  0.00  0.00    +0.000 S 
ATOM     23  O   UNL     1       5.430   6.017  15.032  0.00  0.00    +0.000 OA
ATOM     24  O   UNL     1       7.622   4.790  14.729  0.00  0.00    +0.000 OA
BRANCH  22  25
ATOM     25  N   UNL     1       5.784   3.705  16.047  0.00  0.00    +0.000 NA
ATOM     26  H   UNL     1       6.271   3.288  16.838  0.00  0.00    +0.000 HD
BRANCH  25  27
ATOM     27  C   UNL     1       4.321   3.686  16.160  0.00  0.00    +0.000 C 
BRANCH  27  28
ATOM     28  C   UNL     1       3.876   3.708  17.600  0.00  0.00    +0.000 A 
ATOM     29  C   UNL     1       3.647   2.512  18.295  0.00  0.00    +0.000 A 
ATOM     30  C   UNL     1       3.262   2.539  19.636  0.00  0.00    +0.000 A 
ATOM     31  C   UNL     1       3.103   3.757  20.292  0.00  0.00    +0.000 A 
ATOM     32  C   UNL     1       3.330   4.953  19.611  0.00  0.00    +0.000 A 
ATOM     33  C   UNL     1       3.715   4.929  18.271  0.00  0.00    +0.000 A 
ENDBRANCH  27  28
ENDBRANCH  25  27
ENDBRANCH  22  25
ENDBRANCH   5  22
TORSDOF 6
ENDMDL
MODEL 3
REMARK VINA RESULT:      -8.8      6.609      9.853
REMARK  Name = 
REMARK  6 active torsions:
REMARK  status: ('A' for Active; 'I' for Inactive)
REMARK    1  A    between atoms: C_2  and  C_15
REMARK    2  A    between atoms: N_3  and  C_4
REMARK    3  A    between atoms: C_19  and  S_20
REMARK    4  A    between atoms: S_20  and  N_23
REMARK    5  A    between atoms: N_23  and  C_24
REMARK    6  A    between atoms: C_24  and  C_25
REMARK                            x       y       z     vdW  Elec       q    Type
REMARK                         _______ _______ _______ _____ _____    ______ ____
ROOT
ATOM      1  C   UNL     1       0.965   9.277  20.500  0.00  0.00    +0.000 A 
ATOM      2  C   UNL     1       0.408   8.535  21.554  0.00  0.00    +0.000 A 
ATOM      3  C   UNL     1      -0.308   9.167  22.568  0.00  0.00    +0.000 A 
ATOM      4  C   UNL     1      -0.478  10.546  22.532  0.00  0.00    +0.000 A 
ATOM      5  C   UNL     1       0.068  11.291  21.477  0.00  0.00    +0.000 A 
ATOM      6  C   UNL     1       0.796  10.664  20.455  0.00  0.00    +0.000 A 
ENDROOT
BRANCH   1   8
ATOM      7  O   UNL     1       1.362   8.977  18.249  0.00  0.00    +0.000 OA
ATOM      8  C   UNL     1       1.535   8.508  19.368  0.00  0.00    +0.000 C 
ATOM      9  N   UNL     1       2.168   7.304  19.657  0.00  0.00    +0.000 N 
ATOM     10  H   UNL     1       1.991   6.875  20.556  0.00  0.00    +0.000 HD
BRANCH   9  11
ATOM     11  C   UNL     1       2.852   6.526  18.685  0.00  0.00    +0.000 A 
ATOM     12  C   UNL     1       2.465   5.214  18.385  0.00  0.00    +0.000 A 
ATOM     13  C   UNL     1       3.155   4.455  17.441  0.00  0.00    +0.000 A 
ATOM     14  C   UNL     1       4.265   4.991  16.804  0.00  0.00    +0.000 A 
ATOM     15  C   UNL     1       4.664   6.299  17.083  0.00  0.00    +0.000 A 
ATOM     16  C   UNL     1       3.934   7.082  17.992  0.00  0.00    +0.000 A 
ATOM     17  O   UNL     1       5.725   6.888  16.446  0.00  0.00    +0.000 OA
ATOM     18  C   UNL     1       6.958   6.212  16.725  0.00  0.00    +0.000 C 
ATOM     19  C   UNL     1       7.172   4.967  15.872  0.00  0.00    +0.000 C 
ATOM     20  C   UNL     1       6.192   3.864  16.236  0.00  0.00    +0.000 C 
ATOM     21  O   UNL     1       4.863   4.211  15.855  0.00  0.00    +0.000 OA
ENDBRANCH   9  11
ENDBRANCH   1   8
BRANCH   5  22
ATOM     22  S   UNL     1      -0.328  13.025  21.362  0.00  0.00    +0.000 S 
ATOM     23  O   UNL     1      -1.185  13.340  22.479  0.00  0.00    +0.000 OA
ATOM     24  O   UNL     1       0.910  13.731  21.116  0.00  0.00    +0.000 OA
BRANCH  22  25
ATOM     25  N   UNL     1      -1.220  13.123  19.939  0.00  0.00    +0.000 NA
ATOM     26  H   UNL     1      -0.669  12.935  19.104  0.00  0.00    +0.000 HD
BRANCH  25  27
ATOM     27  C   UNL     1      -2.537  12.474  19.952  0.00  0.00    +0.000 C 
BRANCH  27  28
ATOM     28  C   UNL     1      -2.742  11.613  18.732  0.00  0.00    +0.000 A 
ATOM     29  C   UNL     1      -3.945  11.664  18.016  0.00  0.00    +0.000 A 
ATOM     30  C   UNL     1      -4.119  10.883  16.872  0.00  0.00    +0.000 A 
ATOM     31  C   UNL     1      -3.093  10.048  16.435  0.00  0.00    +0.000 A 
ATOM     32  C   UNL     1      -1.891   9.990  17.140  0.00  0.00    +0.000 A 
ATOM     33  C   UNL     1      -1.716  10.769  18.283  0.00  0.00    +0.000 A 
ENDBRANCH  27  28
ENDBRANCH  25  27
ENDBRANCH  22  25
ENDBRANCH   5  22
TORSDOF 6
ENDMDL
MODEL 4
REMARK VINA RESULT:      -8.8      1.007      1.058
REMARK  Name = 
REMARK  6 active torsions:
REMARK  status: ('A' for Active; 'I' for Inactive)
REMARK    1  A    between atoms: C_2  and  C_15
REMARK    2  A    between atoms: N_3  and  C_4
REMARK    3  A    between atoms: C_19  and  S_20
REMARK    4  A    between atoms: S_20  and  N_23
REMARK    5  A    between atoms: N_23  and  C_24
REMARK    6  A    between atoms: C_24  and  C_25
REMARK                            x       y       z     vdW  Elec       q    Type
REMARK                         _______ _______ _______ _____ _____    ______ ____
ROOT
ATOM      1  C   UNL     1       7.763   7.641  18.181  0.00  0.00    +0.000 A 
ATOM      2  C   UNL     1       8.373   6.744  19.074  0.00  0.00    +0.000 A 
ATOM      3  C   UNL     1       8.116   5.377  18.995  0.00  0.00    +0.000 A 
ATOM      4  C   UNL     1       7.253   4.896  18.018  0.00  0.00    +0.000 A 
ATOM      5  C   UNL     1       6.648   5.785  17.118  0.00  0.00    +0.000 A 
ATOM      6  C   UNL     1       6.895   7.164  17.194  0.00  0.00    +0.000 A 
ENDROOT
BRANCH   1   8
ATOM      7  O   UNL     1       7.838   9.775  17.313  0.00  0.00    +0.000 OA
ATOM      8  C   UNL     1       8.244   9.043  18.208  0.00  0.00    +0.000 C 
ATOM      9  N   UNL     1       9.146   9.398  19.204  0.00  0.00    +0.000 N 
ATOM     10  H   UNL     1       9.635   8.660  19.692  0.00  0.00    +0.000 HD
BRANCH   9  11
ATOM     11  C   UNL     1       9.598  10.729  19.412  0.00  0.00    +0.000 A 
ATOM     12  C   UNL     1      10.142  11.141  20.635  0.00  0.00    +0.000 A 
ATOM     13  C   UNL     1      10.566  12.454  20.832  0.00  0.00    +0.000 A 
ATOM     14  C   UNL     1      10.423  13.384  19.814  0.00  0.00    +0.000 A 
ATOM     15  C   UNL     1       9.890  12.994  18.584  0.00  0.00    +0.000 A 
ATOM     16  C   UNL     1       9.516  11.658  18.368  0.00  0.00    +0.000 A 
ATOM     17  O   UNL     1       9.771  13.865  17.532  0.00  0.00    +0.000 OA
ATOM     18  C   UNL     1       8.879  14.947  17.832  0.00  0.00    +0.000 C 
ATOM     19  C   UNL     1       9.530  16.060  18.645  0.00  0.00    +0.000 C 
ATOM     20  C   UNL     1       9.855  15.603  20.058  0.00  0.00    +0.000 C 
ATOM     21  O   UNL     1      10.905  14.639  20.057  0.00  0.00    +0.000 OA
ENDBRANCH   9  11
ENDBRANCH   1   8
BRANCH   5  22
ATOM     22  S   UNL     1       5.699   5.118  15.766  0.00  0.00    +0.000 S 
ATOM     23  O   UNL     1       5.279   6.232  14.950  0.00  0.00    +0.000 OA
ATOM     24  O   UNL     1       6.449   4.005  15.225  0.00  0.00    +0.000 OA
BRANCH  22  25
ATOM     25  N   UNL     1       4.354   4.455  16.529  0.00  0.00    +0.000 NA
ATOM     26  H   UNL     1       4.495   3.493  16.830  0.00  0.00    +0.000 HD
BRANCH  25  27
ATOM     27  C   UNL     1       3.686   5.307  17.520  0.00  0.00    +0.000 C 
BRANCH  27  28
ATOM     28  C   UNL     1       2.655   4.538  18.306  0.00  0.00    +0.000 A 
ATOM     29  C   UNL     1       2.138   3.331  17.818  0.00  0.00    +0.000 A 
ATOM     30  C   UNL     1       1.204   2.611  18.563  0.00  0.00    +0.000 A 
ATOM     31  C   UNL     1       0.780   3.090  19.801  0.00  0.00    +0.000 A 
ATOM     32  C   UNL     1       1.289   4.289  20.298  0.00  0.00    +0.000 A 
ATOM     33  C   UNL     1       2.223   5.010  19.554  0.00  0.00    +0.000 A 
ENDBRANCH  27  28
ENDBRANCH  25  27
ENDBRANCH  22  25
ENDBRANCH   5  22
TORSDOF 6
ENDMDL
MODEL 5
REMARK VINA RESULT:      -8.7      1.088      1.802
REMARK  Name = 
REMARK  6 active torsions:
REMARK  status: ('A' for Active; 'I' for Inactive)
REMARK    1  A    between atoms: C_2  and  C_15
REMARK    2  A    between atoms: N_3  and  C_4
REMARK    3  A    between atoms: C_19  and  S_20
REMARK    4  A    between atoms: S_20  and  N_23
REMARK    5  A    between atoms: N_23  and  C_24
REMARK    6  A    between atoms: C_24  and  C_25
REMARK                            x       y       z     vdW  Elec       q    Type
REMARK                         _______ _______ _______ _____ _____    ______ ____
ROOT
ATOM      1  C   UNL     1       7.670   7.674  18.032  0.00  0.00    +0.000 A 
ATOM      2  C   UNL     1       8.312   6.899  19.012  0.00  0.00    +0.000 A 
ATOM      3  C   UNL     1       8.113   5.523  19.075  0.00  0.00    +0.000 A 
ATOM      4  C   UNL     1       7.274   4.908  18.152  0.00  0.00    +0.000 A 
ATOM      5  C   UNL     1       6.637   5.674  17.166  0.00  0.00    +0.000 A 
ATOM      6  C   UNL     1       6.826   7.062  17.099  0.00  0.00    +0.000 A 
ENDROOT
BRANCH   1   8
ATOM      7  O   UNL     1       7.506   9.764  17.074  0.00  0.00    +0.000 OA
ATOM      8  C   UNL     1       8.092   9.090  17.914  0.00  0.00    +0.000 C 
ATOM      9  N   UNL     1       9.140   9.522  18.719  0.00  0.00    +0.000 N 
ATOM     10  H   UNL     1       9.735   8.824  19.144  0.00  0.00    +0.000 HD
BRANCH   9  11
ATOM     11  C   UNL     1       9.567  10.874  18.787  0.00  0.00    +0.000 A 
ATOM     12  C   UNL     1      10.512  11.396  17.894  0.00  0.00    +0.000 A 
ATOM     13  C   UNL     1      10.937  12.721  17.983  0.00  0.00    +0.000 A 
ATOM     14  C   UNL     1      10.442  13.537  18.988  0.00  0.00    +0.000 A 
ATOM     15  C   UNL     1       9.495  13.040  19.885  0.00  0.00    +0.000 A 
ATOM     16  C   UNL     1       9.025  11.723  19.760  0.00  0.00    +0.000 A 
ATOM     17  O   UNL     1       8.942  13.821  20.867  0.00  0.00    +0.000 OA
ATOM     18  C   UNL     1       9.926  14.275  21.807  0.00  0.00    +0.000 C 
ATOM     19  C   UNL     1      10.711  15.488  21.321  0.00  0.00    +0.000 C 
ATOM     20  C   UNL     1      11.620  15.136  20.155  0.00  0.00    +0.000 C 
ATOM     21  O   UNL     1      10.863  14.836  18.985  0.00  0.00    +0.000 OA
ENDBRANCH   9  11
ENDBRANCH   1   8
BRANCH   5  22
ATOM     22  S   UNL     1       5.722   4.831  15.890  0.00  0.00    +0.000 S 
ATOM     23  O   UNL     1       5.411   5.808  14.874  0.00  0.00    +0.000 OA
ATOM     24  O   UNL     1       6.432   3.607  15.591  0.00  0.00    +0.000 OA
BRANCH  22  25
ATOM     25  N   UNL     1       4.302   4.377  16.669  0.00  0.00    +0.000 NA
ATOM     26  H   UNL     1       4.351   3.451  17.089  0.00  0.00    +0.000 HD
BRANCH  25  27
ATOM     27  C   UNL     1       3.676   5.395  17.523  0.00  0.00    +0.000 C 
BRANCH  27  28
ATOM     28  C   UNL     1       2.693   4.782  18.487  0.00  0.00    +0.000 A 
ATOM     29  C   UNL     1       1.888   3.703  18.096  0.00  0.00    +0.000 A 
ATOM     30  C   UNL     1       0.999   3.123  19.002  0.00  0.00    +0.000 A 
ATOM     31  C   UNL     1       0.908   3.614  20.303  0.00  0.00    +0.000 A 
ATOM     32  C   UNL     1       1.707   4.685  20.702  0.00  0.00    +0.000 A 
ATOM     33  C   UNL     1       2.596   5.267  19.799  0.00  0.00    +0.000 A 
ENDBRANCH  27  28
ENDBRANCH  25  27
ENDBRANCH  22  25
ENDBRANCH   5  22
TORSDOF 6
ENDMDL
MODEL 6
REMARK VINA RESULT:      -8.7      5.795      8.822
REMARK  Name = 
REMARK  6 active torsions:
REMARK  status: ('A' for Active; 'I' for Inactive)
REMARK    1  A    between atoms: C_2  and  C_15
REMARK    2  A    between atoms: N_3  and  C_4
REMARK    3  A    between atoms: C_19  and  S_20
REMARK    4  A    between atoms: S_20  and  N_23
REMARK    5  A    between atoms: N_23  and  C_24
REMARK    6  A    between atoms: C_24  and  C_25
REMARK                            x       y       z     vdW  Elec       q    Type
REMARK                         _______ _______ _______ _____ _____    ______ ____
ROOT
ATOM      1  C   UNL     1       3.280   6.839  18.333  0.00  0.00    +0.000 A 
ATOM      2  C   UNL     1       2.786   5.855  19.206  0.00  0.00    +0.000 A 
ATOM      3  C   UNL     1       3.576   4.769  19.574  0.00  0.00    +0.000 A 
ATOM      4  C   UNL     1       4.870   4.662  19.078  0.00  0.00    +0.000 A 
ATOM      5  C   UNL     1       5.372   5.645  18.214  0.00  0.00    +0.000 A 
ATOM      6  C   UNL     1       4.581   6.739  17.832  0.00  0.00    +0.000 A 
ENDROOT
BRANCH   1   8
ATOM      7  O   UNL     1       2.625   8.686  17.119  0.00  0.00    +0.000 OA
ATOM      8  C   UNL     1       2.449   8.054  18.154  0.00  0.00    +0.000 C 
ATOM      9  N   UNL     1       1.584   8.404  19.185  0.00  0.00    +0.000 N 
ATOM     10  H   UNL     1       1.737   7.994  20.097  0.00  0.00    +0.000 HD
BRANCH   9  11
ATOM     11  C   UNL     1       0.656   9.475  19.097  0.00  0.00    +0.000 A 
ATOM     12  C   UNL     1       0.715  10.576  19.960  0.00  0.00    +0.000 A 
ATOM     13  C   UNL     1      -0.213  11.613  19.875  0.00  0.00    +0.000 A 
ATOM     14  C   UNL     1      -1.235  11.547  18.941  0.00  0.00    +0.000 A 
ATOM     15  C   UNL     1      -1.310  10.462  18.065  0.00  0.00    +0.000 A 
ATOM     16  C   UNL     1      -0.341   9.447  18.114  0.00  0.00    +0.000 A 
ATOM     17  O   UNL     1      -2.274  10.375  17.094  0.00  0.00    +0.000 OA
ATOM     18  C   UNL     1      -3.591  10.303  17.654  0.00  0.00    +0.000 C 
ATOM     19  C   UNL     1      -4.154  11.663  18.052  0.00  0.00    +0.000 C 
ATOM     20  C   UNL     1      -3.408  12.252  19.238  0.00  0.00    +0.000 C 
ATOM     21  O   UNL     1      -2.079  12.620  18.878  0.00  0.00    +0.000 OA
ENDBRANCH   9  11
ENDBRANCH   1   8
BRANCH   5  22
ATOM     22  S   UNL     1       7.091   5.576  17.748  0.00  0.00    +0.000 S 
ATOM     23  O   UNL     1       7.381   6.782  17.011  0.00  0.00    +0.000 OA
ATOM     24  O   UNL     1       7.838   5.194  18.927  0.00  0.00    +0.000 OA
BRANCH  22  25
ATOM     25  N   UNL     1       7.154   4.261  16.701  0.00  0.00    +0.000 NA
ATOM     26  H   UNL     1       7.447   3.398  17.155  0.00  0.00    +0.000 HD
BRANCH  25  27
ATOM     27  C   UNL     1       6.017   4.106  15.786  0.00  0.00    +0.000 C 
BRANCH  27  28
ATOM     28  C   UNL     1       6.448   4.202  14.344  0.00  0.00    +0.000 A 
ATOM     29  C   UNL     1       7.378   5.169  13.940  0.00  0.00    +0.000 A 
ATOM     30  C   UNL     1       7.793   5.235  12.609  0.00  0.00    +0.000 A 
ATOM     31  C   UNL     1       7.285   4.336  11.674  0.00  0.00    +0.000 A 
ATOM     32  C   UNL     1       6.361   3.368  12.066  0.00  0.00    +0.000 A 
ATOM     33  C   UNL     1       5.944   3.300  13.396  0.00  0.00    +0.000 A 
ENDBRANCH  27  28
ENDBRANCH  25  27
ENDBRANCH  22  25
ENDBRANCH   5  22
TORSDOF 6
ENDMDL
MODEL 7
REMARK VINA RESULT:      -8.5      2.725      3.522
REMARK  Name = 
REMARK  6 active torsions:
REMARK  status: ('A' for Active; 'I' for Inactive)
REMARK    1  A    between atoms: C_2  and  C_15
REMARK    2  A    between atoms: N_3  and  C_4
REMARK    3  A    between atoms: C_19  and  S_20
REMARK    4  A    between atoms: S_20  and  N_23
REMARK    5  A    between atoms: N_23  and  C_24
REMARK    6  A    between atoms: C_24  and  C_25
REMARK                            x       y       z     vdW  Elec       q    Type
REMARK                         _______ _______ _______ _____ _____    ______ ____
ROOT
ATOM      1  C   UNL     1       6.850   6.083  17.516  0.00  0.00    +0.000 A 
ATOM      2  C   UNL     1       6.670   6.134  16.124  0.00  0.00    +0.000 A 
ATOM      3  C   UNL     1       5.785   5.267  15.488  0.00  0.00    +0.000 A 
ATOM      4  C   UNL     1       5.067   4.345  16.241  0.00  0.00    +0.000 A 
ATOM      5  C   UNL     1       5.236   4.294  17.632  0.00  0.00    +0.000 A 
ATOM      6  C   UNL     1       6.130   5.159  18.280  0.00  0.00    +0.000 A 
ENDROOT
BRANCH   1   8
ATOM      7  O   UNL     1       8.414   6.837  19.032  0.00  0.00    +0.000 OA
ATOM      8  C   UNL     1       7.655   7.167  18.128  0.00  0.00    +0.000 C 
ATOM      9  N   UNL     1       7.449   8.463  17.670  0.00  0.00    +0.000 N 
ATOM     10  H   UNL     1       6.603   8.658  17.150  0.00  0.00    +0.000 HD
BRANCH   9  11
ATOM     11  C   UNL     1       8.228   9.574  18.089  0.00  0.00    +0.000 A 
ATOM     12  C   UNL     1       9.169   9.468  19.122  0.00  0.00    +0.000 A 
ATOM     13  C   UNL     1       9.915  10.570  19.536  0.00  0.00    +0.000 A 
ATOM     14  C   UNL     1       9.708  11.805  18.940  0.00  0.00    +0.000 A 
ATOM     15  C   UNL     1       8.781  11.932  17.904  0.00  0.00    +0.000 A 
ATOM     16  C   UNL     1       8.071  10.810  17.450  0.00  0.00    +0.000 A 
ATOM     17  O   UNL     1       8.574  13.121  17.253  0.00  0.00    +0.000 OA
ATOM     18  C   UNL     1       8.068  14.132  18.135  0.00  0.00    +0.000 C 
ATOM     19  C   UNL     1       9.153  14.807  18.967  0.00  0.00    +0.000 C 
ATOM     20  C   UNL     1       9.746  13.854  19.992  0.00  0.00    +0.000 C 
ATOM     21  O   UNL     1      10.509  12.829  19.359  0.00  0.00    +0.000 OA
ENDBRANCH   9  11
ENDBRANCH   1   8
BRANCH   5  22
ATOM     22  S   UNL     1       4.166   3.233  18.584  0.00  0.00    +0.000 S 
ATOM     23  O   UNL     1       3.755   2.155  17.716  0.00  0.00    +0.000 OA
ATOM     24  O   UNL     1       4.818   2.996  19.853  0.00  0.00    +0.000 OA
BRANCH  22  25
ATOM     25  N   UNL     1       2.839   4.215  18.909  0.00  0.00    +0.000 NA
ATOM     26  H   UNL     1       1.966   3.698  18.989  0.00  0.00    +0.000 HD
BRANCH  25  27
ATOM     27  C   UNL     1       3.030   5.242  19.941  0.00  0.00    +0.000 C 
BRANCH  27  28
ATOM     28  C   UNL     1       2.587   6.600  19.459  0.00  0.00    +0.000 A 
ATOM     29  C   UNL     1       2.904   7.038  18.167  0.00  0.00    +0.000 A 
ATOM     30  C   UNL     1       2.468   8.285  17.718  0.00  0.00    +0.000 A 
ATOM     31  C   UNL     1       1.711   9.103  18.555  0.00  0.00    +0.000 A 
ATOM     32  C   UNL     1       1.389   8.676  19.843  0.00  0.00    +0.000 A 
ATOM     33  C   UNL     1       1.823   7.430  20.293  0.00  0.00    +0.000 A 
ENDBRANCH  27  28
ENDBRANCH  25  27
ENDBRANCH  22  25
ENDBRANCH   5  22
TORSDOF 6
ENDMDL
MODEL 8
REMARK VINA RESULT:      -8.5      7.064     10.190
REMARK  Name = 
REMARK  6 active torsions:
REMARK  status: ('A' for Active; 'I' for Inactive)
REMARK    1  A    between atoms: C_2  and  C_15
REMARK    2  A    between atoms: N_3  and  C_4
REMARK    3  A    between atoms: C_19  and  S_20
REMARK    4  A    between atoms: S_20  and  N_23
REMARK    5  A    between atoms: N_23  and  C_24
REMARK    6  A    between atoms: C_24  and  C_25
REMARK                            x       y       z     vdW  Elec       q    Type
REMARK                         _______ _______ _______ _____ _____    ______ ____
ROOT
ATOM      1  C   UNL     1       0.535   9.852  21.121  0.00  0.00    +0.000 A 
ATOM      2  C   UNL     1       0.049   9.269  22.303  0.00  0.00    +0.000 A 
ATOM      3  C   UNL     1      -0.739  10.003  23.186  0.00  0.00    +0.000 A 
ATOM      4  C   UNL     1      -1.052  11.325  22.891  0.00  0.00    +0.000 A 
ATOM      5  C   UNL     1      -0.577  11.910  21.709  0.00  0.00    +0.000 A 
ATOM      6  C   UNL     1       0.223  11.181  20.817  0.00  0.00    +0.000 A 
ENDROOT
BRANCH   1   8
ATOM      7  O   UNL     1       1.257   9.344  18.992  0.00  0.00    +0.000 OA
ATOM      8  C   UNL     1       1.194   8.946  20.149  0.00  0.00    +0.000 C 
ATOM      9  N   UNL     1       1.635   7.712  20.612  0.00  0.00    +0.000 N 
ATOM     10  H   UNL     1       1.268   7.372  21.491  0.00  0.00    +0.000 HD
BRANCH   9  11
ATOM     11  C   UNL     1       2.378   6.799  19.817  0.00  0.00    +0.000 A 
ATOM     12  C   UNL     1       2.483   5.443  20.154  0.00  0.00    +0.000 A 
ATOM     13  C   UNL     1       3.229   4.560  19.375  0.00  0.00    +0.000 A 
ATOM     14  C   UNL     1       3.908   5.030  18.261  0.00  0.00    +0.000 A 
ATOM     15  C   UNL     1       3.812   6.376  17.902  0.00  0.00    +0.000 A 
ATOM     16  C   UNL     1       3.014   7.252  18.655  0.00  0.00    +0.000 A 
ATOM     17  O   UNL     1       4.427   6.878  16.785  0.00  0.00    +0.000 OA
ATOM     18  C   UNL     1       5.854   6.767  16.864  0.00  0.00    +0.000 C 
ATOM     19  C   UNL     1       6.375   5.382  16.496  0.00  0.00    +0.000 C 
ATOM     20  C   UNL     1       5.983   4.343  17.534  0.00  0.00    +0.000 C 
ATOM     21  O   UNL     1       4.579   4.102  17.515  0.00  0.00    +0.000 OA
ENDBRANCH   9  11
ENDBRANCH   1   8
BRANCH   5  22
ATOM     22  S   UNL     1      -1.151  13.539  21.272  0.00  0.00    +0.000 S 
ATOM     23  O   UNL     1      -2.155  13.910  22.240  0.00  0.00    +0.000 OA
ATOM     24  O   UNL     1       0.020  14.353  21.024  0.00  0.00    +0.000 OA
BRANCH  22  25
ATOM     25  N   UNL     1      -1.886  13.302  19.778  0.00  0.00    +0.000 NA
ATOM     26  H   UNL     1      -1.223  13.212  19.011  0.00  0.00    +0.000 HD
BRANCH  25  27
ATOM     27  C   UNL     1      -2.984  12.327  19.743  0.00  0.00    +0.000 C 
BRANCH  27  28
ATOM     28  C   UNL     1      -2.970  11.522  18.468  0.00  0.00    +0.000 A 
ATOM     29  C   UNL     1      -1.962  10.578  18.231  0.00  0.00    +0.000 A 
ATOM     30  C   UNL     1      -1.971   9.817  17.061  0.00  0.00    +0.000 A 
ATOM     31  C   UNL     1      -2.984   9.993  16.121  0.00  0.00    +0.000 A 
ATOM     32  C   UNL     1      -3.992  10.929  16.348  0.00  0.00    +0.000 A 
ATOM     33  C   UNL     1      -3.986  11.690  17.517  0.00  0.00    +0.000 A 
ENDBRANCH  27  28
ENDBRANCH  25  27
ENDBRANCH  22  25
ENDBRANCH   5  22
TORSDOF 6
ENDMDL
MODEL 9
REMARK VINA RESULT:      -8.4      5.274      7.468
REMARK  Name = 
REMARK  6 active torsions:
REMARK  status: ('A' for Active; 'I' for Inactive)
REMARK    1  A    between atoms: C_2  and  C_15
REMARK    2  A    between atoms: N_3  and  C_4
REMARK    3  A    between atoms: C_19  and  S_20
REMARK    4  A    between atoms: S_20  and  N_23
REMARK    5  A    between atoms: N_23  and  C_24
REMARK    6  A    between atoms: C_24  and  C_25
REMARK                            x       y       z     vdW  Elec       q    Type
REMARK                         _______ _______ _______ _____ _____    ______ ____
ROOT
ATOM      1  C   UNL     1       2.059   6.180  19.619  0.00  0.00    +0.000 A 
ATOM      2  C   UNL     1       2.111   5.788  20.967  0.00  0.00    +0.000 A 
ATOM      3  C   UNL     1       2.403   4.471  21.314  0.00  0.00    +0.000 A 
ATOM      4  C   UNL     1       2.652   3.537  20.316  0.00  0.00    +0.000 A 
ATOM      5  C   UNL     1       2.610   3.924  18.969  0.00  0.00    +0.000 A 
ATOM      6  C   UNL     1       2.311   5.245  18.609  0.00  0.00    +0.000 A 
ENDROOT
BRANCH   1   8
ATOM      7  O   UNL     1       2.663   8.083  18.466  0.00  0.00    +0.000 OA
ATOM      8  C   UNL     1       1.940   7.632  19.347  0.00  0.00    +0.000 C 
ATOM      9  N   UNL     1       1.066   8.368  20.140  0.00  0.00    +0.000 N 
ATOM     10  H   UNL     1       0.757   7.964  21.013  0.00  0.00    +0.000 HD
BRANCH   9  11
ATOM     11  C   UNL     1       0.774   9.740  19.915  0.00  0.00    +0.000 A 
ATOM     12  C   UNL     1       0.006  10.162  18.823  0.00  0.00    +0.000 A 
ATOM     13  C   UNL     1      -0.260  11.513  18.604  0.00  0.00    +0.000 A 
ATOM     14  C   UNL     1       0.268  12.466  19.462  0.00  0.00    +0.000 A 
ATOM     15  C   UNL     1       1.031  12.068  20.561  0.00  0.00    +0.000 A 
ATOM     16  C   UNL     1       1.249  10.704  20.813  0.00  0.00    +0.000 A 
ATOM     17  O   UNL     1       1.534  12.969  21.463  0.00  0.00    +0.000 OA
ATOM     18  C   UNL     1       2.469  13.869  20.854  0.00  0.00    +0.000 C 
ATOM     19  C   UNL     1       1.803  15.023  20.114  0.00  0.00    +0.000 C 
ATOM     20  C   UNL     1       1.071  14.543  18.872  0.00  0.00    +0.000 C 
ATOM     21  O   UNL     1      -0.074  13.766  19.218  0.00  0.00    +0.000 OA
ENDBRANCH   9  11
ENDBRANCH   1   8
BRANCH   5  22
ATOM     22  S   UNL     1       3.117   2.750  17.727  0.00  0.00    +0.000 S 
ATOM     23  O   UNL     1       3.014   1.436  18.317  0.00  0.00    +0.000 OA
ATOM     24  O   UNL     1       2.433   3.101  16.502  0.00  0.00    +0.000 OA
BRANCH  22  25
ATOM     25  N   UNL     1       4.740   3.119  17.486  0.00  0.00    +0.000 NA
ATOM     26  H   UNL     1       5.323   2.298  17.336  0.00  0.00    +0.000 HD
BRANCH  25  27
ATOM     27  C   UNL     1       5.023   4.235  16.575  0.00  0.00    +0.000 C 
BRANCH  27  28
ATOM     28  C   UNL     1       6.026   5.193  17.165  0.00  0.00    +0.000 A 
ATOM     29  C   UNL     1       6.095   6.520  16.720  0.00  0.00    +0.000 A 
ATOM     30  C   UNL     1       7.008   7.408  17.290  0.00  0.00    +0.000 A 
ATOM     31  C   UNL     1       7.858   6.978  18.307  0.00  0.00    +0.000 A 
ATOM     32  C   UNL     1       7.796   5.660  18.759  0.00  0.00    +0.000 A 
ATOM     33  C   UNL     1       6.885   4.771  18.191  0.00  0.00    +0.000 A 
ENDBRANCH  27  28
ENDBRANCH  25  27
ENDBRANCH  22  25
ENDBRANCH   5  22
TORSDOF 6
ENDMDL
