MODEL 1
REMARK VINA RESULT:      -8.5      0.000      0.000
REMARK  Name = 
REMARK  5 active torsions:
REMARK  status: ('A' for Active; 'I' for Inactive)
REMARK    1  A    between atoms: C_2  and  C_21
REMARK    2  A    between atoms: N_3  and  C_4
REMARK    3  A    between atoms: C_4  and  C_5
REMARK    4  A    between atoms: C_4  and  C_12
REMARK    5  A    between atoms: C_5  and  C_6
REMARK                            x       y       z     vdW  Elec       q    Type
REMARK                         _______ _______ _______ _____ _____    ______ ____
ROOT
ATOM      1  C   UNL     1       4.652   4.402  17.444  0.00  0.00    +0.000 C 
ENDROOT
BRANCH   1   2
ATOM      2  C   UNL     1       5.553   4.409  16.231  0.00  0.00    +0.000 A 
ATOM      3  N   UNL     1       6.554   5.208  15.899  0.00  0.00    +0.000 NA
ATOM      4  C   UNL     1       6.843   4.897  14.578  0.00  0.00    +0.000 A 
ATOM      5  C   UNL     1       7.755   5.465  13.674  0.00  0.00    +0.000 A 
ATOM      6  C   UNL     1       7.752   5.022  12.338  0.00  0.00    +0.000 A 
ATOM      7  C   UNL     1       6.868   4.027  11.909  0.00  0.00    +0.000 A 
ATOM      8  C   UNL     1       5.993   3.412  12.805  0.00  0.00    +0.000 A 
ATOM      9  C   UNL     1       6.027   3.871  14.122  0.00  0.00    +0.000 A 
ATOM     10  N   UNL     1       5.334   3.486  15.233  0.00  0.00    +0.000 N 
ATOM     11  H   UNL     1       4.649   2.750  15.260  0.00  0.00    +0.000 HD
ENDBRANCH   1   2
BRANCH   1  14
ATOM     12  O   UNL     1       4.228   5.906  19.694  0.00  0.00    +0.000 OA
ATOM     13  C   UNL     1       3.603   6.228  18.683  0.00  0.00    +0.000 C 
ATOM     14  N   UNL     1       3.750   5.540  17.495  0.00  0.00    +0.000 N 
ATOM     15  H   UNL     1       3.200   5.754  16.667  0.00  0.00    +0.000 HD
BRANCH  13  16
ATOM     16  C   UNL     1       2.730   7.430  18.757  0.00  0.00    +0.000 A 
ATOM     17  C   UNL     1       2.929   8.378  17.730  0.00  0.00    +0.000 A 
ATOM     18  C   UNL     1       2.136   9.520  17.629  0.00  0.00    +0.000 A 
ATOM     19  C   UNL     1       1.135   9.744  18.564  0.00  0.00    +0.000 A 
ATOM     20  C   UNL     1       0.960   8.842  19.619  0.00  0.00    +0.000 A 
ATOM     21  C   UNL     1       1.762   7.691  19.727  0.00  0.00    +0.000 A 
ATOM     22 CL   UNL     1       1.521   6.709  21.126  0.00  0.00    +0.000 Cl
ENDBRANCH  13  16
ENDBRANCH   1  14
BRANCH   1  23
ATOM     23  C   UNL     1       3.927   3.034  17.589  0.00  0.00    +0.000 C 
BRANCH  23  24
ATOM     24  C   UNL     1       3.004   2.880  18.777  0.00  0.00    +0.000 A 
ATOM     25  C   UNL     1       3.514   2.683  20.067  0.00  0.00    +0.000 A 
ATOM     26  C   UNL     1       2.657   2.622  21.166  0.00  0.00    +0.000 A 
ATOM     27  C   UNL     1       1.281   2.752  20.986  0.00  0.00    +0.000 A 
ATOM     28  C   UNL     1       0.762   2.921  19.705  0.00  0.00    +0.000 A 
ATOM     29  C   UNL     1       1.618   2.981  18.604  0.00  0.00    +0.000 A 
ENDBRANCH  23  24
ENDBRANCH   1  23
TORSDOF 5
ENDMDL
MODEL 2
REMARK VINA RESULT:      -8.1      3.130      5.274
REMARK  Name = 
REMARK  5 active torsions:
REMARK  status: ('A' for Active; 'I' for Inactive)
REMARK    1  A    between atoms: C_2  and  C_21
REMARK    2  A    between atoms: N_3  and  C_4
REMARK    3  A    between atoms: C_4  and  C_5
REMARK    4  A    between atoms: C_4  and  C_12
REMARK    5  A    between atoms: C_5  and  C_6
REMARK                            x       y       z     vdW  Elec       q    Type
REMARK                         _______ _______ _______ _____ _____    ______ ____
ROOT
ATOM      1  C   UNL     1       6.304   5.927  17.484  0.00  0.00    +0.000 C 
ENDROOT
BRANCH   1   2
ATOM      2  C   UNL     1       6.642   5.343  16.132  0.00  0.00    +0.000 A 
ATOM      3  N   UNL     1       7.563   5.685  15.245  0.00  0.00    +0.000 NA
ATOM      4  C   UNL     1       7.248   4.967  14.100  0.00  0.00    +0.000 A 
ATOM      5  C   UNL     1       7.822   4.974  12.819  0.00  0.00    +0.000 A 
ATOM      6  C   UNL     1       7.213   4.221  11.799  0.00  0.00    +0.000 A 
ATOM      7  C   UNL     1       6.063   3.466  12.046  0.00  0.00    +0.000 A 
ATOM      8  C   UNL     1       5.509   3.403  13.326  0.00  0.00    +0.000 A 
ATOM      9  C   UNL     1       6.142   4.156  14.314  0.00  0.00    +0.000 A 
ATOM     10  N   UNL     1       5.881   4.304  15.646  0.00  0.00    +0.000 N 
ATOM     11  H   UNL     1       5.136   3.845  16.143  0.00  0.00    +0.000 HD
ENDBRANCH   1   2
BRANCH   1  14
ATOM     12  O   UNL     1       3.608   6.394  17.626  0.00  0.00    +0.000 OA
ATOM     13  C   UNL     1       4.040   5.432  18.260  0.00  0.00    +0.000 C 
ATOM     14  N   UNL     1       5.382   5.104  18.249  0.00  0.00    +0.000 N 
ATOM     15  H   UNL     1       5.765   4.349  18.811  0.00  0.00    +0.000 HD
BRANCH  13  16
ATOM     16  C   UNL     1       3.061   4.580  18.987  0.00  0.00    +0.000 A 
ATOM     17  C   UNL     1       2.369   5.226  20.035  0.00  0.00    +0.000 A 
ATOM     18  C   UNL     1       1.371   4.574  20.759  0.00  0.00    +0.000 A 
ATOM     19  C   UNL     1       1.056   3.257  20.458  0.00  0.00    +0.000 A 
ATOM     20  C   UNL     1       1.769   2.586  19.458  0.00  0.00    +0.000 A 
ATOM     21  C   UNL     1       2.780   3.239  18.729  0.00  0.00    +0.000 A 
ATOM     22 CL   UNL     1       3.657   2.279  17.594  0.00  0.00    +0.000 Cl
ENDBRANCH  13  16
ENDBRANCH   1  14
BRANCH   1  23
ATOM     23  C   UNL     1       7.595   6.298  18.268  0.00  0.00    +0.000 C 
BRANCH  23  24
ATOM     24  C   UNL     1       7.962   7.764  18.312  0.00  0.00    +0.000 A 
ATOM     25  C   UNL     1       8.870   8.253  19.260  0.00  0.00    +0.000 A 
ATOM     26  C   UNL     1       9.263   9.592  19.242  0.00  0.00    +0.000 A 
ATOM     27  C   UNL     1       8.748  10.457  18.278  0.00  0.00    +0.000 A 
ATOM     28  C   UNL     1       7.824   9.987  17.347  0.00  0.00    +0.000 A 
ATOM     29  C   UNL     1       7.430   8.649  17.365  0.00  0.00    +0.000 A 
ENDBRANCH  23  24
ENDBRANCH   1  23
TORSDOF 5
ENDMDL
MODEL 3
REMARK VINA RESULT:      -8.0      4.436      7.977
REMARK  Name = 
REMARK  5 active torsions:
REMARK  status: ('A' for Active; 'I' for Inactive)
REMARK    1  A    between atoms: C_2  and  C_21
REMARK    2  A    between atoms: N_3  and  C_4
REMARK    3  A    between atoms: C_4  and  C_5
REMARK    4  A    between atoms: C_4  and  C_12
REMARK    5  A    between atoms: C_5  and  C_6
REMARK                            x       y       z     vdW  Elec       q    Type
REMARK                         _______ _______ _______ _____ _____    ______ ____
ROOT
ATOM      1  C   UNL     1       0.695   9.756  20.346  0.00  0.00    +0.000 C 
ENDROOT
BRANCH   1   2
ATOM      2  C   UNL     1       1.474   8.497  20.042  0.00  0.00    +0.000 A 
ATOM      3  N   UNL     1       2.139   8.128  18.960  0.00  0.00    +0.000 NA
ATOM      4  C   UNL     1       2.438   6.788  19.157  0.00  0.00    +0.000 A 
ATOM      5  C   UNL     1       3.062   5.848  18.320  0.00  0.00    +0.000 A 
ATOM      6  C   UNL     1       3.126   4.506  18.736  0.00  0.00    +0.000 A 
ATOM      7  C   UNL     1       2.590   4.104  19.963  0.00  0.00    +0.000 A 
ATOM      8  C   UNL     1       2.015   5.032  20.832  0.00  0.00    +0.000 A 
ATOM      9  C   UNL     1       1.974   6.354  20.391  0.00  0.00    +0.000 A 
ATOM     10  N   UNL     1       1.509   7.493  20.983  0.00  0.00    +0.000 N 
ATOM     11  H   UNL     1       1.102   7.540  21.903  0.00  0.00    +0.000 HD
ENDBRANCH   1   2
BRANCH   1  14
ATOM     12  O   UNL     1       0.109  11.676  18.482  0.00  0.00    +0.000 OA
ATOM     13  C   UNL     1      -0.768  10.846  18.720  0.00  0.00    +0.000 C 
ATOM     14  N   UNL     1      -0.572   9.832  19.637  0.00  0.00    +0.000 N 
ATOM     15  H   UNL     1      -1.303   9.173  19.889  0.00  0.00    +0.000 HD
BRANCH  13  16
ATOM     16  C   UNL     1      -2.031  10.922  17.937  0.00  0.00    +0.000 A 
ATOM     17  C   UNL     1      -1.988  10.300  16.670  0.00  0.00    +0.000 A 
ATOM     18  C   UNL     1      -3.117  10.230  15.855  0.00  0.00    +0.000 A 
ATOM     19  C   UNL     1      -4.309  10.794  16.286  0.00  0.00    +0.000 A 
ATOM     20  C   UNL     1      -4.355  11.461  17.516  0.00  0.00    +0.000 A 
ATOM     21  C   UNL     1      -3.216  11.538  18.339  0.00  0.00    +0.000 A 
ATOM     22 CL   UNL     1      -3.368  12.472  19.781  0.00  0.00    +0.000 Cl
ENDBRANCH  13  16
ENDBRANCH   1  14
BRANCH   1  23
ATOM     23  C   UNL     1       0.556   9.967  21.880  0.00  0.00    +0.000 C 
BRANCH  23  24
ATOM     24  C   UNL     1      -0.323  11.112  22.329  0.00  0.00    +0.000 A 
ATOM     25  C   UNL     1      -0.044  12.430  21.943  0.00  0.00    +0.000 A 
ATOM     26  C   UNL     1      -0.906  13.470  22.296  0.00  0.00    +0.000 A 
ATOM     27  C   UNL     1      -2.052  13.202  23.043  0.00  0.00    +0.000 A 
ATOM     28  C   UNL     1      -2.323  11.900  23.454  0.00  0.00    +0.000 A 
ATOM     29  C   UNL     1      -1.462  10.860  23.103  0.00  0.00    +0.000 A 
ENDBRANCH  23  24
ENDBRANCH   1  23
TORSDOF 5
ENDMDL
MODEL 4
REMARK VINA RESULT:      -7.9      2.603      6.153
REMARK  Name = 
REMARK  5 active torsions:
REMARK  status: ('A' for Active; 'I' for Inactive)
REMARK    1  A    between atoms: C_2  and  C_21
REMARK    2  A    between atoms: N_3  and  C_4
REMARK    3  A    between atoms: C_4  and  C_5
REMARK    4  A    between atoms: C_4  and  C_12
REMARK    5  A    between atoms: C_5  and  C_6
REMARK                            x       y       z     vdW  Elec       q    Type
REMARK                         _______ _______ _______ _____ _____    ______ ____
ROOT
ATOM      1  C   UNL     1       3.195   7.398  17.923  0.00  0.00    +0.000 C 
ENDROOT
BRANCH   1   2
ATOM      2  C   UNL     1       2.854   6.029  18.463  0.00  0.00    +0.000 A 
ATOM      3  N   UNL     1       2.286   4.985  17.884  0.00  0.00    +0.000 NA
ATOM      4  C   UNL     1       2.003   4.105  18.919  0.00  0.00    +0.000 A 
ATOM      5  C   UNL     1       1.337   2.868  18.923  0.00  0.00    +0.000 A 
ATOM      6  C   UNL     1       1.083   2.240  20.156  0.00  0.00    +0.000 A 
ATOM      7  C   UNL     1       1.488   2.821  21.361  0.00  0.00    +0.000 A 
ATOM      8  C   UNL     1       2.199   4.022  21.373  0.00  0.00    +0.000 A 
ATOM      9  C   UNL     1       2.440   4.614  20.134  0.00  0.00    +0.000 A 
ATOM     10  N   UNL     1       3.106   5.755  19.789  0.00  0.00    +0.000 N 
ATOM     11  H   UNL     1       3.560   6.376  20.437  0.00  0.00    +0.000 HD
ENDBRANCH   1   2
BRANCH   1  14
ATOM     12  O   UNL     1       1.115   9.005  17.149  0.00  0.00    +0.000 OA
ATOM     13  C   UNL     1       1.620   9.238  18.247  0.00  0.00    +0.000 C 
ATOM     14  N   UNL     1       2.668   8.483  18.735  0.00  0.00    +0.000 N 
ATOM     15  H   UNL     1       3.135   8.696  19.612  0.00  0.00    +0.000 HD
BRANCH  13  16
ATOM     16  C   UNL     1       1.020  10.320  19.074  0.00  0.00    +0.000 A 
ATOM     17  C   UNL     1      -0.048   9.916  19.905  0.00  0.00    +0.000 A 
ATOM     18  C   UNL     1      -0.661  10.805  20.787  0.00  0.00    +0.000 A 
ATOM     19  C   UNL     1      -0.226  12.122  20.845  0.00  0.00    +0.000 A 
ATOM     20  C   UNL     1       0.796  12.551  19.990  0.00  0.00    +0.000 A 
ATOM     21  C   UNL     1       1.413  11.658  19.095  0.00  0.00    +0.000 A 
ATOM     22 CL   UNL     1       2.587  12.327  18.022  0.00  0.00    +0.000 Cl
ENDBRANCH  13  16
ENDBRANCH   1  14
BRANCH   1  23
ATOM     23  C   UNL     1       4.720   7.522  17.644  0.00  0.00    +0.000 C 
BRANCH  23  24
ATOM     24  C   UNL     1       5.372   6.364  16.923  0.00  0.00    +0.000 A 
ATOM     25  C   UNL     1       5.093   6.104  15.575  0.00  0.00    +0.000 A 
ATOM     26  C   UNL     1       5.759   5.083  14.897  0.00  0.00    +0.000 A 
ATOM     27  C   UNL     1       6.709   4.309  15.561  0.00  0.00    +0.000 A 
ATOM     28  C   UNL     1       6.975   4.542  16.908  0.00  0.00    +0.000 A 
ATOM     29  C   UNL     1       6.308   5.562  17.587  0.00  0.00    +0.000 A 
ENDBRANCH  23  24
ENDBRANCH   1  23
TORSDOF 5
ENDMDL
MODEL 5
REMARK VINA RESULT:      -7.9      2.842      5.058
REMARK  Name = 
REMARK  5 active torsions:
REMARK  status: ('A' for Active; 'I' for Inactive)
REMARK    1  A    between atoms: C_2  and  C_21
REMARK    2  A    between atoms: N_3  and  C_4
REMARK    3  A    between atoms: C_4  and  C_5
REMARK    4  A    between atoms: C_4  and  C_12
REMARK    5  A    between atoms: C_5  and  C_6
REMARK                            x       y       z     vdW  Elec       q    Type
REMARK                         _______ _______ _______ _____ _____    ______ ____
ROOT
ATOM      1  C   UNL     1       6.152   5.912  17.339  0.00  0.00    +0.000 C 
ENDROOT
BRANCH   1   2
ATOM      2  C   UNL     1       6.522   5.320  15.999  0.00  0.00    +0.000 A 
ATOM      3  N   UNL     1       7.454   5.664  15.127  0.00  0.00    +0.000 NA
ATOM      4  C   UNL     1       7.170   4.932  13.983  0.00  0.00    +0.000 A 
ATOM      5  C   UNL     1       7.767   4.935  12.712  0.00  0.00    +0.000 A 
ATOM      6  C   UNL     1       7.186   4.164  11.688  0.00  0.00    +0.000 A 
ATOM      7  C   UNL     1       6.041   3.397  11.922  0.00  0.00    +0.000 A 
ATOM      8  C   UNL     1       5.465   3.339  13.192  0.00  0.00    +0.000 A 
ATOM      9  C   UNL     1       6.070   4.109  14.184  0.00  0.00    +0.000 A 
ATOM     10  N   UNL     1       5.782   4.267  15.510  0.00  0.00    +0.000 N 
ATOM     11  H   UNL     1       5.034   3.803  15.997  0.00  0.00    +0.000 HD
ENDBRANCH   1   2
BRANCH   1  14
ATOM     12  O   UNL     1       3.519   6.634  17.577  0.00  0.00    +0.000 OA
ATOM     13  C   UNL     1       3.860   5.586  18.124  0.00  0.00    +0.000 C 
ATOM     14  N   UNL     1       5.161   5.127  18.059  0.00  0.00    +0.000 N 
ATOM     15  H   UNL     1       5.475   4.296  18.552  0.00  0.00    +0.000 HD
BRANCH  13  16
ATOM     16  C   UNL     1       2.810   4.781  18.806  0.00  0.00    +0.000 A 
ATOM     17  C   UNL     1       2.651   3.467  18.315  0.00  0.00    +0.000 A 
ATOM     18  C   UNL     1       1.754   2.575  18.901  0.00  0.00    +0.000 A 
ATOM     19  C   UNL     1       0.989   2.985  19.983  0.00  0.00    +0.000 A 
ATOM     20  C   UNL     1       1.096   4.301  20.448  0.00  0.00    +0.000 A 
ATOM     21  C   UNL     1       1.996   5.206  19.855  0.00  0.00    +0.000 A 
ATOM     22 CL   UNL     1       1.965   6.826  20.447  0.00  0.00    +0.000 Cl
ENDBRANCH  13  16
ENDBRANCH   1  14
BRANCH   1  23
ATOM     23  C   UNL     1       7.422   6.222  18.180  0.00  0.00    +0.000 C 
BRANCH  23  24
ATOM     24  C   UNL     1       7.848   7.671  18.255  0.00  0.00    +0.000 A 
ATOM     25  C   UNL     1       8.785   8.100  19.204  0.00  0.00    +0.000 A 
ATOM     26  C   UNL     1       9.230   9.423  19.213  0.00  0.00    +0.000 A 
ATOM     27  C   UNL     1       8.739  10.331  18.277  0.00  0.00    +0.000 A 
ATOM     28  C   UNL     1       7.787   9.920  17.346  0.00  0.00    +0.000 A 
ATOM     29  C   UNL     1       7.340   8.599  17.336  0.00  0.00    +0.000 A 
ENDBRANCH  23  24
ENDBRANCH   1  23
TORSDOF 5
ENDMDL
MODEL 6
REMARK VINA RESULT:      -7.9      2.326      6.770
REMARK  Name = 
REMARK  5 active torsions:
REMARK  status: ('A' for Active; 'I' for Inactive)
REMARK    1  A    between atoms: C_2  and  C_21
REMARK    2  A    between atoms: N_3  and  C_4
REMARK    3  A    between atoms: C_4  and  C_5
REMARK    4  A    between atoms: C_4  and  C_12
REMARK    5  A    between atoms: C_5  and  C_6
REMARK                            x       y       z     vdW  Elec       q    Type
REMARK                         _______ _______ _______ _____ _____    ______ ____
ROOT
ATOM      1  C   UNL     1       2.217   7.052  18.857  0.00  0.00    +0.000 C 
ENDROOT
BRANCH   1   2
ATOM      2  C   UNL     1       1.916   8.521  18.676  0.00  0.00    +0.000 A 
ATOM      3  N   UNL     1       2.388   9.404  17.812  0.00  0.00    +0.000 NA
ATOM      4  C   UNL     1       1.946  10.636  18.272  0.00  0.00    +0.000 A 
ATOM      5  C   UNL     1       2.194  11.938  17.809  0.00  0.00    +0.000 A 
ATOM      6  C   UNL     1       1.705  13.027  18.553  0.00  0.00    +0.000 A 
ATOM      7  C   UNL     1       0.976  12.830  19.730  0.00  0.00    +0.000 A 
ATOM      8  C   UNL     1       0.673  11.543  20.177  0.00  0.00    +0.000 A 
ATOM      9  C   UNL     1       1.167  10.487  19.411  0.00  0.00    +0.000 A 
ATOM     10  N   UNL     1       1.044   9.134  19.548  0.00  0.00    +0.000 N 
ATOM     11  H   UNL     1       0.529   8.672  20.279  0.00  0.00    +0.000 HD
ENDBRANCH   1   2
BRANCH   1  14
ATOM     12  O   UNL     1       2.667   4.792  17.376  0.00  0.00    +0.000 OA
ATOM     13  C   UNL     1       3.643   5.502  17.616  0.00  0.00    +0.000 C 
ATOM     14  N   UNL     1       3.524   6.668  18.348  0.00  0.00    +0.000 N 
ATOM     15  H   UNL     1       4.326   7.236  18.606  0.00  0.00    +0.000 HD
BRANCH  13  16
ATOM     16  C   UNL     1       4.953   5.107  17.034  0.00  0.00    +0.000 A 
ATOM     17  C   UNL     1       4.924   4.779  15.661  0.00  0.00    +0.000 A 
ATOM     18  C   UNL     1       6.088   4.458  14.964  0.00  0.00    +0.000 A 
ATOM     19  C   UNL     1       7.304   4.446  15.631  0.00  0.00    +0.000 A 
ATOM     20  C   UNL     1       7.343   4.716  17.003  0.00  0.00    +0.000 A 
ATOM     21  C   UNL     1       6.170   5.035  17.712  0.00  0.00    +0.000 A 
ATOM     22 CL   UNL     1       6.330   5.248  19.416  0.00  0.00    +0.000 Cl
ENDBRANCH  13  16
ENDBRANCH   1  14
BRANCH   1  23
ATOM     23  C   UNL     1       1.976   6.612  20.329  0.00  0.00    +0.000 C 
BRANCH  23  24
ATOM     24  C   UNL     1       1.779   5.133  20.570  0.00  0.00    +0.000 A 
ATOM     25  C   UNL     1       0.786   4.417  19.890  0.00  0.00    +0.000 A 
ATOM     26  C   UNL     1       0.664   3.037  20.059  0.00  0.00    +0.000 A 
ATOM     27  C   UNL     1       1.531   2.360  20.914  0.00  0.00    +0.000 A 
ATOM     28  C   UNL     1       2.505   3.067  21.616  0.00  0.00    +0.000 A 
ATOM     29  C   UNL     1       2.627   4.446  21.448  0.00  0.00    +0.000 A 
ENDBRANCH  23  24
ENDBRANCH   1  23
TORSDOF 5
ENDMDL
MODEL 7
REMARK VINA RESULT:      -7.8      0.376      1.177
REMARK  Name = 
REMARK  5 active torsions:
REMARK  status: ('A' for Active; 'I' for Inactive)
REMARK    1  A    between atoms: C_2  and  C_21
REMARK    2  A    between atoms: N_3  and  C_4
REMARK    3  A    between atoms: C_4  and  C_5
REMARK    4  A    between atoms: C_4  and  C_12
REMARK    5  A    between atoms: C_5  and  C_6
REMARK                            x       y       z     vdW  Elec       q    Type
REMARK                         _______ _______ _______ _____ _____    ______ ____
ROOT
ATOM      1  C   UNL     1       4.332   4.394  17.222  0.00  0.00    +0.000 C 
ENDROOT
BRANCH   1   2
ATOM      2  C   UNL     1       4.922   4.413  15.832  0.00  0.00    +0.000 A 
ATOM      3  N   UNL     1       4.718   3.622  14.791  0.00  0.00    +0.000 NA
ATOM      4  C   UNL     1       5.705   3.963  13.877  0.00  0.00    +0.000 A 
ATOM      5  C   UNL     1       6.034   3.416  12.627  0.00  0.00    +0.000 A 
ATOM      6  C   UNL     1       7.179   3.889  11.959  0.00  0.00    +0.000 A 
ATOM      7  C   UNL     1       7.977   4.893  12.516  0.00  0.00    +0.000 A 
ATOM      8  C   UNL     1       7.635   5.487  13.732  0.00  0.00    +0.000 A 
ATOM      9  C   UNL     1       6.491   4.999  14.362  0.00  0.00    +0.000 A 
ATOM     10  N   UNL     1       5.876   5.359  15.527  0.00  0.00    +0.000 N 
ATOM     11  H   UNL     1       6.185   6.094  16.140  0.00  0.00    +0.000 HD
ENDBRANCH   1   2
BRANCH   1  14
ATOM     12  O   UNL     1       4.484   6.068  19.386  0.00  0.00    +0.000 OA
ATOM     13  C   UNL     1       3.563   6.266  18.593  0.00  0.00    +0.000 C 
ATOM     14  N   UNL     1       3.401   5.484  17.466  0.00  0.00    +0.000 N 
ATOM     15  H   UNL     1       2.615   5.594  16.832  0.00  0.00    +0.000 HD
BRANCH  13  16
ATOM     16  C   UNL     1       2.663   7.423  18.845  0.00  0.00    +0.000 A 
ATOM     17  C   UNL     1       2.724   8.450  17.879  0.00  0.00    +0.000 A 
ATOM     18  C   UNL     1       1.888   9.564  17.946  0.00  0.00    +0.000 A 
ATOM     19  C   UNL     1       0.981   9.677  18.990  0.00  0.00    +0.000 A 
ATOM     20  C   UNL     1       0.944   8.693  19.985  0.00  0.00    +0.000 A 
ATOM     21  C   UNL     1       1.791   7.571  19.924  0.00  0.00    +0.000 A 
ATOM     22 CL   UNL     1       1.726   6.481  21.259  0.00  0.00    +0.000 Cl
ENDBRANCH  13  16
ENDBRANCH   1  14
BRANCH   1  23
ATOM     23  C   UNL     1       3.742   2.994  17.556  0.00  0.00    +0.000 C 
BRANCH  23  24
ATOM     24  C   UNL     1       2.891   2.897  18.802  0.00  0.00    +0.000 A 
ATOM     25  C   UNL     1       3.477   2.761  20.068  0.00  0.00    +0.000 A 
ATOM     26  C   UNL     1       2.687   2.753  21.218  0.00  0.00    +0.000 A 
ATOM     27  C   UNL     1       1.303   2.876  21.114  0.00  0.00    +0.000 A 
ATOM     28  C   UNL     1       0.709   2.985  19.859  0.00  0.00    +0.000 A 
ATOM     29  C   UNL     1       1.497   2.992  18.708  0.00  0.00    +0.000 A 
ENDBRANCH  23  24
ENDBRANCH   1  23
TORSDOF 5
ENDMDL
MODEL 8
REMARK VINA RESULT:      -7.8      2.291      5.961
REMARK  Name = 
REMARK  5 active torsions:
REMARK  status: ('A' for Active; 'I' for Inactive)
REMARK    1  A    between atoms: C_2  and  C_21
REMARK    2  A    between atoms: N_3  and  C_4
REMARK    3  A    between atoms: C_4  and  C_5
REMARK    4  A    between atoms: C_4  and  C_12
REMARK    5  A    between atoms: C_5  and  C_6
REMARK                            x       y       z     vdW  Elec       q    Type
REMARK                         _______ _______ _______ _____ _____    ______ ____
ROOT
ATOM      1  C   UNL     1       3.257   7.421  17.857  0.00  0.00    +0.000 C 
ENDROOT
BRANCH   1   2
ATOM      2  C   UNL     1       2.900   6.061  18.408  0.00  0.00    +0.000 A 
ATOM      3  N   UNL     1       2.324   5.016  17.835  0.00  0.00    +0.000 NA
ATOM      4  C   UNL     1       2.027   4.149  18.877  0.00  0.00    +0.000 A 
ATOM      5  C   UNL     1       1.349   2.919  18.890  0.00  0.00    +0.000 A 
ATOM      6  C   UNL     1       1.081   2.305  20.127  0.00  0.00    +0.000 A 
ATOM      7  C   UNL     1       1.486   2.894  21.329  0.00  0.00    +0.000 A 
ATOM      8  C   UNL     1       2.208   4.088  21.333  0.00  0.00    +0.000 A 
ATOM      9  C   UNL     1       2.462   4.666  20.090  0.00  0.00    +0.000 A 
ATOM     10  N   UNL     1       3.141   5.797  19.738  0.00  0.00    +0.000 N 
ATOM     11  H   UNL     1       3.597   6.420  20.382  0.00  0.00    +0.000 HD
ENDBRANCH   1   2
BRANCH   1  14
ATOM     12  O   UNL     1       0.940   8.783  17.322  0.00  0.00    +0.000 OA
ATOM     13  C   UNL     1       1.582   9.143  18.309  0.00  0.00    +0.000 C 
ATOM     14  N   UNL     1       2.760   8.518  18.671  0.00  0.00    +0.000 N 
ATOM     15  H   UNL     1       3.333   8.838  19.447  0.00  0.00    +0.000 HD
BRANCH  13  16
ATOM     16  C   UNL     1       1.017  10.233  19.149  0.00  0.00    +0.000 A 
ATOM     17  C   UNL     1       1.159  11.533  18.618  0.00  0.00    +0.000 A 
ATOM     18  C   UNL     1       0.616  12.646  19.260  0.00  0.00    +0.000 A 
ATOM     19  C   UNL     1      -0.068  12.480  20.455  0.00  0.00    +0.000 A 
ATOM     20  C   UNL     1      -0.172  11.204  21.023  0.00  0.00    +0.000 A 
ATOM     21  C   UNL     1       0.379  10.080  20.380  0.00  0.00    +0.000 A 
ATOM     22 CL   UNL     1       0.278   8.580  21.226  0.00  0.00    +0.000 Cl
ENDBRANCH  13  16
ENDBRANCH   1  14
BRANCH   1  23
ATOM     23  C   UNL     1       4.780   7.517  17.557  0.00  0.00    +0.000 C 
BRANCH  23  24
ATOM     24  C   UNL     1       5.404   6.341  16.840  0.00  0.00    +0.000 A 
ATOM     25  C   UNL     1       5.096   6.066  15.501  0.00  0.00    +0.000 A 
ATOM     26  C   UNL     1       5.737   5.027  14.824  0.00  0.00    +0.000 A 
ATOM     27  C   UNL     1       6.688   4.249  15.482  0.00  0.00    +0.000 A 
ATOM     28  C   UNL     1       6.982   4.498  16.821  0.00  0.00    +0.000 A 
ATOM     29  C   UNL     1       6.341   5.536  17.498  0.00  0.00    +0.000 A 
ENDBRANCH  23  24
ENDBRANCH   1  23
TORSDOF 5
ENDMDL
MODEL 9
REMARK VINA RESULT:      -7.8      2.351      3.689
REMARK  Name = 
REMARK  5 active torsions:
REMARK  status: ('A' for Active; 'I' for Inactive)
REMARK    1  A    between atoms: C_2  and  C_21
REMARK    2  A    between atoms: N_3  and  C_4
REMARK    3  A    between atoms: C_4  and  C_5
REMARK    4  A    between atoms: C_4  and  C_12
REMARK    5  A    between atoms: C_5  and  C_6
REMARK                            x       y       z     vdW  Elec       q    Type
REMARK                         _______ _______ _______ _____ _____    ______ ____
ROOT
ATOM      1  C   UNL     1       2.569   6.587  19.840  0.00  0.00    +0.000 C 
ENDROOT
BRANCH   1   2
ATOM      2  C   UNL     1       3.648   6.392  18.801  0.00  0.00    +0.000 A 
ATOM      3  N   UNL     1       3.657   6.641  17.502  0.00  0.00    +0.000 NA
ATOM      4  C   UNL     1       4.812   6.038  17.025  0.00  0.00    +0.000 A 
ATOM      5  C   UNL     1       5.313   5.906  15.719  0.00  0.00    +0.000 A 
ATOM      6  C   UNL     1       6.466   5.127  15.511  0.00  0.00    +0.000 A 
ATOM      7  C   UNL     1       7.117   4.500  16.578  0.00  0.00    +0.000 A 
ATOM      8  C   UNL     1       6.666   4.665  17.888  0.00  0.00    +0.000 A 
ATOM      9  C   UNL     1       5.525   5.448  18.059  0.00  0.00    +0.000 A 
ATOM     10  N   UNL     1       4.842   5.821  19.181  0.00  0.00    +0.000 N 
ATOM     11  H   UNL     1       5.094   5.566  20.121  0.00  0.00    +0.000 HD
ENDBRANCH   1   2
BRANCH   1  14
ATOM     12  O   UNL     1       1.606   8.217  21.821  0.00  0.00    +0.000 OA
ATOM     13  C   UNL     1       1.299   8.505  20.664  0.00  0.00    +0.000 C 
ATOM     14  N   UNL     1       1.738   7.754  19.592  0.00  0.00    +0.000 N 
ATOM     15  H   UNL     1       1.448   7.942  18.636  0.00  0.00    +0.000 HD
BRANCH  13  16
ATOM     16  C   UNL     1       0.493   9.737  20.444  0.00  0.00    +0.000 A 
ATOM     17  C   UNL     1       0.584  10.286  19.147  0.00  0.00    +0.000 A 
ATOM     18  C   UNL     1      -0.169  11.399  18.773  0.00  0.00    +0.000 A 
ATOM     19  C   UNL     1      -1.019  11.992  19.696  0.00  0.00    +0.000 A 
ATOM     20  C   UNL     1      -1.080  11.491  21.001  0.00  0.00    +0.000 A 
ATOM     21  C   UNL     1      -0.317  10.373  21.384  0.00  0.00    +0.000 A 
ATOM     22 CL   UNL     1      -0.399   9.913  23.044  0.00  0.00    +0.000 Cl
ENDBRANCH  13  16
ENDBRANCH   1  14
BRANCH   1  23
ATOM     23  C   UNL     1       1.751   5.280  20.044  0.00  0.00    +0.000 C 
BRANCH  23  24
ATOM     24  C   UNL     1       2.293   4.032  19.384  0.00  0.00    +0.000 A 
ATOM     25  C   UNL     1       1.938   3.697  18.071  0.00  0.00    +0.000 A 
ATOM     26  C   UNL     1       2.505   2.587  17.444  0.00  0.00    +0.000 A 
ATOM     27  C   UNL     1       3.430   1.798  18.126  0.00  0.00    +0.000 A 
ATOM     28  C   UNL     1       3.770   2.107  19.441  0.00  0.00    +0.000 A 
ATOM     29  C   UNL     1       3.202   3.216  20.069  0.00  0.00    +0.000 A 
ENDBRANCH  23  24
ENDBRANCH   1  23
TORSDOF 5
ENDMDL
