MODEL 1
REMARK VINA RESULT:      -8.4      0.000      0.000
REMARK  Name = 
REMARK  7 active torsions:
REMARK  status: ('A' for Active; 'I' for Inactive)
REMARK    1  A    between atoms: C_1  and  C_2
REMARK    2  A    between atoms: N_6  and  C_7
REMARK    3  A    between atoms: C_10  and  C_11
REMARK    4  A    between atoms: C_11  and  C_12
REMARK    5  A    between atoms: C_11  and  N_13
REMARK    6  A    between atoms: C_14  and  C_16
REMARK    7  A    between atoms: C_20  and  C_21
REMARK                            x       y       z     vdW  Elec       q    Type
REMARK                         _______ _______ _______ _____ _____    ______ ____
ROOT
ATOM      1  N   UNL     1       3.769   5.255  18.087  0.00  0.00    +0.000 N 
ATOM      2  C   UNL     1       4.919   4.493  18.103  0.00  0.00    +0.000 C 
ATOM      3  O   UNL     1       5.284   3.878  19.094  0.00  0.00    +0.000 OA
ATOM      4  H   UNL     1       3.488   5.714  17.232  0.00  0.00    +0.000 HD
ENDROOT
BRANCH   2   5
ATOM      5  C   UNL     1       5.681   4.530  16.866  0.00  0.00    +0.000 A 
ATOM      6  C   UNL     1       5.523   3.686  15.780  0.00  0.00    +0.000 A 
ATOM      7  N   UNL     1       6.462   4.055  14.870  0.00  0.00    +0.000 N 
ATOM      8  N   UNL     1       7.193   5.105  15.255  0.00  0.00    +0.000 NA
ATOM      9  C   UNL     1       6.774   5.391  16.499  0.00  0.00    +0.000 A 
ATOM     10  H   UNL     1       6.660   3.642  13.965  0.00  0.00    +0.000 HD
BRANCH   9  11
ATOM     11  C   UNL     1       7.398   6.473  17.272  0.00  0.00    +0.000 A 
ATOM     12  C   UNL     1       7.346   7.803  16.826  0.00  0.00    +0.000 A 
ATOM     13  C   UNL     1       7.834   8.851  17.615  0.00  0.00    +0.000 A 
ATOM     14  C   UNL     1       8.431   8.581  18.843  0.00  0.00    +0.000 A 
ATOM     15  C   UNL     1       8.551   7.262  19.273  0.00  0.00    +0.000 A 
ATOM     16  C   UNL     1       8.035   6.222  18.496  0.00  0.00    +0.000 A 
ATOM     17  F   UNL     1       8.144   4.976  18.985  0.00  0.00    +0.000 F 
ENDBRANCH   9  11
ENDBRANCH   2   5
BRANCH   1  18
ATOM     18  C   UNL     1       2.949   5.389  19.274  0.00  0.00    +0.000 C 
ATOM     19  C   UNL     1       1.838   4.339  19.292  0.00  0.00    +0.000 C 
BRANCH  18  23
ATOM     20  C   UNL     1       1.200   9.355  19.629  0.00  0.00    +0.000 A 
ATOM     21  C   UNL     1       1.178   8.461  20.706  0.00  0.00    +0.000 A 
ATOM     22  C   UNL     1       1.776   7.199  20.591  0.00  0.00    +0.000 A 
ATOM     23  C   UNL     1       2.392   6.795  19.398  0.00  0.00    +0.000 A 
ATOM     24  C   UNL     1       2.430   7.704  18.333  0.00  0.00    +0.000 A 
ATOM     25  C   UNL     1       1.831   8.959  18.447  0.00  0.00    +0.000 A 
ATOM     26  F   UNL     1       1.925   9.782  17.392  0.00  0.00    +0.000 F 
BRANCH  20  32
ATOM     27  C   UNL     1      -1.532  10.189  18.267  0.00  0.00    +0.000 C 
ATOM     28  C   UNL     1      -0.604  11.052  19.046  0.00  0.00    +0.000 A 
ATOM     29  N   UNL     1      -0.850  12.324  19.306  0.00  0.00    +0.000 NA
ATOM     30  C   UNL     1       0.104  12.720  20.192  0.00  0.00    +0.000 A 
ATOM     31  C   UNL     1       0.954  11.684  20.476  0.00  0.00    +0.000 A 
ATOM     32  N   UNL     1       0.541  10.612  19.711  0.00  0.00    +0.000 N 
ENDBRANCH  20  32
ENDBRANCH  18  23
ENDBRANCH   1  18
TORSDOF 5
ENDMDL
MODEL 2
REMARK VINA RESULT:      -8.2      1.265      1.598
REMARK  Name = 
REMARK  7 active torsions:
REMARK  status: ('A' for Active; 'I' for Inactive)
REMARK    1  A    between atoms: C_1  and  C_2
REMARK    2  A    between atoms: N_6  and  C_7
REMARK    3  A    between atoms: C_10  and  C_11
REMARK    4  A    between atoms: C_11  and  C_12
REMARK    5  A    between atoms: C_11  and  N_13
REMARK    6  A    between atoms: C_14  and  C_16
REMARK    7  A    between atoms: C_20  and  C_21
REMARK                            x       y       z     vdW  Elec       q    Type
REMARK                         _______ _______ _______ _____ _____    ______ ____
ROOT
ATOM      1  N   UNL     1       3.121   5.219  18.971  0.00  0.00    +0.000 N 
ATOM      2  C   UNL     1       4.113   4.268  19.094  0.00  0.00    +0.000 C 
ATOM      3  O   UNL     1       4.429   3.787  20.173  0.00  0.00    +0.000 OA
ATOM      4  H   UNL     1       2.869   5.559  18.054  0.00  0.00    +0.000 HD
ENDROOT
BRANCH   2   5
ATOM      5  C   UNL     1       4.779   3.929  17.848  0.00  0.00    +0.000 A 
ATOM      6  C   UNL     1       4.490   2.850  17.031  0.00  0.00    +0.000 A 
ATOM      7  N   UNL     1       5.377   2.903  16.002  0.00  0.00    +0.000 N 
ATOM      8  N   UNL     1       6.194   3.958  16.056  0.00  0.00    +0.000 NA
ATOM      9  C   UNL     1       5.888   4.584  17.205  0.00  0.00    +0.000 A 
ATOM     10  H   UNL     1       5.482   2.258  15.226  0.00  0.00    +0.000 HD
BRANCH   9  11
ATOM     11  C   UNL     1       6.630   5.777  17.632  0.00  0.00    +0.000 A 
ATOM     12  C   UNL     1       7.600   5.702  18.645  0.00  0.00    +0.000 A 
ATOM     13  C   UNL     1       8.391   6.808  18.974  0.00  0.00    +0.000 A 
ATOM     14  C   UNL     1       8.192   8.025  18.329  0.00  0.00    +0.000 A 
ATOM     15  C   UNL     1       7.192   8.137  17.367  0.00  0.00    +0.000 A 
ATOM     16  C   UNL     1       6.424   7.022  17.021  0.00  0.00    +0.000 A 
ATOM     17  F   UNL     1       5.504   7.184  16.057  0.00  0.00    +0.000 F 
ENDBRANCH   9  11
ENDBRANCH   2   5
BRANCH   1  18
ATOM     18  C   UNL     1       2.427   5.725  20.138  0.00  0.00    +0.000 C 
ATOM     19  C   UNL     1       1.261   4.811  20.516  0.00  0.00    +0.000 C 
BRANCH  18  23
ATOM     20  C   UNL     1       0.958   9.771  19.520  0.00  0.00    +0.000 A 
ATOM     21  C   UNL     1       0.744   9.107  20.732  0.00  0.00    +0.000 A 
ATOM     22  C   UNL     1       1.252   7.817  20.933  0.00  0.00    +0.000 A 
ATOM     23  C   UNL     1       1.969   7.155  19.925  0.00  0.00    +0.000 A 
ATOM     24  C   UNL     1       2.199   7.836  18.722  0.00  0.00    +0.000 A 
ATOM     25  C   UNL     1       1.689   9.120  18.522  0.00  0.00    +0.000 A 
ATOM     26  F   UNL     1       1.966   9.715  17.353  0.00  0.00    +0.000 F 
BRANCH  20  32
ATOM     27  C   UNL     1      -1.756  10.432  18.032  0.00  0.00    +0.000 C 
ATOM     28  C   UNL     1      -0.742  11.393  18.542  0.00  0.00    +0.000 A 
ATOM     29  N   UNL     1      -0.888  12.704  18.465  0.00  0.00    +0.000 NA
ATOM     30  C   UNL     1       0.123  13.241  19.201  0.00  0.00    +0.000 A 
ATOM     31  C   UNL     1       0.908  12.252  19.732  0.00  0.00    +0.000 A 
ATOM     32  N   UNL     1       0.393  11.053  19.280  0.00  0.00    +0.000 N 
ENDBRANCH  20  32
ENDBRANCH  18  23
ENDBRANCH   1  18
TORSDOF 5
ENDMDL
MODEL 3
REMARK VINA RESULT:      -8.1      1.072      1.386
REMARK  Name = 
REMARK  7 active torsions:
REMARK  status: ('A' for Active; 'I' for Inactive)
REMARK    1  A    between atoms: C_1  and  C_2
REMARK    2  A    between atoms: N_6  and  C_7
REMARK    3  A    between atoms: C_10  and  C_11
REMARK    4  A    between atoms: C_11  and  C_12
REMARK    5  A    between atoms: C_11  and  N_13
REMARK    6  A    between atoms: C_14  and  C_16
REMARK    7  A    between atoms: C_20  and  C_21
REMARK                            x       y       z     vdW  Elec       q    Type
REMARK                         _______ _______ _______ _____ _____    ______ ____
ROOT
ATOM      1  N   UNL     1       3.558   5.593  18.476  0.00  0.00    +0.000 N 
ATOM      2  C   UNL     1       4.657   4.767  18.594  0.00  0.00    +0.000 C 
ATOM      3  O   UNL     1       5.008   4.292  19.665  0.00  0.00    +0.000 OA
ATOM      4  H   UNL     1       3.286   5.930  17.563  0.00  0.00    +0.000 HD
ENDROOT
BRANCH   2   5
ATOM      5  C   UNL     1       5.388   4.557  17.355  0.00  0.00    +0.000 A 
ATOM      6  C   UNL     1       5.143   3.569  16.417  0.00  0.00    +0.000 A 
ATOM      7  N   UNL     1       6.081   3.724  15.447  0.00  0.00    +0.000 N 
ATOM      8  N   UNL     1       6.893   4.765  15.651  0.00  0.00    +0.000 NA
ATOM      9  C   UNL     1       6.527   5.270  16.842  0.00  0.00    +0.000 A 
ATOM     10  H   UNL     1       6.226   3.163  14.614  0.00  0.00    +0.000 HD
BRANCH   9  11
ATOM     11  C   UNL     1       7.245   6.410  17.427  0.00  0.00    +0.000 A 
ATOM     12  C   UNL     1       7.177   7.684  16.841  0.00  0.00    +0.000 A 
ATOM     13  C   UNL     1       7.760   8.796  17.458  0.00  0.00    +0.000 A 
ATOM     14  C   UNL     1       8.466   8.644  18.648  0.00  0.00    +0.000 A 
ATOM     15  C   UNL     1       8.600   7.378  19.210  0.00  0.00    +0.000 A 
ATOM     16  C   UNL     1       7.990   6.275  18.607  0.00  0.00    +0.000 A 
ATOM     17  F   UNL     1       8.120   5.088  19.221  0.00  0.00    +0.000 F 
ENDBRANCH   9  11
ENDBRANCH   2   5
BRANCH   1  18
ATOM     18  C   UNL     1       2.781   5.968  19.639  0.00  0.00    +0.000 C 
ATOM     19  C   UNL     1       1.752   4.890  19.978  0.00  0.00    +0.000 C 
BRANCH  18  23
ATOM     20  C   UNL     1       1.058   9.922  19.076  0.00  0.00    +0.000 A 
ATOM     21  C   UNL     1       1.673   9.248  18.015  0.00  0.00    +0.000 A 
ATOM     22  C   UNL     1       2.194   7.961  18.199  0.00  0.00    +0.000 A 
ATOM     23  C   UNL     1       2.128   7.324  19.447  0.00  0.00    +0.000 A 
ATOM     24  C   UNL     1       1.490   7.995  20.499  0.00  0.00    +0.000 A 
ATOM     25  C   UNL     1       0.975   9.279  20.315  0.00  0.00    +0.000 A 
ATOM     26  F   UNL     1       0.362   9.850  21.362  0.00  0.00    +0.000 F 
BRANCH  20  32
ATOM     27  C   UNL     1      -1.902  10.851  18.455  0.00  0.00    +0.000 C 
ATOM     28  C   UNL     1      -0.684  11.699  18.545  0.00  0.00    +0.000 A 
ATOM     29  N   UNL     1      -0.708  13.013  18.410  0.00  0.00    +0.000 NA
ATOM     30  C   UNL     1       0.534  13.451  18.750  0.00  0.00    +0.000 A 
ATOM     31  C   UNL     1       1.339  12.396  19.090  0.00  0.00    +0.000 A 
ATOM     32  N   UNL     1       0.584  11.252  18.920  0.00  0.00    +0.000 N 
ENDBRANCH  20  32
ENDBRANCH  18  23
ENDBRANCH   1  18
TORSDOF 5
ENDMDL
MODEL 4
REMARK VINA RESULT:      -8.1      3.423      5.953
REMARK  Name = 
REMARK  7 active torsions:
REMARK  status: ('A' for Active; 'I' for Inactive)
REMARK    1  A    between atoms: C_1  and  C_2
REMARK    2  A    between atoms: N_6  and  C_7
REMARK    3  A    between atoms: C_10  and  C_11
REMARK    4  A    between atoms: C_11  and  C_12
REMARK    5  A    between atoms: C_11  and  N_13
REMARK    6  A    between atoms: C_14  and  C_16
REMARK    7  A    between atoms: C_20  and  C_21
REMARK                            x       y       z     vdW  Elec       q    Type
REMARK                         _______ _______ _______ _____ _____    ______ ____
ROOT
ATOM      1  N   UNL     1       1.520   9.066  18.327  0.00  0.00    +0.000 N 
ATOM      2  C   UNL     1       2.085   8.038  19.052  0.00  0.00    +0.000 C 
ATOM      3  O   UNL     1       1.862   7.876  20.243  0.00  0.00    +0.000 OA
ATOM      4  H   UNL     1       1.704   9.136  17.336  0.00  0.00    +0.000 HD
ENDROOT
BRANCH   2   5
ATOM      5  C   UNL     1       3.003   7.203  18.295  0.00  0.00    +0.000 A 
ATOM      6  C   UNL     1       3.882   7.631  17.315  0.00  0.00    +0.000 A 
ATOM      7  N   UNL     1       4.512   6.517  16.856  0.00  0.00    +0.000 N 
ATOM      8  N   UNL     1       4.150   5.400  17.492  0.00  0.00    +0.000 NA
ATOM      9  C   UNL     1       3.186   5.776  18.349  0.00  0.00    +0.000 A 
ATOM     10  H   UNL     1       5.203   6.443  16.117  0.00  0.00    +0.000 HD
BRANCH   9  11
ATOM     11  C   UNL     1       2.503   4.788  19.194  0.00  0.00    +0.000 A 
ATOM     12  C   UNL     1       2.858   4.622  20.542  0.00  0.00    +0.000 A 
ATOM     13  C   UNL     1       2.134   3.769  21.382  0.00  0.00    +0.000 A 
ATOM     14  C   UNL     1       1.073   3.025  20.874  0.00  0.00    +0.000 A 
ATOM     15  C   UNL     1       0.747   3.127  19.524  0.00  0.00    +0.000 A 
ATOM     16  C   UNL     1       1.453   4.004  18.696  0.00  0.00    +0.000 A 
ATOM     17  F   UNL     1       1.064   4.088  17.415  0.00  0.00    +0.000 F 
ENDBRANCH   9  11
ENDBRANCH   2   5
BRANCH   1  18
ATOM     18  C   UNL     1       0.652  10.036  18.964  0.00  0.00    +0.000 C 
ATOM     19  C   UNL     1      -0.680  10.147  18.221  0.00  0.00    +0.000 C 
BRANCH  18  23
ATOM     20  C   UNL     1       2.759  13.823  19.331  0.00  0.00    +0.000 A 
ATOM     21  C   UNL     1       2.853  13.059  18.163  0.00  0.00    +0.000 A 
ATOM     22  C   UNL     1       2.143  11.858  18.042  0.00  0.00    +0.000 A 
ATOM     23  C   UNL     1       1.337  11.384  19.088  0.00  0.00    +0.000 A 
ATOM     24  C   UNL     1       1.229  12.166  20.245  0.00  0.00    +0.000 A 
ATOM     25  C   UNL     1       1.941  13.361  20.366  0.00  0.00    +0.000 A 
ATOM     26  F   UNL     1       1.772  14.064  21.495  0.00  0.00    +0.000 F 
BRANCH  20  32
ATOM     27  C   UNL     1       1.980  16.754  18.430  0.00  0.00    +0.000 C 
ATOM     28  C   UNL     1       3.267  16.297  19.019  0.00  0.00    +0.000 A 
ATOM     29  N   UNL     1       4.269  17.115  19.285  0.00  0.00    +0.000 NA
ATOM     30  C   UNL     1       5.177  16.385  19.987  0.00  0.00    +0.000 A 
ATOM     31  C   UNL     1       4.736  15.098  20.149  0.00  0.00    +0.000 A 
ATOM     32  N   UNL     1       3.525  15.009  19.491  0.00  0.00    +0.000 N 
ENDBRANCH  20  32
ENDBRANCH  18  23
ENDBRANCH   1  18
TORSDOF 5
ENDMDL
MODEL 5
REMARK VINA RESULT:      -8.0      0.611      1.181
REMARK  Name = 
REMARK  7 active torsions:
REMARK  status: ('A' for Active; 'I' for Inactive)
REMARK    1  A    between atoms: C_1  and  C_2
REMARK    2  A    between atoms: N_6  and  C_7
REMARK    3  A    between atoms: C_10  and  C_11
REMARK    4  A    between atoms: C_11  and  C_12
REMARK    5  A    between atoms: C_11  and  N_13
REMARK    6  A    between atoms: C_14  and  C_16
REMARK    7  A    between atoms: C_20  and  C_21
REMARK                            x       y       z     vdW  Elec       q    Type
REMARK                         _______ _______ _______ _____ _____    ______ ____
ROOT
ATOM      1  N   UNL     1       3.596   5.478  18.591  0.00  0.00    +0.000 N 
ATOM      2  C   UNL     1       4.712   4.667  18.604  0.00  0.00    +0.000 C 
ATOM      3  O   UNL     1       5.125   4.136  19.625  0.00  0.00    +0.000 OA
ATOM      4  H   UNL     1       3.271   5.863  17.716  0.00  0.00    +0.000 HD
ENDROOT
BRANCH   2   5
ATOM      5  C   UNL     1       5.380   4.542  17.319  0.00  0.00    +0.000 A 
ATOM      6  C   UNL     1       5.101   3.607  16.338  0.00  0.00    +0.000 A 
ATOM      7  N   UNL     1       5.985   3.836  15.331  0.00  0.00    +0.000 N 
ATOM      8  N   UNL     1       6.791   4.877  15.555  0.00  0.00    +0.000 NA
ATOM      9  C   UNL     1       6.480   5.305  16.791  0.00  0.00    +0.000 A 
ATOM     10  H   UNL     1       6.095   3.326  14.461  0.00  0.00    +0.000 HD
BRANCH   9  11
ATOM     11  C   UNL     1       7.210   6.421  17.406  0.00  0.00    +0.000 A 
ATOM     12  C   UNL     1       7.143   7.714  16.862  0.00  0.00    +0.000 A 
ATOM     13  C   UNL     1       7.739   8.803  17.509  0.00  0.00    +0.000 A 
ATOM     14  C   UNL     1       8.457   8.608  18.685  0.00  0.00    +0.000 A 
ATOM     15  C   UNL     1       8.589   7.324  19.205  0.00  0.00    +0.000 A 
ATOM     16  C   UNL     1       7.967   6.244  18.572  0.00  0.00    +0.000 A 
ATOM     17  F   UNL     1       8.097   5.037  19.146  0.00  0.00    +0.000 F 
ENDBRANCH   9  11
ENDBRANCH   2   5
BRANCH   1  18
ATOM     18  C   UNL     1       2.875   5.770  19.813  0.00  0.00    +0.000 C 
ATOM     19  C   UNL     1       1.862   4.668  20.126  0.00  0.00    +0.000 C 
BRANCH  18  23
ATOM     20  C   UNL     1       0.832   9.605  19.615  0.00  0.00    +0.000 A 
ATOM     21  C   UNL     1       0.788   8.826  20.777  0.00  0.00    +0.000 A 
ATOM     22  C   UNL     1       1.478   7.609  20.842  0.00  0.00    +0.000 A 
ATOM     23  C   UNL     1       2.214   7.134  19.746  0.00  0.00    +0.000 A 
ATOM     24  C   UNL     1       2.274   7.930  18.594  0.00  0.00    +0.000 A 
ATOM     25  C   UNL     1       1.582   9.141  18.530  0.00  0.00    +0.000 A 
ATOM     26  F   UNL     1       1.702   9.857  17.403  0.00  0.00    +0.000 F 
BRANCH  20  32
ATOM     27  C   UNL     1       1.774  12.527  20.381  0.00  0.00    +0.000 C 
ATOM     28  C   UNL     1       0.423  12.096  19.936  0.00  0.00    +0.000 A 
ATOM     29  N   UNL     1      -0.581  12.937  19.759  0.00  0.00    +0.000 NA
ATOM     30  C   UNL     1      -1.575  12.221  19.167  0.00  0.00    +0.000 A 
ATOM     31  C   UNL     1      -1.185  10.921  18.983  0.00  0.00    +0.000 A 
ATOM     32  N   UNL     1       0.084  10.809  19.514  0.00  0.00    +0.000 N 
ENDBRANCH  20  32
ENDBRANCH  18  23
ENDBRANCH   1  18
TORSDOF 5
ENDMDL
MODEL 6
REMARK VINA RESULT:      -8.0      2.432      9.211
REMARK  Name = 
REMARK  7 active torsions:
REMARK  status: ('A' for Active; 'I' for Inactive)
REMARK    1  A    between atoms: C_1  and  C_2
REMARK    2  A    between atoms: N_6  and  C_7
REMARK    3  A    between atoms: C_10  and  C_11
REMARK    4  A    between atoms: C_11  and  C_12
REMARK    5  A    between atoms: C_11  and  N_13
REMARK    6  A    between atoms: C_14  and  C_16
REMARK    7  A    between atoms: C_20  and  C_21
REMARK                            x       y       z     vdW  Elec       q    Type
REMARK                         _______ _______ _______ _____ _____    ______ ____
ROOT
ATOM      1  N   UNL     1       1.257   9.330  19.327  0.00  0.00    +0.000 N 
ATOM      2  C   UNL     1       0.298  10.170  19.855  0.00  0.00    +0.000 C 
ATOM      3  O   UNL     1      -0.465   9.817  20.742  0.00  0.00    +0.000 OA
ATOM      4  H   UNL     1       1.890   9.679  18.622  0.00  0.00    +0.000 HD
ENDROOT
BRANCH   2   5
ATOM      5  C   UNL     1       0.240  11.482  19.232  0.00  0.00    +0.000 A 
ATOM      6  C   UNL     1       1.275  12.399  19.154  0.00  0.00    +0.000 A 
ATOM      7  N   UNL     1       0.768  13.492  18.526  0.00  0.00    +0.000 N 
ATOM      8  N   UNL     1      -0.504  13.346  18.144  0.00  0.00    +0.000 NA
ATOM      9  C   UNL     1      -0.876  12.141  18.607  0.00  0.00    +0.000 A 
ATOM     10  H   UNL     1       1.230  14.371  18.319  0.00  0.00    +0.000 HD
BRANCH   9  11
ATOM     11  C   UNL     1      -2.249  11.655  18.419  0.00  0.00    +0.000 A 
ATOM     12  C   UNL     1      -3.320  12.220  19.129  0.00  0.00    +0.000 A 
ATOM     13  C   UNL     1      -4.641  11.843  18.868  0.00  0.00    +0.000 A 
ATOM     14  C   UNL     1      -4.912  10.854  17.926  0.00  0.00    +0.000 A 
ATOM     15  C   UNL     1      -3.859  10.236  17.258  0.00  0.00    +0.000 A 
ATOM     16  C   UNL     1      -2.543  10.637  17.500  0.00  0.00    +0.000 A 
ATOM     17  F   UNL     1      -1.576  10.032  16.793  0.00  0.00    +0.000 F 
ENDBRANCH   9  11
ENDBRANCH   2   5
BRANCH   1  18
ATOM     18  C   UNL     1       1.377   7.960  19.783  0.00  0.00    +0.000 C 
ATOM     19  C   UNL     1       1.480   7.900  21.307  0.00  0.00    +0.000 C 
BRANCH  18  23
ATOM     20  C   UNL     1       4.634   5.918  17.747  0.00  0.00    +0.000 A 
ATOM     21  C   UNL     1       4.127   7.128  17.260  0.00  0.00    +0.000 A 
ATOM     22  C   UNL     1       3.102   7.794  17.942  0.00  0.00    +0.000 A 
ATOM     23  C   UNL     1       2.548   7.263  19.116  0.00  0.00    +0.000 A 
ATOM     24  C   UNL     1       3.076   6.063  19.612  0.00  0.00    +0.000 A 
ATOM     25  C   UNL     1       4.095   5.398  18.928  0.00  0.00    +0.000 A 
ATOM     26  F   UNL     1       4.562   4.266  19.474  0.00  0.00    +0.000 F 
BRANCH  20  32
ATOM     27  C   UNL     1       7.710   5.673  18.444  0.00  0.00    +0.000 C 
ATOM     28  C   UNL     1       7.006   5.151  17.242  0.00  0.00    +0.000 A 
ATOM     29  N   UNL     1       7.612   4.451  16.298  0.00  0.00    +0.000 NA
ATOM     30  C   UNL     1       6.628   3.985  15.483  0.00  0.00    +0.000 A 
ATOM     31  C   UNL     1       5.401   4.408  15.922  0.00  0.00    +0.000 A 
ATOM     32  N   UNL     1       5.628   5.200  17.030  0.00  0.00    +0.000 N 
ENDBRANCH  20  32
ENDBRANCH  18  23
ENDBRANCH   1  18
TORSDOF 5
ENDMDL
MODEL 7
REMARK VINA RESULT:      -8.0      2.628      9.280
REMARK  Name = 
REMARK  7 active torsions:
REMARK  status: ('A' for Active; 'I' for Inactive)
REMARK    1  A    between atoms: C_1  and  C_2
REMARK    2  A    between atoms: N_6  and  C_7
REMARK    3  A    between atoms: C_10  and  C_11
REMARK    4  A    between atoms: C_11  and  C_12
REMARK    5  A    between atoms: C_11  and  N_13
REMARK    6  A    between atoms: C_14  and  C_16
REMARK    7  A    between atoms: C_20  and  C_21
REMARK                            x       y       z     vdW  Elec       q    Type
REMARK                         _______ _______ _______ _____ _____    ______ ____
ROOT
ATOM      1  N   UNL     1       1.241   9.433  19.550  0.00  0.00    +0.000 N 
ATOM      2  C   UNL     1       0.082  10.163  19.714  0.00  0.00    +0.000 C 
ATOM      3  O   UNL     1      -0.930   9.685  20.207  0.00  0.00    +0.000 OA
ATOM      4  H   UNL     1       2.062   9.884  19.173  0.00  0.00    +0.000 HD
ENDROOT
BRANCH   2   5
ATOM      5  C   UNL     1       0.150  11.523  19.206  0.00  0.00    +0.000 A 
ATOM      6  C   UNL     1       1.203  12.407  19.371  0.00  0.00    +0.000 A 
ATOM      7  N   UNL     1       0.825  13.565  18.767  0.00  0.00    +0.000 N 
ATOM      8  N   UNL     1      -0.372  13.495  18.180  0.00  0.00    +0.000 NA
ATOM      9  C   UNL     1      -0.838  12.269  18.473  0.00  0.00    +0.000 A 
ATOM     10  H   UNL     1       1.333  14.442  18.712  0.00  0.00    +0.000 HD
BRANCH   9  11
ATOM     11  C   UNL     1      -2.174  11.847  18.030  0.00  0.00    +0.000 A 
ATOM     12  C   UNL     1      -2.362  11.241  16.778  0.00  0.00    +0.000 A 
ATOM     13  C   UNL     1      -3.609  10.731  16.400  0.00  0.00    +0.000 A 
ATOM     14  C   UNL     1      -4.703  10.863  17.250  0.00  0.00    +0.000 A 
ATOM     15  C   UNL     1      -4.551  11.518  18.468  0.00  0.00    +0.000 A 
ATOM     16  C   UNL     1      -3.298  12.000  18.854  0.00  0.00    +0.000 A 
ATOM     17  F   UNL     1      -3.208  12.585  20.059  0.00  0.00    +0.000 F 
ENDBRANCH   9  11
ENDBRANCH   2   5
BRANCH   1  18
ATOM     18  C   UNL     1       1.299   8.035  19.926  0.00  0.00    +0.000 C 
ATOM     19  C   UNL     1       1.389   7.883  21.444  0.00  0.00    +0.000 C 
BRANCH  18  23
ATOM     20  C   UNL     1       4.472   5.964  17.792  0.00  0.00    +0.000 A 
ATOM     21  C   UNL     1       3.964   7.179  17.321  0.00  0.00    +0.000 A 
ATOM     22  C   UNL     1       2.966   7.855  18.034  0.00  0.00    +0.000 A 
ATOM     23  C   UNL     1       2.442   7.327  19.224  0.00  0.00    +0.000 A 
ATOM     24  C   UNL     1       2.972   6.122  19.702  0.00  0.00    +0.000 A 
ATOM     25  C   UNL     1       3.964   5.447  18.988  0.00  0.00    +0.000 A 
ATOM     26  F   UNL     1       4.436   4.310  19.518  0.00  0.00    +0.000 F 
BRANCH  20  32
ATOM     27  C   UNL     1       7.608   5.928  18.215  0.00  0.00    +0.000 C 
ATOM     28  C   UNL     1       6.830   5.272  17.130  0.00  0.00    +0.000 A 
ATOM     29  N   UNL     1       7.388   4.526  16.194  0.00  0.00    +0.000 NA
ATOM     30  C   UNL     1       6.362   3.944  15.514  0.00  0.00    +0.000 A 
ATOM     31  C   UNL     1       5.157   4.343  16.030  0.00  0.00    +0.000 A 
ATOM     32  N   UNL     1       5.437   5.236  17.045  0.00  0.00    +0.000 N 
ENDBRANCH  20  32
ENDBRANCH  18  23
ENDBRANCH   1  18
TORSDOF 5
ENDMDL
MODEL 8
REMARK VINA RESULT:      -8.0      2.454      9.048
REMARK  Name = 
REMARK  7 active torsions:
REMARK  status: ('A' for Active; 'I' for Inactive)
REMARK    1  A    between atoms: C_1  and  C_2
REMARK    2  A    between atoms: N_6  and  C_7
REMARK    3  A    between atoms: C_10  and  C_11
REMARK    4  A    between atoms: C_11  and  C_12
REMARK    5  A    between atoms: C_11  and  N_13
REMARK    6  A    between atoms: C_14  and  C_16
REMARK    7  A    between atoms: C_20  and  C_21
REMARK                            x       y       z     vdW  Elec       q    Type
REMARK                         _______ _______ _______ _____ _____    ______ ____
ROOT
ATOM      1  N   UNL     1       1.324   9.331  19.451  0.00  0.00    +0.000 N 
ATOM      2  C   UNL     1       0.407  10.203  20.001  0.00  0.00    +0.000 C 
ATOM      3  O   UNL     1      -0.314   9.891  20.937  0.00  0.00    +0.000 OA
ATOM      4  H   UNL     1       1.925   9.648  18.703  0.00  0.00    +0.000 HD
ENDROOT
BRANCH   2   5
ATOM      5  C   UNL     1       0.335  11.495  19.339  0.00  0.00    +0.000 A 
ATOM      6  C   UNL     1       1.343  12.441  19.275  0.00  0.00    +0.000 A 
ATOM      7  N   UNL     1       0.830  13.501  18.596  0.00  0.00    +0.000 N 
ATOM      8  N   UNL     1      -0.420  13.305  18.169  0.00  0.00    +0.000 NA
ATOM      9  C   UNL     1      -0.775  12.102  18.651  0.00  0.00    +0.000 A 
ATOM     10  H   UNL     1       1.274  14.387  18.382  0.00  0.00    +0.000 HD
BRANCH   9  11
ATOM     11  C   UNL     1      -2.124  11.568  18.423  0.00  0.00    +0.000 A 
ATOM     12  C   UNL     1      -3.247  12.167  19.016  0.00  0.00    +0.000 A 
ATOM     13  C   UNL     1      -4.543  11.736  18.709  0.00  0.00    +0.000 A 
ATOM     14  C   UNL     1      -4.736  10.664  17.842  0.00  0.00    +0.000 A 
ATOM     15  C   UNL     1      -3.631  10.017  17.295  0.00  0.00    +0.000 A 
ATOM     16  C   UNL     1      -2.341  10.468  17.581  0.00  0.00    +0.000 A 
ATOM     17  F   UNL     1      -1.320   9.828  16.989  0.00  0.00    +0.000 F 
ENDBRANCH   9  11
ENDBRANCH   2   5
BRANCH   1  18
ATOM     18  C   UNL     1       1.449   7.975  19.946  0.00  0.00    +0.000 C 
ATOM     19  C   UNL     1       1.747   7.967  21.445  0.00  0.00    +0.000 C 
BRANCH  18  23
ATOM     20  C   UNL     1       4.559   5.801  17.819  0.00  0.00    +0.000 A 
ATOM     21  C   UNL     1       4.043   5.319  19.027  0.00  0.00    +0.000 A 
ATOM     22  C   UNL     1       3.017   6.009  19.686  0.00  0.00    +0.000 A 
ATOM     23  C   UNL     1       2.495   7.203  19.164  0.00  0.00    +0.000 A 
ATOM     24  C   UNL     1       3.000   7.667  17.942  0.00  0.00    +0.000 A 
ATOM     25  C   UNL     1       4.025   6.980  17.289  0.00  0.00    +0.000 A 
ATOM     26  F   UNL     1       4.443   7.474  16.115  0.00  0.00    +0.000 F 
BRANCH  20  32
ATOM     27  C   UNL     1       7.600   5.798  18.693  0.00  0.00    +0.000 C 
ATOM     28  C   UNL     1       7.007   5.203  17.465  0.00  0.00    +0.000 A 
ATOM     29  N   UNL     1       7.715   4.534  16.573  0.00  0.00    +0.000 NA
ATOM     30  C   UNL     1       6.817   3.981  15.715  0.00  0.00    +0.000 A 
ATOM     31  C   UNL     1       5.539   4.320  16.074  0.00  0.00    +0.000 A 
ATOM     32  N   UNL     1       5.643   5.146  17.175  0.00  0.00    +0.000 N 
ENDBRANCH  20  32
ENDBRANCH  18  23
ENDBRANCH   1  18
TORSDOF 5
ENDMDL
MODEL 9
REMARK VINA RESULT:      -8.0      1.217      1.728
REMARK  Name = 
REMARK  7 active torsions:
REMARK  status: ('A' for Active; 'I' for Inactive)
REMARK    1  A    between atoms: C_1  and  C_2
REMARK    2  A    between atoms: N_6  and  C_7
REMARK    3  A    between atoms: C_10  and  C_11
REMARK    4  A    between atoms: C_11  and  C_12
REMARK    5  A    between atoms: C_11  and  N_13
REMARK    6  A    between atoms: C_14  and  C_16
REMARK    7  A    between atoms: C_20  and  C_21
REMARK                            x       y       z     vdW  Elec       q    Type
REMARK                         _______ _______ _______ _____ _____    ______ ____
ROOT
ATOM      1  N   UNL     1       3.689   5.714  18.427  0.00  0.00    +0.000 N 
ATOM      2  C   UNL     1       4.777   4.874  18.545  0.00  0.00    +0.000 C 
ATOM      3  O   UNL     1       5.098   4.364  19.608  0.00  0.00    +0.000 OA
ATOM      4  H   UNL     1       3.441   6.082  17.519  0.00  0.00    +0.000 HD
ENDROOT
BRANCH   2   5
ATOM      5  C   UNL     1       5.533   4.694  17.317  0.00  0.00    +0.000 A 
ATOM      6  C   UNL     1       5.324   3.714  16.362  0.00  0.00    +0.000 A 
ATOM      7  N   UNL     1       6.277   3.900  15.411  0.00  0.00    +0.000 N 
ATOM      8  N   UNL     1       7.064   4.953  15.643  0.00  0.00    +0.000 NA
ATOM      9  C   UNL     1       6.668   5.435  16.833  0.00  0.00    +0.000 A 
ATOM     10  H   UNL     1       6.448   3.352  14.574  0.00  0.00    +0.000 HD
BRANCH   9  11
ATOM     11  C   UNL     1       7.352   6.582  17.445  0.00  0.00    +0.000 A 
ATOM     12  C   UNL     1       7.270   7.862  16.874  0.00  0.00    +0.000 A 
ATOM     13  C   UNL     1       7.820   8.977  17.515  0.00  0.00    +0.000 A 
ATOM     14  C   UNL     1       8.508   8.823  18.716  0.00  0.00    +0.000 A 
ATOM     15  C   UNL     1       8.656   7.552  19.264  0.00  0.00    +0.000 A 
ATOM     16  C   UNL     1       8.079   6.446  18.637  0.00  0.00    +0.000 A 
ATOM     17  F   UNL     1       8.222   5.254  19.238  0.00  0.00    +0.000 F 
ENDBRANCH   9  11
ENDBRANCH   2   5
BRANCH   1  18
ATOM     18  C   UNL     1       2.889   6.062  19.584  0.00  0.00    +0.000 C 
ATOM     19  C   UNL     1       1.907   4.941  19.925  0.00  0.00    +0.000 C 
BRANCH  18  23
ATOM     20  C   UNL     1       0.993   9.928  18.974  0.00  0.00    +0.000 A 
ATOM     21  C   UNL     1       1.583   9.241  17.907  0.00  0.00    +0.000 A 
ATOM     22  C   UNL     1       2.160   7.981  18.108  0.00  0.00    +0.000 A 
ATOM     23  C   UNL     1       2.177   7.385  19.379  0.00  0.00    +0.000 A 
ATOM     24  C   UNL     1       1.563   8.069  20.437  0.00  0.00    +0.000 A 
ATOM     25  C   UNL     1       0.992   9.327  20.236  0.00  0.00    +0.000 A 
ATOM     26  F   UNL     1       0.407   9.910  21.291  0.00  0.00    +0.000 F 
BRANCH  20  32
ATOM     27  C   UNL     1       2.586  12.579  18.304  0.00  0.00    +0.000 C 
ATOM     28  C   UNL     1       1.136  12.442  18.604  0.00  0.00    +0.000 A 
ATOM     29  N   UNL     1       0.295  13.462  18.583  0.00  0.00    +0.000 NA
ATOM     30  C   UNL     1      -0.950  12.927  18.706  0.00  0.00    +0.000 A 
ATOM     31  C   UNL     1      -0.878  11.564  18.814  0.00  0.00    +0.000 A 
ATOM     32  N   UNL     1       0.462  11.235  18.797  0.00  0.00    +0.000 N 
ENDBRANCH  20  32
ENDBRANCH  18  23
ENDBRANCH   1  18
TORSDOF 5
ENDMDL
