MODEL 1
REMARK VINA RESULT:      -8.3      0.000      0.000
REMARK  Name = 
REMARK  4 active torsions:
REMARK  status: ('A' for Active; 'I' for Inactive)
REMARK    1  A    between atoms: C_4  and  C_5
REMARK    2  A    between atoms: C_8  and  C_9
REMARK    3  A    between atoms: C_11  and  C_12
REMARK    4  A    between atoms: N_23  and  C_24
REMARK                            x       y       z     vdW  Elec       q    Type
REMARK                         _______ _______ _______ _____ _____    ______ ____
ROOT
ATOM      1  C   UNL     1       2.913   7.447  18.305  0.00  0.00    +0.000 A 
ATOM      2  N   UNL     1       2.877   8.127  17.152  0.00  0.00    +0.000 NA
ATOM      3  O   UNL     1       1.999   9.186  17.438  0.00  0.00    +0.000 OA
ATOM      4  C   UNL     1       1.611   9.027  18.741  0.00  0.00    +0.000 A 
ATOM      5  N   UNL     1       2.167   7.982  19.317  0.00  0.00    +0.000 NA
ENDROOT
BRANCH   1   9
ATOM      6  O   UNL     1       1.553   3.620  17.203  0.00  0.00    +0.000 OA
ATOM      7  C   UNL     1       2.233   4.383  17.870  0.00  0.00    +0.000 C 
ATOM      8  C   UNL     1       3.406   5.182  17.346  0.00  0.00    +0.000 C 
ATOM      9  C   UNL     1       3.683   6.181  18.474  0.00  0.00    +0.000 C 
ATOM     10  C   UNL     1       3.240   5.420  19.715  0.00  0.00    +0.000 C 
ATOM     11  N   UNL     1       2.150   4.606  19.245  0.00  0.00    +0.000 N 
BRANCH  11  12
ATOM     12  C   UNL     1       1.341   3.835  20.129  0.00  0.00    +0.000 C 
ATOM     13  C   UNL     1       1.731   3.651  21.570  0.00  0.00    +0.000 C 
ATOM     14  C   UNL     1       1.778   2.484  20.632  0.00  0.00    +0.000 C 
ENDBRANCH  11  12
ENDBRANCH   1   9
BRANCH   4  15
ATOM     15  C   UNL     1       0.629   9.953  19.282  0.00  0.00    +0.000 A 
ATOM     16  C   UNL     1      -0.582  10.144  18.616  0.00  0.00    +0.000 A 
ATOM     17  C   UNL     1      -1.488  11.114  19.066  0.00  0.00    +0.000 A 
ATOM     18  C   UNL     1      -1.109  11.844  20.200  0.00  0.00    +0.000 A 
ATOM     19  C   UNL     1       0.101  11.573  20.822  0.00  0.00    +0.000 A 
ATOM     20  N   UNL     1       0.979  10.648  20.391  0.00  0.00    +0.000 NA
BRANCH  17  21
ATOM     21  C   UNL     1      -2.772  11.369  18.366  0.00  0.00    +0.000 A 
ATOM     22  C   UNL     1      -2.922  11.102  16.993  0.00  0.00    +0.000 A 
ATOM     23  C   UNL     1      -4.136  11.312  16.331  0.00  0.00    +0.000 A 
ATOM     24  C   UNL     1      -5.231  11.814  17.027  0.00  0.00    +0.000 A 
ATOM     25  C   UNL     1      -5.110  12.105  18.380  0.00  0.00    +0.000 A 
ATOM     26  C   UNL     1      -3.897  11.881  19.042  0.00  0.00    +0.000 A 
ENDBRANCH  17  21
ENDBRANCH   4  15
TORSDOF 4
ENDMDL
MODEL 2
REMARK VINA RESULT:      -8.1      0.978      1.157
REMARK  Name = 
REMARK  4 active torsions:
REMARK  status: ('A' for Active; 'I' for Inactive)
REMARK    1  A    between atoms: C_4  and  C_5
REMARK    2  A    between atoms: C_8  and  C_9
REMARK    3  A    between atoms: C_11  and  C_12
REMARK    4  A    between atoms: N_23  and  C_24
REMARK                            x       y       z     vdW  Elec       q    Type
REMARK                         _______ _______ _______ _____ _____    ______ ____
ROOT
ATOM      1  C   UNL     1       3.615   6.756  18.111  0.00  0.00    +0.000 A 
ATOM      2  N   UNL     1       3.664   7.543  17.029  0.00  0.00    +0.000 NA
ATOM      3  O   UNL     1       2.711   8.534  17.316  0.00  0.00    +0.000 OA
ATOM      4  C   UNL     1       2.200   8.235  18.550  0.00  0.00    +0.000 A 
ATOM      5  N   UNL     1       2.744   7.161  19.083  0.00  0.00    +0.000 NA
ENDROOT
BRANCH   1   9
ATOM      6  O   UNL     1       2.350   2.912  16.957  0.00  0.00    +0.000 OA
ATOM      7  C   UNL     1       3.018   3.683  17.628  0.00  0.00    +0.000 C 
ATOM      8  C   UNL     1       4.158   4.525  17.101  0.00  0.00    +0.000 C 
ATOM      9  C   UNL     1       4.425   5.511  18.243  0.00  0.00    +0.000 C 
ATOM     10  C   UNL     1       4.024   4.714  19.477  0.00  0.00    +0.000 C 
ATOM     11  N   UNL     1       2.951   3.877  19.008  0.00  0.00    +0.000 N 
BRANCH  11  12
ATOM     12  C   UNL     1       2.179   3.066  19.890  0.00  0.00    +0.000 C 
ATOM     13  C   UNL     1       0.686   3.228  19.979  0.00  0.00    +0.000 C 
ATOM     14  C   UNL     1       1.547   3.626  21.137  0.00  0.00    +0.000 C 
ENDBRANCH  11  12
ENDBRANCH   1   9
BRANCH   4  15
ATOM     15  C   UNL     1       1.123   9.065  19.067  0.00  0.00    +0.000 A 
ATOM     16  C   UNL     1       0.024   9.356  18.257  0.00  0.00    +0.000 A 
ATOM     17  C   UNL     1      -0.964  10.245  18.703  0.00  0.00    +0.000 A 
ATOM     18  C   UNL     1      -0.782  10.790  19.981  0.00  0.00    +0.000 A 
ATOM     19  C   UNL     1       0.324  10.426  20.736  0.00  0.00    +0.000 A 
ATOM     20  N   UNL     1       1.280   9.579  20.310  0.00  0.00    +0.000 NA
BRANCH  17  21
ATOM     21  C   UNL     1      -2.130  10.605  17.859  0.00  0.00    +0.000 A 
ATOM     22  C   UNL     1      -2.239  10.152  16.531  0.00  0.00    +0.000 A 
ATOM     23  C   UNL     1      -3.349  10.462  15.738  0.00  0.00    +0.000 A 
ATOM     24  C   UNL     1      -4.372  11.252  16.250  0.00  0.00    +0.000 A 
ATOM     25  C   UNL     1      -4.286  11.730  17.552  0.00  0.00    +0.000 A 
ATOM     26  C   UNL     1      -3.180  11.407  18.347  0.00  0.00    +0.000 A 
ENDBRANCH  17  21
ENDBRANCH   4  15
TORSDOF 4
ENDMDL
MODEL 3
REMARK VINA RESULT:      -8.0      6.386      9.560
REMARK  Name = 
REMARK  4 active torsions:
REMARK  status: ('A' for Active; 'I' for Inactive)
REMARK    1  A    between atoms: C_4  and  C_5
REMARK    2  A    between atoms: C_8  and  C_9
REMARK    3  A    between atoms: C_11  and  C_12
REMARK    4  A    between atoms: N_23  and  C_24
REMARK                            x       y       z     vdW  Elec       q    Type
REMARK                         _______ _______ _______ _____ _____    ______ ____
ROOT
ATOM      1  C   UNL     1       8.600   9.719  18.074  0.00  0.00    +0.000 A 
ATOM      2  N   UNL     1       9.038   8.964  19.089  0.00  0.00    +0.000 NA
ATOM      3  O   UNL     1       8.446   7.716  18.834  0.00  0.00    +0.000 OA
ATOM      4  C   UNL     1       7.720   7.860  17.682  0.00  0.00    +0.000 A 
ATOM      5  N   UNL     1       7.806   9.070  17.170  0.00  0.00    +0.000 NA
ENDROOT
BRANCH   1   9
ATOM      6  O   UNL     1      12.105  11.552  19.511  0.00  0.00    +0.000 OA
ATOM      7  C   UNL     1      10.930  11.559  19.181  0.00  0.00    +0.000 C 
ATOM      8  C   UNL     1      10.426  11.410  17.763  0.00  0.00    +0.000 C 
ATOM      9  C   UNL     1       8.924  11.168  17.945  0.00  0.00    +0.000 C 
ATOM     10  C   UNL     1       8.615  11.926  19.229  0.00  0.00    +0.000 C 
ATOM     11  N   UNL     1       9.825  11.800  19.999  0.00  0.00    +0.000 N 
BRANCH  11  12
ATOM     12  C   UNL     1       9.916  12.246  21.349  0.00  0.00    +0.000 C 
ATOM     13  C   UNL     1       8.731  12.867  22.039  0.00  0.00    +0.000 C 
ATOM     14  C   UNL     1       9.923  13.710  21.704  0.00  0.00    +0.000 C 
ENDBRANCH  11  12
ENDBRANCH   1   9
BRANCH   4  15
ATOM     15  C   UNL     1       6.931   6.728  17.222  0.00  0.00    +0.000 A 
ATOM     16  C   UNL     1       5.724   6.425  17.853  0.00  0.00    +0.000 A 
ATOM     17  C   UNL     1       5.011   5.274  17.493  0.00  0.00    +0.000 A 
ATOM     18  C   UNL     1       5.571   4.483  16.480  0.00  0.00    +0.000 A 
ATOM     19  C   UNL     1       6.762   4.871  15.883  0.00  0.00    +0.000 A 
ATOM     20  N   UNL     1       7.455   5.971  16.229  0.00  0.00    +0.000 NA
BRANCH  17  21
ATOM     21  C   UNL     1       3.740   4.900  18.163  0.00  0.00    +0.000 A 
ATOM     22  C   UNL     1       2.821   4.027  17.553  0.00  0.00    +0.000 A 
ATOM     23  C   UNL     1       1.634   3.647  18.189  0.00  0.00    +0.000 A 
ATOM     24  C   UNL     1       1.329   4.146  19.450  0.00  0.00    +0.000 A 
ATOM     25  C   UNL     1       2.209   5.025  20.073  0.00  0.00    +0.000 A 
ATOM     26  C   UNL     1       3.401   5.393  19.438  0.00  0.00    +0.000 A 
ENDBRANCH  17  21
ENDBRANCH   4  15
TORSDOF 4
ENDMDL
MODEL 4
REMARK VINA RESULT:      -8.0      3.177      5.140
REMARK  Name = 
REMARK  4 active torsions:
REMARK  status: ('A' for Active; 'I' for Inactive)
REMARK    1  A    between atoms: C_4  and  C_5
REMARK    2  A    between atoms: C_8  and  C_9
REMARK    3  A    between atoms: C_11  and  C_12
REMARK    4  A    between atoms: N_23  and  C_24
REMARK                            x       y       z     vdW  Elec       q    Type
REMARK                         _______ _______ _______ _____ _____    ______ ____
ROOT
ATOM      1  C   UNL     1       4.229   4.945  18.459  0.00  0.00    +0.000 A 
ATOM      2  N   UNL     1       3.297   4.507  19.314  0.00  0.00    +0.000 NA
ATOM      3  O   UNL     1       2.460   5.625  19.468  0.00  0.00    +0.000 OA
ATOM      4  C   UNL     1       2.982   6.613  18.677  0.00  0.00    +0.000 A 
ATOM      5  N   UNL     1       4.058   6.230  18.022  0.00  0.00    +0.000 NA
ENDROOT
BRANCH   1   9
ATOM      6  O   UNL     1       7.609   6.381  16.404  0.00  0.00    +0.000 OA
ATOM      7  C   UNL     1       6.816   5.508  16.719  0.00  0.00    +0.000 C 
ATOM      8  C   UNL     1       6.710   4.888  18.094  0.00  0.00    +0.000 C 
ATOM      9  C   UNL     1       5.389   4.113  18.031  0.00  0.00    +0.000 C 
ATOM     10  C   UNL     1       5.292   3.734  16.560  0.00  0.00    +0.000 C 
ATOM     11  N   UNL     1       5.926   4.834  15.881  0.00  0.00    +0.000 N 
BRANCH  11  12
ATOM     12  C   UNL     1       5.921   4.956  14.461  0.00  0.00    +0.000 C 
ATOM     13  C   UNL     1       5.475   3.813  13.590  0.00  0.00    +0.000 C 
ATOM     14  C   UNL     1       6.915   4.224  13.598  0.00  0.00    +0.000 C 
ENDBRANCH  11  12
ENDBRANCH   1   9
BRANCH   4  15
ATOM     15  C   UNL     1       2.349   7.922  18.706  0.00  0.00    +0.000 A 
ATOM     16  C   UNL     1       1.665   8.334  19.851  0.00  0.00    +0.000 A 
ATOM     17  C   UNL     1       0.957   9.544  19.851  0.00  0.00    +0.000 A 
ATOM     18  C   UNL     1       0.997  10.290  18.665  0.00  0.00    +0.000 A 
ATOM     19  C   UNL     1       1.725   9.824  17.581  0.00  0.00    +0.000 A 
ATOM     20  N   UNL     1       2.400   8.659  17.572  0.00  0.00    +0.000 NA
BRANCH  17  21
ATOM     21  C   UNL     1       0.191  10.001  21.037  0.00  0.00    +0.000 A 
ATOM     22  C   UNL     1      -0.520  11.215  21.025  0.00  0.00    +0.000 A 
ATOM     23  C   UNL     1      -1.268  11.639  22.128  0.00  0.00    +0.000 A 
ATOM     24  C   UNL     1      -1.310  10.864  23.282  0.00  0.00    +0.000 A 
ATOM     25  C   UNL     1      -0.605   9.667  23.331  0.00  0.00    +0.000 A 
ATOM     26  C   UNL     1       0.133   9.240  22.221  0.00  0.00    +0.000 A 
ENDBRANCH  17  21
ENDBRANCH   4  15
TORSDOF 4
ENDMDL
MODEL 5
REMARK VINA RESULT:      -7.9      0.455      1.045
REMARK  Name = 
REMARK  4 active torsions:
REMARK  status: ('A' for Active; 'I' for Inactive)
REMARK    1  A    between atoms: C_4  and  C_5
REMARK    2  A    between atoms: C_8  and  C_9
REMARK    3  A    between atoms: C_11  and  C_12
REMARK    4  A    between atoms: N_23  and  C_24
REMARK                            x       y       z     vdW  Elec       q    Type
REMARK                         _______ _______ _______ _____ _____    ______ ____
ROOT
ATOM      1  C   UNL     1       2.670   7.663  18.371  0.00  0.00    +0.000 A 
ATOM      2  N   UNL     1       2.574   8.252  17.173  0.00  0.00    +0.000 NA
ATOM      3  O   UNL     1       1.700   9.324  17.417  0.00  0.00    +0.000 OA
ATOM      4  C   UNL     1       1.374   9.264  18.745  0.00  0.00    +0.000 A 
ATOM      5  N   UNL     1       1.966   8.270  19.373  0.00  0.00    +0.000 NA
ENDROOT
BRANCH   1   9
ATOM      6  O   UNL     1       1.237   3.747  17.809  0.00  0.00    +0.000 OA
ATOM      7  C   UNL     1       1.971   4.574  18.326  0.00  0.00    +0.000 C 
ATOM      8  C   UNL     1       3.086   5.308  17.615  0.00  0.00    +0.000 C 
ATOM      9  C   UNL     1       3.460   6.420  18.601  0.00  0.00    +0.000 C 
ATOM     10  C   UNL     1       3.138   5.796  19.951  0.00  0.00    +0.000 C 
ATOM     11  N   UNL     1       2.014   4.940  19.672  0.00  0.00    +0.000 N 
BRANCH  11  12
ATOM     12  C   UNL     1       1.294   4.270  20.703  0.00  0.00    +0.000 C 
ATOM     13  C   UNL     1       1.987   3.306  21.627  0.00  0.00    +0.000 C 
ATOM     14  C   UNL     1       0.991   2.796  20.632  0.00  0.00    +0.000 C 
ENDBRANCH  11  12
ENDBRANCH   1   9
BRANCH   4  15
ATOM     15  C   UNL     1       0.408  10.223  19.259  0.00  0.00    +0.000 A 
ATOM     16  C   UNL     1      -0.846  10.330  18.658  0.00  0.00    +0.000 A 
ATOM     17  C   UNL     1      -1.742  11.326  19.071  0.00  0.00    +0.000 A 
ATOM     18  C   UNL     1      -1.308  12.167  20.104  0.00  0.00    +0.000 A 
ATOM     19  C   UNL     1      -0.055  11.975  20.670  0.00  0.00    +0.000 A 
ATOM     20  N   UNL     1       0.812  11.025  20.272  0.00  0.00    +0.000 NA
BRANCH  17  21
ATOM     21  C   UNL     1      -3.073  11.493  18.435  0.00  0.00    +0.000 A 
ATOM     22  C   UNL     1      -4.163  12.024  19.148  0.00  0.00    +0.000 A 
ATOM     23  C   UNL     1      -5.412  12.212  18.547  0.00  0.00    +0.000 A 
ATOM     24  C   UNL     1      -5.607  11.856  17.218  0.00  0.00    +0.000 A 
ATOM     25  C   UNL     1      -4.554  11.312  16.491  0.00  0.00    +0.000 A 
ATOM     26  C   UNL     1      -3.302  11.137  17.091  0.00  0.00    +0.000 A 
ENDBRANCH  17  21
ENDBRANCH   4  15
TORSDOF 4
ENDMDL
MODEL 6
REMARK VINA RESULT:      -7.9      1.117      1.626
REMARK  Name = 
REMARK  4 active torsions:
REMARK  status: ('A' for Active; 'I' for Inactive)
REMARK    1  A    between atoms: C_4  and  C_5
REMARK    2  A    between atoms: C_8  and  C_9
REMARK    3  A    between atoms: C_11  and  C_12
REMARK    4  A    between atoms: N_23  and  C_24
REMARK                            x       y       z     vdW  Elec       q    Type
REMARK                         _______ _______ _______ _____ _____    ______ ____
ROOT
ATOM      1  C   UNL     1       2.539   7.295  19.132  0.00  0.00    +0.000 A 
ATOM      2  N   UNL     1       2.062   7.283  20.383  0.00  0.00    +0.000 NA
ATOM      3  O   UNL     1       1.271   8.442  20.431  0.00  0.00    +0.000 OA
ATOM      4  C   UNL     1       1.356   9.021  19.193  0.00  0.00    +0.000 A 
ATOM      5  N   UNL     1       2.108   8.337  18.358  0.00  0.00    +0.000 NA
ENDROOT
BRANCH   1   9
ATOM      6  O   UNL     1       1.450   3.569  17.509  0.00  0.00    +0.000 OA
ATOM      7  C   UNL     1       2.222   4.325  18.077  0.00  0.00    +0.000 C 
ATOM      8  C   UNL     1       2.924   5.496  17.427  0.00  0.00    +0.000 C 
ATOM      9  C   UNL     1       3.494   6.271  18.620  0.00  0.00    +0.000 C 
ATOM     10  C   UNL     1       3.741   5.176  19.647  0.00  0.00    +0.000 C 
ATOM     11  N   UNL     1       2.694   4.222  19.386  0.00  0.00    +0.000 N 
BRANCH  11  12
ATOM     12  C   UNL     1       2.464   3.096  20.229  0.00  0.00    +0.000 C 
ATOM     13  C   UNL     1       1.102   2.833  20.812  0.00  0.00    +0.000 C 
ATOM     14  C   UNL     1       2.228   3.247  21.709  0.00  0.00    +0.000 C 
ENDBRANCH  11  12
ENDBRANCH   1   9
BRANCH   4  15
ATOM     15  C   UNL     1       0.687  10.296  18.984  0.00  0.00    +0.000 A 
ATOM     16  C   UNL     1      -0.689  10.325  18.755  0.00  0.00    +0.000 A 
ATOM     17  C   UNL     1      -1.326  11.535  18.443  0.00  0.00    +0.000 A 
ATOM     18  C   UNL     1      -0.511  12.674  18.392  0.00  0.00    +0.000 A 
ATOM     19  C   UNL     1       0.846  12.564  18.662  0.00  0.00    +0.000 A 
ATOM     20  N   UNL     1       1.464  11.405  18.955  0.00  0.00    +0.000 NA
BRANCH  17  21
ATOM     21  C   UNL     1      -2.781  11.602  18.161  0.00  0.00    +0.000 A 
ATOM     22  C   UNL     1      -3.694  12.053  19.131  0.00  0.00    +0.000 A 
ATOM     23  C   UNL     1      -5.064  12.146  18.864  0.00  0.00    +0.000 A 
ATOM     24  C   UNL     1      -5.559  11.773  17.620  0.00  0.00    +0.000 A 
ATOM     25  C   UNL     1      -4.684  11.307  16.645  0.00  0.00    +0.000 A 
ATOM     26  C   UNL     1      -3.313  11.227  16.911  0.00  0.00    +0.000 A 
ENDBRANCH  17  21
ENDBRANCH   4  15
TORSDOF 4
ENDMDL
MODEL 7
REMARK VINA RESULT:      -7.8      2.959      4.200
REMARK  Name = 
REMARK  4 active torsions:
REMARK  status: ('A' for Active; 'I' for Inactive)
REMARK    1  A    between atoms: C_4  and  C_5
REMARK    2  A    between atoms: C_8  and  C_9
REMARK    3  A    between atoms: C_11  and  C_12
REMARK    4  A    between atoms: N_23  and  C_24
REMARK                            x       y       z     vdW  Elec       q    Type
REMARK                         _______ _______ _______ _____ _____    ______ ____
ROOT
ATOM      1  C   UNL     1       2.142   7.596  19.593  0.00  0.00    +0.000 A 
ATOM      2  N   UNL     1       1.522   7.766  20.768  0.00  0.00    +0.000 NA
ATOM      3  O   UNL     1       0.856   8.991  20.599  0.00  0.00    +0.000 OA
ATOM      4  C   UNL     1       1.144   9.418  19.331  0.00  0.00    +0.000 A 
ATOM      5  N   UNL     1       1.914   8.579  18.671  0.00  0.00    +0.000 NA
ENDROOT
BRANCH   1   9
ATOM      6  O   UNL     1       1.119   4.258  17.243  0.00  0.00    +0.000 OA
ATOM      7  C   UNL     1       1.748   4.814  18.130  0.00  0.00    +0.000 C 
ATOM      8  C   UNL     1       2.814   5.864  17.909  0.00  0.00    +0.000 C 
ATOM      9  C   UNL     1       3.039   6.439  19.311  0.00  0.00    +0.000 C 
ATOM     10  C   UNL     1       2.724   5.256  20.215  0.00  0.00    +0.000 C 
ATOM     11  N   UNL     1       1.700   4.541  19.498  0.00  0.00    +0.000 N 
BRANCH  11  12
ATOM     12  C   UNL     1       1.008   3.432  20.064  0.00  0.00    +0.000 C 
ATOM     13  C   UNL     1       1.438   2.844  21.381  0.00  0.00    +0.000 C 
ATOM     14  C   UNL     1       1.620   2.057  20.120  0.00  0.00    +0.000 C 
ENDBRANCH  11  12
ENDBRANCH   1   9
BRANCH   4  15
ATOM     15  C   UNL     1       0.640  10.716  18.913  0.00  0.00    +0.000 A 
ATOM     16  C   UNL     1       1.510  11.804  18.832  0.00  0.00    +0.000 A 
ATOM     17  C   UNL     1       1.015  13.082  18.539  0.00  0.00    +0.000 A 
ATOM     18  C   UNL     1      -0.367  13.183  18.328  0.00  0.00    +0.000 A 
ATOM     19  C   UNL     1      -1.160  12.047  18.398  0.00  0.00    +0.000 A 
ATOM     20  N   UNL     1      -0.692  10.818  18.686  0.00  0.00    +0.000 NA
BRANCH  17  21
ATOM     21  C   UNL     1       1.904  14.269  18.476  0.00  0.00    +0.000 A 
ATOM     22  C   UNL     1       3.265  14.146  18.141  0.00  0.00    +0.000 A 
ATOM     23  C   UNL     1       4.103  15.262  18.051  0.00  0.00    +0.000 A 
ATOM     24  C   UNL     1       3.603  16.533  18.313  0.00  0.00    +0.000 A 
ATOM     25  C   UNL     1       2.266  16.686  18.663  0.00  0.00    +0.000 A 
ATOM     26  C   UNL     1       1.427  15.568  18.740  0.00  0.00    +0.000 A 
ENDBRANCH  17  21
ENDBRANCH   4  15
TORSDOF 4
ENDMDL
MODEL 8
REMARK VINA RESULT:      -7.8      2.460      8.078
REMARK  Name = 
REMARK  4 active torsions:
REMARK  status: ('A' for Active; 'I' for Inactive)
REMARK    1  A    between atoms: C_4  and  C_5
REMARK    2  A    between atoms: C_8  and  C_9
REMARK    3  A    between atoms: C_11  and  C_12
REMARK    4  A    between atoms: N_23  and  C_24
REMARK                            x       y       z     vdW  Elec       q    Type
REMARK                         _______ _______ _______ _____ _____    ______ ____
ROOT
ATOM      1  C   UNL     1       0.650  11.036  20.290  0.00  0.00    +0.000 A 
ATOM      2  N   UNL     1       0.665  10.791  21.606  0.00  0.00    +0.000 NA
ATOM      3  O   UNL     1       1.145   9.473  21.677  0.00  0.00    +0.000 OA
ATOM      4  C   UNL     1       1.373   9.074  20.387  0.00  0.00    +0.000 A 
ATOM      5  N   UNL     1       1.102  10.012  19.505  0.00  0.00    +0.000 NA
ENDROOT
BRANCH   1   9
ATOM      6  O   UNL     1      -3.378  12.252  20.220  0.00  0.00    +0.000 OA
ATOM      7  C   UNL     1      -2.235  12.247  19.793  0.00  0.00    +0.000 C 
ATOM      8  C   UNL     1      -1.046  12.873  20.488  0.00  0.00    +0.000 C 
ATOM      9  C   UNL     1       0.151  12.316  19.711  0.00  0.00    +0.000 C 
ATOM     10  C   UNL     1      -0.420  12.111  18.315  0.00  0.00    +0.000 C 
ATOM     11  N   UNL     1      -1.798  11.769  18.556  0.00  0.00    +0.000 N 
BRANCH  11  12
ATOM     12  C   UNL     1      -2.671  11.348  17.512  0.00  0.00    +0.000 C 
ATOM     13  C   UNL     1      -3.396  10.032  17.596  0.00  0.00    +0.000 C 
ATOM     14  C   UNL     1      -2.310  10.220  16.581  0.00  0.00    +0.000 C 
ENDBRANCH  11  12
ENDBRANCH   1   9
BRANCH   4  15
ATOM     15  C   UNL     1       1.805   7.703  20.159  0.00  0.00    +0.000 A 
ATOM     16  C   UNL     1       2.646   7.413  19.085  0.00  0.00    +0.000 A 
ATOM     17  C   UNL     1       2.978   6.083  18.790  0.00  0.00    +0.000 A 
ATOM     18  C   UNL     1       2.435   5.103  19.631  0.00  0.00    +0.000 A 
ATOM     19  C   UNL     1       1.630   5.477  20.697  0.00  0.00    +0.000 A 
ATOM     20  N   UNL     1       1.301   6.752  20.981  0.00  0.00    +0.000 NA
BRANCH  17  21
ATOM     21  C   UNL     1       3.843   5.731  17.636  0.00  0.00    +0.000 A 
ATOM     22  C   UNL     1       4.052   4.391  17.261  0.00  0.00    +0.000 A 
ATOM     23  C   UNL     1       4.843   4.052  16.158  0.00  0.00    +0.000 A 
ATOM     24  C   UNL     1       5.459   5.048  15.409  0.00  0.00    +0.000 A 
ATOM     25  C   UNL     1       5.286   6.381  15.765  0.00  0.00    +0.000 A 
ATOM     26  C   UNL     1       4.484   6.718  16.861  0.00  0.00    +0.000 A 
ENDBRANCH  17  21
ENDBRANCH   4  15
TORSDOF 4
ENDMDL
MODEL 9
REMARK VINA RESULT:      -7.8      1.290      1.517
REMARK  Name = 
REMARK  4 active torsions:
REMARK  status: ('A' for Active; 'I' for Inactive)
REMARK    1  A    between atoms: C_4  and  C_5
REMARK    2  A    between atoms: C_8  and  C_9
REMARK    3  A    between atoms: C_11  and  C_12
REMARK    4  A    between atoms: N_23  and  C_24
REMARK                            x       y       z     vdW  Elec       q    Type
REMARK                         _______ _______ _______ _____ _____    ______ ____
ROOT
ATOM      1  C   UNL     1       2.139   7.489  19.764  0.00  0.00    +0.000 A 
ATOM      2  N   UNL     1       1.676   7.643  21.011  0.00  0.00    +0.000 NA
ATOM      3  O   UNL     1       0.920   8.823  20.924  0.00  0.00    +0.000 OA
ATOM      4  C   UNL     1       1.006   9.243  19.623  0.00  0.00    +0.000 A 
ATOM      5  N   UNL     1       1.728   8.440  18.872  0.00  0.00    +0.000 NA
ENDROOT
BRANCH   1   9
ATOM      6  O   UNL     1       1.131   4.292  17.220  0.00  0.00    +0.000 OA
ATOM      7  C   UNL     1       1.774   4.804  18.123  0.00  0.00    +0.000 C 
ATOM      8  C   UNL     1       2.802   5.898  17.942  0.00  0.00    +0.000 C 
ATOM      9  C   UNL     1       3.058   6.382  19.373  0.00  0.00    +0.000 C 
ATOM     10  C   UNL     1       2.807   5.130  20.202  0.00  0.00    +0.000 C 
ATOM     11  N   UNL     1       1.780   4.436  19.469  0.00  0.00    +0.000 N 
BRANCH  11  12
ATOM     12  C   UNL     1       1.139   3.270  19.978  0.00  0.00    +0.000 C 
ATOM     13  C   UNL     1       1.627   2.609  21.239  0.00  0.00    +0.000 C 
ATOM     14  C   UNL     1       1.793   1.914  19.923  0.00  0.00    +0.000 C 
ENDBRANCH  11  12
ENDBRANCH   1   9
BRANCH   4  15
ATOM     15  C   UNL     1       0.370  10.502  19.266  0.00  0.00    +0.000 A 
ATOM     16  C   UNL     1      -1.009  10.548  19.065  0.00  0.00    +0.000 A 
ATOM     17  C   UNL     1      -1.616  11.728  18.612  0.00  0.00    +0.000 A 
ATOM     18  C   UNL     1      -0.769  12.823  18.397  0.00  0.00    +0.000 A 
ATOM     19  C   UNL     1       0.590  12.703  18.649  0.00  0.00    +0.000 A 
ATOM     20  N   UNL     1       1.180  11.571  19.077  0.00  0.00    +0.000 NA
BRANCH  17  21
ATOM     21  C   UNL     1      -3.076  11.807  18.355  0.00  0.00    +0.000 A 
ATOM     22  C   UNL     1      -3.622  11.421  17.117  0.00  0.00    +0.000 A 
ATOM     23  C   UNL     1      -4.999  11.465  16.876  0.00  0.00    +0.000 A 
ATOM     24  C   UNL     1      -5.866  11.915  17.866  0.00  0.00    +0.000 A 
ATOM     25  C   UNL     1      -5.356  12.320  19.094  0.00  0.00    +0.000 A 
ATOM     26  C   UNL     1      -3.979  12.262  19.336  0.00  0.00    +0.000 A 
ENDBRANCH  17  21
ENDBRANCH   4  15
TORSDOF 4
ENDMDL
