MODEL 1
REMARK VINA RESULT:      -9.1      0.000      0.000
REMARK  Name = 
REMARK  6 active torsions:
REMARK  status: ('A' for Active; 'I' for Inactive)
REMARK    1  A    between atoms: C_1  and  N_2
REMARK    2  A    between atoms: N_7  and  C_8
REMARK    3  A    between atoms: C_8  and  C_9
REMARK    4  A    between atoms: C_13  and  N_14
REMARK    5  A    between atoms: C_15  and  C_17
REMARK    6  A    between atoms: C_21  and  C_22
REMARK                            x       y       z     vdW  Elec       q    Type
REMARK                         _______ _______ _______ _____ _____    ______ ____
ROOT
ATOM      1  C   UNL     1       4.449   4.793  17.383  0.00  0.00    +0.000 A 
ATOM      2  C   UNL     1       3.654   3.650  17.160  0.00  0.00    +0.000 A 
ATOM      3  C   UNL     1       2.375   3.523  17.700  0.00  0.00    +0.000 A 
ATOM      4  C   UNL     1       1.857   4.530  18.507  0.00  0.00    +0.000 A 
ATOM      5  C   UNL     1       2.609   5.666  18.798  0.00  0.00    +0.000 A 
ATOM      6  C   UNL     1       3.888   5.785  18.226  0.00  0.00    +0.000 A 
ENDROOT
BRANCH   1   7
ATOM      7  C   UNL     1       5.890   4.959  16.708  0.00  0.00    +0.000 C 
ATOM      8  C   UNL     1       6.569   6.358  16.802  0.00  0.00    +0.000 C 
ATOM      9  O   UNL     1       7.730   5.829  17.470  0.00  0.00    +0.000 OA
ATOM     10  C   UNL     1       7.150   4.504  17.495  0.00  0.00    +0.000 C 
BRANCH   7  17
ATOM     11  C   UNL     1       5.865   3.350  12.539  0.00  0.00    +0.000 C 
ATOM     12  N   UNL     1       6.757   4.321  13.112  0.00  0.00    +0.000 N 
ATOM     13  C   UNL     1       7.782   4.927  12.449  0.00  0.00    +0.000 A 
ATOM     14  N   UNL     1       8.434   5.709  13.273  0.00  0.00    +0.000 NA
ATOM     15  N   UNL     1       7.804   5.630  14.493  0.00  0.00    +0.000 NA
ATOM     16  C   UNL     1       6.775   4.822  14.387  0.00  0.00    +0.000 A 
ATOM     17  N   UNL     1       5.842   4.516  15.318  0.00  0.00    +0.000 N 
ATOM     18  H   UNL     1       5.159   3.790  15.144  0.00  0.00    +0.000 HD
ENDBRANCH   7  17
ENDBRANCH   1   7
BRANCH   5  19
ATOM     19  N   UNL     1       2.164   6.701  19.659  0.00  0.00    +0.000 N 
ATOM     20  C   UNL     1       1.805   7.983  19.272  0.00  0.00    +0.000 C 
ATOM     21  O   UNL     1       1.865   8.442  18.136  0.00  0.00    +0.000 OA
ATOM     22  H   UNL     1       2.013   6.431  20.622  0.00  0.00    +0.000 HD
BRANCH  20  23
ATOM     23  C   UNL     1       1.262   8.882  20.325  0.00  0.00    +0.000 A 
ATOM     24  C   UNL     1       1.228   8.552  21.674  0.00  0.00    +0.000 A 
ATOM     25  C   UNL     1       0.749   9.511  22.547  0.00  0.00    +0.000 A 
ATOM     26  N   UNL     1       0.315  10.734  22.167  0.00  0.00    +0.000 NA
ATOM     27  C   UNL     1       0.358  11.063  20.851  0.00  0.00    +0.000 A 
ATOM     28  C   UNL     1       0.828  10.149  19.916  0.00  0.00    +0.000 A 
BRANCH  27  29
ATOM     29  C   UNL     1      -0.068  12.451  20.441  0.00  0.00    +0.000 C 
ATOM     30  C   UNL     1      -1.067  13.198  21.293  0.00  0.00    +0.000 C 
ATOM     31  C   UNL     1      -1.461  12.734  19.923  0.00  0.00    +0.000 C 
ENDBRANCH  27  29
ENDBRANCH  20  23
ENDBRANCH   5  19
TORSDOF 5
ENDMDL
MODEL 2
REMARK VINA RESULT:      -9.0      2.925      9.425
REMARK  Name = 
REMARK  6 active torsions:
REMARK  status: ('A' for Active; 'I' for Inactive)
REMARK    1  A    between atoms: C_1  and  N_2
REMARK    2  A    between atoms: N_7  and  C_8
REMARK    3  A    between atoms: C_8  and  C_9
REMARK    4  A    between atoms: C_13  and  N_14
REMARK    5  A    between atoms: C_15  and  C_17
REMARK    6  A    between atoms: C_21  and  C_22
REMARK                            x       y       z     vdW  Elec       q    Type
REMARK                         _______ _______ _______ _____ _____    ______ ____
ROOT
ATOM      1  C   UNL     1       0.174  10.942  19.878  0.00  0.00    +0.000 A 
ATOM      2  C   UNL     1      -0.018  10.976  21.274  0.00  0.00    +0.000 A 
ATOM      3  C   UNL     1       0.426   9.949  22.106  0.00  0.00    +0.000 A 
ATOM      4  C   UNL     1       1.059   8.836  21.562  0.00  0.00    +0.000 A 
ATOM      5  C   UNL     1       1.243   8.725  20.186  0.00  0.00    +0.000 A 
ATOM      6  C   UNL     1       0.807   9.781  19.366  0.00  0.00    +0.000 A 
ENDROOT
BRANCH   1   7
ATOM      7  C   UNL     1      -0.281  12.153  18.938  0.00  0.00    +0.000 C 
ATOM      8  C   UNL     1      -0.958  13.379  19.623  0.00  0.00    +0.000 C 
ATOM      9  O   UNL     1       0.031  14.297  19.122  0.00  0.00    +0.000 OA
ATOM     10  C   UNL     1       0.771  13.214  18.510  0.00  0.00    +0.000 C 
BRANCH   7  17
ATOM     11  C   UNL     1      -2.844  10.892  15.502  0.00  0.00    +0.000 C 
ATOM     12  N   UNL     1      -3.248  11.192  16.849  0.00  0.00    +0.000 N 
ATOM     13  C   UNL     1      -4.529  11.141  17.311  0.00  0.00    +0.000 A 
ATOM     14  N   UNL     1      -4.560  11.530  18.561  0.00  0.00    +0.000 NA
ATOM     15  N   UNL     1      -3.265  11.815  18.929  0.00  0.00    +0.000 NA
ATOM     16  C   UNL     1      -2.472  11.579  17.910  0.00  0.00    +0.000 A 
ATOM     17  N   UNL     1      -1.123  11.655  17.855  0.00  0.00    +0.000 N 
ATOM     18  H   UNL     1      -0.637  11.553  16.973  0.00  0.00    +0.000 HD
ENDBRANCH   7  17
ENDBRANCH   1   7
BRANCH   5  19
ATOM     19  N   UNL     1       1.827   7.593  19.562  0.00  0.00    +0.000 N 
ATOM     20  C   UNL     1       2.586   7.605  18.402  0.00  0.00    +0.000 C 
ATOM     21  O   UNL     1       2.828   8.583  17.704  0.00  0.00    +0.000 OA
ATOM     22  H   UNL     1       1.749   6.725  20.076  0.00  0.00    +0.000 HD
BRANCH  20  23
ATOM     23  C   UNL     1       3.196   6.317  17.978  0.00  0.00    +0.000 A 
ATOM     24  C   UNL     1       4.510   6.197  17.545  0.00  0.00    +0.000 A 
ATOM     25  C   UNL     1       4.960   4.925  17.238  0.00  0.00    +0.000 A 
ATOM     26  N   UNL     1       4.203   3.810  17.332  0.00  0.00    +0.000 NA
ATOM     27  C   UNL     1       2.923   3.923  17.766  0.00  0.00    +0.000 A 
ATOM     28  C   UNL     1       2.402   5.169  18.093  0.00  0.00    +0.000 A 
BRANCH  27  29
ATOM     29  C   UNL     1       2.103   2.666  17.930  0.00  0.00    +0.000 C 
ATOM     30  C   UNL     1       0.838   2.714  18.756  0.00  0.00    +0.000 C 
ATOM     31  C   UNL     1       2.021   1.939  19.253  0.00  0.00    +0.000 C 
ENDBRANCH  27  29
ENDBRANCH  20  23
ENDBRANCH   5  19
TORSDOF 5
ENDMDL
MODEL 3
REMARK VINA RESULT:      -9.0      2.962      9.400
REMARK  Name = 
REMARK  6 active torsions:
REMARK  status: ('A' for Active; 'I' for Inactive)
REMARK    1  A    between atoms: C_1  and  N_2
REMARK    2  A    between atoms: N_7  and  C_8
REMARK    3  A    between atoms: C_8  and  C_9
REMARK    4  A    between atoms: C_13  and  N_14
REMARK    5  A    between atoms: C_15  and  C_17
REMARK    6  A    between atoms: C_21  and  C_22
REMARK                            x       y       z     vdW  Elec       q    Type
REMARK                         _______ _______ _______ _____ _____    ______ ____
ROOT
ATOM      1  C   UNL     1       0.230  10.534  19.729  0.00  0.00    +0.000 A 
ATOM      2  C   UNL     1      -0.242  10.314  21.039  0.00  0.00    +0.000 A 
ATOM      3  C   UNL     1       0.172   9.222  21.800  0.00  0.00    +0.000 A 
ATOM      4  C   UNL     1       1.058   8.294  21.262  0.00  0.00    +0.000 A 
ATOM      5  C   UNL     1       1.529   8.434  19.959  0.00  0.00    +0.000 A 
ATOM      6  C   UNL     1       1.116   9.553  19.215  0.00  0.00    +0.000 A 
ENDROOT
BRANCH   1   7
ATOM      7  C   UNL     1      -0.201  11.824  18.886  0.00  0.00    +0.000 C 
ATOM      8  C   UNL     1      -0.804  13.027  19.673  0.00  0.00    +0.000 C 
ATOM      9  O   UNL     1       0.209  13.935  19.202  0.00  0.00    +0.000 OA
ATOM     10  C   UNL     1       0.884  12.867  18.496  0.00  0.00    +0.000 C 
BRANCH   7  17
ATOM     11  C   UNL     1      -2.899  10.898  15.448  0.00  0.00    +0.000 C 
ATOM     12  N   UNL     1      -3.262  11.201  16.805  0.00  0.00    +0.000 N 
ATOM     13  C   UNL     1      -4.539  11.261  17.279  0.00  0.00    +0.000 A 
ATOM     14  N   UNL     1      -4.522  11.620  18.538  0.00  0.00    +0.000 NA
ATOM     15  N   UNL     1      -3.203  11.771  18.900  0.00  0.00    +0.000 NA
ATOM     16  C   UNL     1      -2.444  11.486  17.868  0.00  0.00    +0.000 A 
ATOM     17  N   UNL     1      -1.095  11.434  17.801  0.00  0.00    +0.000 N 
ATOM     18  H   UNL     1      -0.627  11.309  16.912  0.00  0.00    +0.000 HD
ENDBRANCH   7  17
ENDBRANCH   1   7
BRANCH   5  19
ATOM     19  N   UNL     1       2.386   7.495  19.331  0.00  0.00    +0.000 N 
ATOM     20  C   UNL     1       2.409   6.129  19.567  0.00  0.00    +0.000 C 
ATOM     21  O   UNL     1       1.733   5.524  20.392  0.00  0.00    +0.000 OA
ATOM     22  H   UNL     1       2.957   7.862  18.580  0.00  0.00    +0.000 HD
BRANCH  20  23
ATOM     23  C   UNL     1       3.314   5.309  18.718  0.00  0.00    +0.000 A 
ATOM     24  C   UNL     1       2.862   4.363  17.807  0.00  0.00    +0.000 A 
ATOM     25  C   UNL     1       3.816   3.716  17.042  0.00  0.00    +0.000 A 
ATOM     26  N   UNL     1       5.145   3.949  17.131  0.00  0.00    +0.000 NA
ATOM     27  C   UNL     1       5.587   4.881  18.012  0.00  0.00    +0.000 A 
ATOM     28  C   UNL     1       4.686   5.571  18.814  0.00  0.00    +0.000 A 
BRANCH  27  29
ATOM     29  C   UNL     1       7.066   5.182  18.062  0.00  0.00    +0.000 C 
ATOM     30  C   UNL     1       7.655   5.777  19.320  0.00  0.00    +0.000 C 
ATOM     31  C   UNL     1       7.587   6.601  18.070  0.00  0.00    +0.000 C 
ENDBRANCH  27  29
ENDBRANCH  20  23
ENDBRANCH   5  19
TORSDOF 5
ENDMDL
MODEL 4
REMARK VINA RESULT:      -8.9      1.233      1.529
REMARK  Name = 
REMARK  6 active torsions:
REMARK  status: ('A' for Active; 'I' for Inactive)
REMARK    1  A    between atoms: C_1  and  N_2
REMARK    2  A    between atoms: N_7  and  C_8
REMARK    3  A    between atoms: C_8  and  C_9
REMARK    4  A    between atoms: C_13  and  N_14
REMARK    5  A    between atoms: C_15  and  C_17
REMARK    6  A    between atoms: C_21  and  C_22
REMARK                            x       y       z     vdW  Elec       q    Type
REMARK                         _______ _______ _______ _____ _____    ______ ____
ROOT
ATOM      1  C   UNL     1       4.478   4.971  17.353  0.00  0.00    +0.000 A 
ATOM      2  C   UNL     1       3.690   3.803  17.372  0.00  0.00    +0.000 A 
ATOM      3  C   UNL     1       2.392   3.796  17.880  0.00  0.00    +0.000 A 
ATOM      4  C   UNL     1       1.845   4.960  18.410  0.00  0.00    +0.000 A 
ATOM      5  C   UNL     1       2.588   6.137  18.457  0.00  0.00    +0.000 A 
ATOM      6  C   UNL     1       3.888   6.129  17.921  0.00  0.00    +0.000 A 
ENDROOT
BRANCH   1   7
ATOM      7  C   UNL     1       5.944   4.986  16.712  0.00  0.00    +0.000 C 
ATOM      8  C   UNL     1       6.753   6.315  16.800  0.00  0.00    +0.000 C 
ATOM      9  O   UNL     1       7.842   5.689  17.506  0.00  0.00    +0.000 OA
ATOM     10  C   UNL     1       7.136   4.426  17.538  0.00  0.00    +0.000 C 
BRANCH   7  17
ATOM     11  C   UNL     1       5.889   3.318  12.567  0.00  0.00    +0.000 C 
ATOM     12  N   UNL     1       6.787   4.294  13.120  0.00  0.00    +0.000 N 
ATOM     13  C   UNL     1       7.810   4.888  12.442  0.00  0.00    +0.000 A 
ATOM     14  N   UNL     1       8.469   5.680  13.251  0.00  0.00    +0.000 NA
ATOM     15  N   UNL     1       7.846   5.620  14.476  0.00  0.00    +0.000 NA
ATOM     16  C   UNL     1       6.814   4.813  14.388  0.00  0.00    +0.000 A 
ATOM     17  N   UNL     1       5.887   4.523  15.329  0.00  0.00    +0.000 N 
ATOM     18  H   UNL     1       5.201   3.796  15.169  0.00  0.00    +0.000 HD
ENDBRANCH   7  17
ENDBRANCH   1   7
BRANCH   5  19
ATOM     19  N   UNL     1       2.113   7.341  19.036  0.00  0.00    +0.000 N 
ATOM     20  C   UNL     1       1.955   8.552  18.381  0.00  0.00    +0.000 C 
ATOM     21  O   UNL     1       2.249   8.789  17.214  0.00  0.00    +0.000 OA
ATOM     22  H   UNL     1       1.778   7.263  19.988  0.00  0.00    +0.000 HD
BRANCH  20  23
ATOM     23  C   UNL     1       1.338   9.665  19.151  0.00  0.00    +0.000 A 
ATOM     24  C   UNL     1       0.685   9.488  20.364  0.00  0.00    +0.000 A 
ATOM     25  C   UNL     1       0.211  10.623  20.997  0.00  0.00    +0.000 A 
ATOM     26  N   UNL     1       0.344  11.876  20.507  0.00  0.00    +0.000 NA
ATOM     27  C   UNL     1       0.991  12.052  19.329  0.00  0.00    +0.000 A 
ATOM     28  C   UNL     1       1.495  10.957  18.636  0.00  0.00    +0.000 A 
BRANCH  27  29
ATOM     29  C   UNL     1       1.192  13.458  18.818  0.00  0.00    +0.000 C 
ATOM     30  C   UNL     1       2.494  13.819  18.142  0.00  0.00    +0.000 C 
ATOM     31  C   UNL     1       2.162  14.412  19.478  0.00  0.00    +0.000 C 
ENDBRANCH  27  29
ENDBRANCH  20  23
ENDBRANCH   5  19
TORSDOF 5
ENDMDL
MODEL 5
REMARK VINA RESULT:      -8.9      3.152      9.706
REMARK  Name = 
REMARK  6 active torsions:
REMARK  status: ('A' for Active; 'I' for Inactive)
REMARK    1  A    between atoms: C_1  and  N_2
REMARK    2  A    between atoms: N_7  and  C_8
REMARK    3  A    between atoms: C_8  and  C_9
REMARK    4  A    between atoms: C_13  and  N_14
REMARK    5  A    between atoms: C_15  and  C_17
REMARK    6  A    between atoms: C_21  and  C_22
REMARK                            x       y       z     vdW  Elec       q    Type
REMARK                         _______ _______ _______ _____ _____    ______ ____
ROOT
ATOM      1  C   UNL     1      -0.507  11.403  20.134  0.00  0.00    +0.000 A 
ATOM      2  C   UNL     1      -0.721  11.173  21.508  0.00  0.00    +0.000 A 
ATOM      3  C   UNL     1      -0.119  10.111  22.181  0.00  0.00    +0.000 A 
ATOM      4  C   UNL     1       0.701   9.225  21.492  0.00  0.00    +0.000 A 
ATOM      5  C   UNL     1       0.920   9.376  20.125  0.00  0.00    +0.000 A 
ATOM      6  C   UNL     1       0.321  10.465  19.468  0.00  0.00    +0.000 A 
ENDROOT
BRANCH   1   7
ATOM      7  C   UNL     1      -1.151  12.661  19.383  0.00  0.00    +0.000 C 
ATOM      8  C   UNL     1      -1.094  14.038  20.111  0.00  0.00    +0.000 C 
ATOM      9  O   UNL     1      -0.375  14.661  19.030  0.00  0.00    +0.000 OA
ATOM     10  C   UNL     1      -0.313  13.408  18.308  0.00  0.00    +0.000 C 
BRANCH   7  17
ATOM     11  C   UNL     1      -5.337  11.493  18.344  0.00  0.00    +0.000 C 
ATOM     12  N   UNL     1      -4.152  11.360  17.541  0.00  0.00    +0.000 N 
ATOM     13  C   UNL     1      -4.113  10.830  16.286  0.00  0.00    +0.000 A 
ATOM     14  N   UNL     1      -2.874  10.799  15.862  0.00  0.00    +0.000 NA
ATOM     15  N   UNL     1      -2.092  11.345  16.852  0.00  0.00    +0.000 NA
ATOM     16  C   UNL     1      -2.864  11.714  17.848  0.00  0.00    +0.000 A 
ATOM     17  N   UNL     1      -2.522  12.357  18.987  0.00  0.00    +0.000 N 
ATOM     18  H   UNL     1      -3.199  12.486  19.729  0.00  0.00    +0.000 HD
ENDBRANCH   7  17
ENDBRANCH   1   7
BRANCH   5  19
ATOM     19  N   UNL     1       1.697   8.476  19.351  0.00  0.00    +0.000 N 
ATOM     20  C   UNL     1       1.997   7.165  19.686  0.00  0.00    +0.000 C 
ATOM     21  O   UNL     1       1.685   6.591  20.724  0.00  0.00    +0.000 OA
ATOM     22  H   UNL     1       1.968   8.811  18.435  0.00  0.00    +0.000 HD
BRANCH  20  23
ATOM     23  C   UNL     1       2.738   6.359  18.678  0.00  0.00    +0.000 A 
ATOM     24  C   UNL     1       3.802   6.853  17.934  0.00  0.00    +0.000 A 
ATOM     25  C   UNL     1       4.435   5.972  17.076  0.00  0.00    +0.000 A 
ATOM     26  N   UNL     1       4.081   4.676  16.923  0.00  0.00    +0.000 NA
ATOM     27  C   UNL     1       3.050   4.190  17.658  0.00  0.00    +0.000 A 
ATOM     28  C   UNL     1       2.366   5.017  18.540  0.00  0.00    +0.000 A 
BRANCH  27  29
ATOM     29  C   UNL     1       2.699   2.727  17.528  0.00  0.00    +0.000 C 
ATOM     30  C   UNL     1       2.022   2.026  18.683  0.00  0.00    +0.000 C 
ATOM     31  C   UNL     1       3.429   1.663  18.317  0.00  0.00    +0.000 C 
ENDBRANCH  27  29
ENDBRANCH  20  23
ENDBRANCH   5  19
TORSDOF 5
ENDMDL
MODEL 6
REMARK VINA RESULT:      -8.9      2.857      9.359
REMARK  Name = 
REMARK  6 active torsions:
REMARK  status: ('A' for Active; 'I' for Inactive)
REMARK    1  A    between atoms: C_1  and  N_2
REMARK    2  A    between atoms: N_7  and  C_8
REMARK    3  A    between atoms: C_8  and  C_9
REMARK    4  A    between atoms: C_13  and  N_14
REMARK    5  A    between atoms: C_15  and  C_17
REMARK    6  A    between atoms: C_21  and  C_22
REMARK                            x       y       z     vdW  Elec       q    Type
REMARK                         _______ _______ _______ _____ _____    ______ ____
ROOT
ATOM      1  C   UNL     1       0.159  10.887  20.116  0.00  0.00    +0.000 A 
ATOM      2  C   UNL     1      -0.407  10.991  21.402  0.00  0.00    +0.000 A 
ATOM      3  C   UNL     1      -0.192  10.024  22.384  0.00  0.00    +0.000 A 
ATOM      4  C   UNL     1       0.581   8.904  22.101  0.00  0.00    +0.000 A 
ATOM      5  C   UNL     1       1.135   8.724  20.836  0.00  0.00    +0.000 A 
ATOM      6  C   UNL     1       0.924   9.719  19.865  0.00  0.00    +0.000 A 
ENDROOT
BRANCH   1   7
ATOM      7  C   UNL     1      -0.039  12.031  19.015  0.00  0.00    +0.000 C 
ATOM      8  C   UNL     1      -0.490  13.437  19.515  0.00  0.00    +0.000 C 
ATOM      9  O   UNL     1       0.665  14.087  18.952  0.00  0.00    +0.000 OA
ATOM     10  C   UNL     1       1.203  12.818  18.511  0.00  0.00    +0.000 C 
BRANCH   7  17
ATOM     11  C   UNL     1      -2.746  10.850  15.662  0.00  0.00    +0.000 C 
ATOM     12  N   UNL     1      -3.105  11.239  16.999  0.00  0.00    +0.000 N 
ATOM     13  C   UNL     1      -4.380  11.318  17.475  0.00  0.00    +0.000 A 
ATOM     14  N   UNL     1      -4.360  11.760  18.707  0.00  0.00    +0.000 NA
ATOM     15  N   UNL     1      -3.041  11.948  19.050  0.00  0.00    +0.000 NA
ATOM     16  C   UNL     1      -2.285  11.603  18.035  0.00  0.00    +0.000 A 
ATOM     17  N   UNL     1      -0.935  11.561  17.963  0.00  0.00    +0.000 N 
ATOM     18  H   UNL     1      -0.471  11.381  17.082  0.00  0.00    +0.000 HD
ENDBRANCH   7  17
ENDBRANCH   1   7
BRANCH   5  19
ATOM     19  N   UNL     1       1.882   7.578  20.463  0.00  0.00    +0.000 N 
ATOM     20  C   UNL     1       2.379   7.306  19.198  0.00  0.00    +0.000 C 
ATOM     21  O   UNL     1       2.208   7.984  18.190  0.00  0.00    +0.000 OA
ATOM     22  H   UNL     1       2.145   6.963  21.224  0.00  0.00    +0.000 HD
BRANCH  20  23
ATOM     23  C   UNL     1       3.233   6.097  19.049  0.00  0.00    +0.000 A 
ATOM     24  C   UNL     1       3.134   4.982  19.872  0.00  0.00    +0.000 A 
ATOM     25  C   UNL     1       3.952   3.906  19.579  0.00  0.00    +0.000 A 
ATOM     26  N   UNL     1       4.830   3.880  18.552  0.00  0.00    +0.000 NA
ATOM     27  C   UNL     1       4.919   4.962  17.740  0.00  0.00    +0.000 A 
ATOM     28  C   UNL     1       4.128   6.081  17.974  0.00  0.00    +0.000 A 
BRANCH  27  29
ATOM     29  C   UNL     1       5.857   4.902  16.557  0.00  0.00    +0.000 C 
ATOM     30  C   UNL     1       5.505   5.660  15.298  0.00  0.00    +0.000 C 
ATOM     31  C   UNL     1       5.490   4.161  15.291  0.00  0.00    +0.000 C 
ENDBRANCH  27  29
ENDBRANCH  20  23
ENDBRANCH   5  19
TORSDOF 5
ENDMDL
MODEL 7
REMARK VINA RESULT:      -8.8      2.878      9.400
REMARK  Name = 
REMARK  6 active torsions:
REMARK  status: ('A' for Active; 'I' for Inactive)
REMARK    1  A    between atoms: C_1  and  N_2
REMARK    2  A    between atoms: N_7  and  C_8
REMARK    3  A    between atoms: C_8  and  C_9
REMARK    4  A    between atoms: C_13  and  N_14
REMARK    5  A    between atoms: C_15  and  C_17
REMARK    6  A    between atoms: C_21  and  C_22
REMARK                            x       y       z     vdW  Elec       q    Type
REMARK                         _______ _______ _______ _____ _____    ______ ____
ROOT
ATOM      1  C   UNL     1       0.399  10.599  19.762  0.00  0.00    +0.000 A 
ATOM      2  C   UNL     1      -0.013  10.504  21.107  0.00  0.00    +0.000 A 
ATOM      3  C   UNL     1       0.356   9.433  21.918  0.00  0.00    +0.000 A 
ATOM      4  C   UNL     1       1.132   8.402  21.401  0.00  0.00    +0.000 A 
ATOM      5  C   UNL     1       1.538   8.418  20.068  0.00  0.00    +0.000 A 
ATOM      6  C   UNL     1       1.174   9.517  19.271  0.00  0.00    +0.000 A 
ENDROOT
BRANCH   1   7
ATOM      7  C   UNL     1       0.025  11.864  18.856  0.00  0.00    +0.000 C 
ATOM      8  C   UNL     1      -0.481  13.145  19.585  0.00  0.00    +0.000 C 
ATOM      9  O   UNL     1       0.572  13.960  19.037  0.00  0.00    +0.000 OA
ATOM     10  C   UNL     1       1.160  12.813  18.379  0.00  0.00    +0.000 C 
BRANCH   7  17
ATOM     11  C   UNL     1      -2.835  10.923  15.555  0.00  0.00    +0.000 C 
ATOM     12  N   UNL     1      -3.133  11.246  16.924  0.00  0.00    +0.000 N 
ATOM     13  C   UNL     1      -4.387  11.324  17.454  0.00  0.00    +0.000 A 
ATOM     14  N   UNL     1      -4.309  11.698  18.707  0.00  0.00    +0.000 NA
ATOM     15  N   UNL     1      -2.974  11.841  19.006  0.00  0.00    +0.000 NA
ATOM     16  C   UNL     1      -2.266  11.536  17.944  0.00  0.00    +0.000 A 
ATOM     17  N   UNL     1      -0.921  11.470  17.817  0.00  0.00    +0.000 N 
ATOM     18  H   UNL     1      -0.496  11.329  16.909  0.00  0.00    +0.000 HD
ENDBRANCH   7  17
ENDBRANCH   1   7
BRANCH   5  19
ATOM     19  N   UNL     1       2.280   7.372  19.462  0.00  0.00    +0.000 N 
ATOM     20  C   UNL     1       2.140   6.018  19.723  0.00  0.00    +0.000 C 
ATOM     21  O   UNL     1       1.393   5.513  20.554  0.00  0.00    +0.000 OA
ATOM     22  H   UNL     1       2.894   7.655  18.709  0.00  0.00    +0.000 HD
BRANCH  20  23
ATOM     23  C   UNL     1       2.945   5.081  18.895  0.00  0.00    +0.000 A 
ATOM     24  C   UNL     1       2.885   3.699  19.024  0.00  0.00    +0.000 A 
ATOM     25  C   UNL     1       3.646   2.949  18.145  0.00  0.00    +0.000 A 
ATOM     26  N   UNL     1       4.435   3.479  17.183  0.00  0.00    +0.000 NA
ATOM     27  C   UNL     1       4.485   4.827  17.048  0.00  0.00    +0.000 A 
ATOM     28  C   UNL     1       3.747   5.644  17.896  0.00  0.00    +0.000 A 
BRANCH  27  29
ATOM     29  C   UNL     1       5.318   5.410  15.932  0.00  0.00    +0.000 C 
ATOM     30  C   UNL     1       6.186   4.492  15.103  0.00  0.00    +0.000 C 
ATOM     31  C   UNL     1       6.825   5.487  16.023  0.00  0.00    +0.000 C 
ENDBRANCH  27  29
ENDBRANCH  20  23
ENDBRANCH   5  19
TORSDOF 5
ENDMDL
MODEL 8
REMARK VINA RESULT:      -8.8      2.107      3.199
REMARK  Name = 
REMARK  6 active torsions:
REMARK  status: ('A' for Active; 'I' for Inactive)
REMARK    1  A    between atoms: C_1  and  N_2
REMARK    2  A    between atoms: N_7  and  C_8
REMARK    3  A    between atoms: C_8  and  C_9
REMARK    4  A    between atoms: C_13  and  N_14
REMARK    5  A    between atoms: C_15  and  C_17
REMARK    6  A    between atoms: C_21  and  C_22
REMARK                            x       y       z     vdW  Elec       q    Type
REMARK                         _______ _______ _______ _____ _____    ______ ____
ROOT
ATOM      1  C   UNL     1       4.130   4.768  17.081  0.00  0.00    +0.000 A 
ATOM      2  C   UNL     1       3.256   3.664  17.024  0.00  0.00    +0.000 A 
ATOM      3  C   UNL     1       1.963   3.717  17.542  0.00  0.00    +0.000 A 
ATOM      4  C   UNL     1       1.508   4.877  18.160  0.00  0.00    +0.000 A 
ATOM      5  C   UNL     1       2.337   5.988  18.284  0.00  0.00    +0.000 A 
ATOM      6  C   UNL     1       3.630   5.922  17.737  0.00  0.00    +0.000 A 
ENDROOT
BRANCH   1   7
ATOM      7  C   UNL     1       5.589   4.720  16.428  0.00  0.00    +0.000 C 
ATOM      8  C   UNL     1       5.994   3.419  15.669  0.00  0.00    +0.000 C 
ATOM      9  O   UNL     1       6.244   4.128  14.441  0.00  0.00    +0.000 OA
ATOM     10  C   UNL     1       5.816   5.375  15.037  0.00  0.00    +0.000 C 
BRANCH   7  17
ATOM     11  C   UNL     1       8.455   5.749  19.698  0.00  0.00    +0.000 C 
ATOM     12  N   UNL     1       7.981   6.591  18.635  0.00  0.00    +0.000 N 
ATOM     13  C   UNL     1       8.341   7.893  18.448  0.00  0.00    +0.000 A 
ATOM     14  N   UNL     1       7.685   8.386  17.428  0.00  0.00    +0.000 NA
ATOM     15  N   UNL     1       6.900   7.376  16.923  0.00  0.00    +0.000 NA
ATOM     16  C   UNL     1       7.103   6.288  17.626  0.00  0.00    +0.000 A 
ATOM     17  N   UNL     1       6.596   5.049  17.432  0.00  0.00    +0.000 N 
ATOM     18  H   UNL     1       6.746   4.318  18.115  0.00  0.00    +0.000 HD
ENDBRANCH   7  17
ENDBRANCH   1   7
BRANCH   5  19
ATOM     19  N   UNL     1       1.957   7.179  18.954  0.00  0.00    +0.000 N 
ATOM     20  C   UNL     1       1.878   8.442  18.387  0.00  0.00    +0.000 C 
ATOM     21  O   UNL     1       2.174   8.739  17.234  0.00  0.00    +0.000 OA
ATOM     22  H   UNL     1       1.628   7.058  19.903  0.00  0.00    +0.000 HD
BRANCH  20  23
ATOM     23  C   UNL     1       1.351   9.538  19.243  0.00  0.00    +0.000 A 
ATOM     24  C   UNL     1       0.777   9.329  20.490  0.00  0.00    +0.000 A 
ATOM     25  C   UNL     1       0.384  10.450  21.200  0.00  0.00    +0.000 A 
ATOM     26  N   UNL     1       0.525  11.718  20.754  0.00  0.00    +0.000 NA
ATOM     27  C   UNL     1       1.097  11.924  19.541  0.00  0.00    +0.000 A 
ATOM     28  C   UNL     1       1.515  10.846  18.771  0.00  0.00    +0.000 A 
BRANCH  27  29
ATOM     29  C   UNL     1       1.308  13.345  19.076  0.00  0.00    +0.000 C 
ATOM     30  C   UNL     1       2.411  13.640  18.086  0.00  0.00    +0.000 C 
ATOM     31  C   UNL     1       2.523  14.144  19.493  0.00  0.00    +0.000 C 
ENDBRANCH  27  29
ENDBRANCH  20  23
ENDBRANCH   5  19
TORSDOF 5
ENDMDL
MODEL 9
REMARK VINA RESULT:      -8.7      2.656      9.365
REMARK  Name = 
REMARK  6 active torsions:
REMARK  status: ('A' for Active; 'I' for Inactive)
REMARK    1  A    between atoms: C_1  and  N_2
REMARK    2  A    between atoms: N_7  and  C_8
REMARK    3  A    between atoms: C_8  and  C_9
REMARK    4  A    between atoms: C_13  and  N_14
REMARK    5  A    between atoms: C_15  and  C_17
REMARK    6  A    between atoms: C_21  and  C_22
REMARK                            x       y       z     vdW  Elec       q    Type
REMARK                         _______ _______ _______ _____ _____    ______ ____
ROOT
ATOM      1  C   UNL     1       0.059  10.666  20.598  0.00  0.00    +0.000 A 
ATOM      2  C   UNL     1      -0.098  10.488  21.987  0.00  0.00    +0.000 A 
ATOM      3  C   UNL     1       0.429   9.383  22.655  0.00  0.00    +0.000 A 
ATOM      4  C   UNL     1       1.111   8.401  21.945  0.00  0.00    +0.000 A 
ATOM      5  C   UNL     1       1.265   8.499  20.565  0.00  0.00    +0.000 A 
ATOM      6  C   UNL     1       0.745   9.631  19.913  0.00  0.00    +0.000 A 
ENDROOT
BRANCH   1   7
ATOM      7  C   UNL     1      -0.493  11.968  19.850  0.00  0.00    +0.000 C 
ATOM      8  C   UNL     1      -1.520  11.753  18.698  0.00  0.00    +0.000 C 
ATOM      9  O   UNL     1      -2.519  12.568  19.339  0.00  0.00    +0.000 OA
ATOM     10  C   UNL     1      -1.663  12.767  20.489  0.00  0.00    +0.000 C 
BRANCH   7  17
ATOM     11  C   UNL     1       3.080  14.221  18.394  0.00  0.00    +0.000 C 
ATOM     12  N   UNL     1       2.578  14.124  19.737  0.00  0.00    +0.000 N 
ATOM     13  C   UNL     1       3.137  14.723  20.826  0.00  0.00    +0.000 A 
ATOM     14  N   UNL     1       2.472  14.383  21.902  0.00  0.00    +0.000 NA
ATOM     15  N   UNL     1       1.441  13.565  21.501  0.00  0.00    +0.000 NA
ATOM     16  C   UNL     1       1.484  13.436  20.196  0.00  0.00    +0.000 A 
ATOM     17  N   UNL     1       0.623  12.784  19.383  0.00  0.00    +0.000 N 
ATOM     18  H   UNL     1       0.831  12.667  18.399  0.00  0.00    +0.000 HD
ENDBRANCH   7  17
ENDBRANCH   1   7
BRANCH   5  19
ATOM     19  N   UNL     1       1.897   7.506  19.774  0.00  0.00    +0.000 N 
ATOM     20  C   UNL     1       2.478   7.704  18.531  0.00  0.00    +0.000 C 
ATOM     21  O   UNL     1       2.490   8.753  17.895  0.00  0.00    +0.000 OA
ATOM     22  H   UNL     1       2.007   6.602  20.216  0.00  0.00    +0.000 HD
BRANCH  20  23
ATOM     23  C   UNL     1       3.185   6.547  17.920  0.00  0.00    +0.000 A 
ATOM     24  C   UNL     1       4.457   6.631  17.367  0.00  0.00    +0.000 A 
ATOM     25  C   UNL     1       5.015   5.460  16.888  0.00  0.00    +0.000 A 
ATOM     26  N   UNL     1       4.401   4.256  16.926  0.00  0.00    +0.000 NA
ATOM     27  C   UNL     1       3.165   4.170  17.476  0.00  0.00    +0.000 A 
ATOM     28  C   UNL     1       2.541   5.306  17.978  0.00  0.00    +0.000 A 
BRANCH  27  29
ATOM     29  C   UNL     1       2.511   2.813  17.573  0.00  0.00    +0.000 C 
ATOM     30  C   UNL     1       1.325   2.629  18.491  0.00  0.00    +0.000 C 
ATOM     31  C   UNL     1       2.627   1.962  18.818  0.00  0.00    +0.000 C 
ENDBRANCH  27  29
ENDBRANCH  20  23
ENDBRANCH   5  19
TORSDOF 5
ENDMDL
