MODEL 1
REMARK VINA RESULT:      -7.8      0.000      0.000
REMARK  Name = 
REMARK  7 active torsions:
REMARK  status: ('A' for Active; 'I' for Inactive)
REMARK    1  A    between atoms: C_1  and  C_2
REMARK    2  A    between atoms: C_6  and  O_7
REMARK    3  A    between atoms: C_9  and  C_10
REMARK    4  A    between atoms: N_12  and  C_13
REMARK    5  A    between atoms: C_22  and  C_23
REMARK    6  A    between atoms: C_23  and  C_24
REMARK    7  A    between atoms: C_23  and  C_25
REMARK                            x       y       z     vdW  Elec       q    Type
REMARK                         _______ _______ _______ _____ _____    ______ ____
ROOT
ATOM      1  C   UNL     1       4.820   6.128  18.221  0.00  0.00    +0.000 C 
ATOM      2  O   UNL     1       4.878   5.733  19.388  0.00  0.00    +0.000 OA
ATOM      3  N   UNL     1       3.638   6.271  17.530  0.00  0.00    +0.000 N 
ATOM      4  H   UNL     1       3.715   6.410  16.530  0.00  0.00    +0.000 HD
ENDROOT
BRANCH   3   5
ATOM      5  C   UNL     1       2.292   5.966  18.038  0.00  0.00    +0.000 C 
ATOM      6  C   UNL     1       2.107   4.500  18.419  0.00  0.00    +0.000 A 
ATOM      7  C   UNL     1       2.382   3.495  17.474  0.00  0.00    +0.000 A 
ATOM      8  C   UNL     1       2.169   2.149  17.775  0.00  0.00    +0.000 A 
ATOM      9  C   UNL     1       1.670   1.784  19.022  0.00  0.00    +0.000 A 
ATOM     10  C   UNL     1       1.418   2.763  19.979  0.00  0.00    +0.000 A 
ATOM     11  C   UNL     1       1.654   4.117  19.698  0.00  0.00    +0.000 A 
ATOM     12  C   UNL     1       1.366   5.127  20.775  0.00  0.00    +0.000 C 
ATOM     13  C   UNL     1       2.030   6.477  20.521  0.00  0.00    +0.000 C 
ATOM     14  C   UNL     1       1.703   6.964  19.098  0.00  0.00    +0.000 C 
BRANCH  14  15
ATOM     15  C   UNL     1       2.030   8.472  18.887  0.00  0.00    +0.000 C 
ATOM     16  C   UNL     1       1.524   8.986  17.533  0.00  0.00    +0.000 C 
ATOM     17  C   UNL     1       1.392   9.362  19.971  0.00  0.00    +0.000 C 
ENDBRANCH  14  15
ENDBRANCH   3   5
BRANCH   1  25
ATOM     18  C   UNL     1       6.656   4.810  14.021  0.00  0.00    +0.000 C 
ATOM     19  C   UNL     1       5.987   5.664  15.080  0.00  0.00    +0.000 C 
ATOM     20  O   UNL     1       5.124   6.493  14.792  0.00  0.00    +0.000 OA
ATOM     21  N   UNL     1       6.449   5.516  16.369  0.00  0.00    +0.000 N 
ATOM     22  C   UNL     1       7.550   4.638  16.754  0.00  0.00    +0.000 C 
ATOM     23  C   UNL     1       7.821   4.949  18.220  0.00  0.00    +0.000 C 
ATOM     24  C   UNL     1       7.325   6.390  18.372  0.00  0.00    +0.000 C 
ATOM     25  C   UNL     1       6.111   6.475  17.432  0.00  0.00    +0.000 C 
BRANCH  23  26
ATOM     26  O   UNL     1       7.141   4.043  19.078  0.00  0.00    +0.000 OA
ATOM     27  H   UNL     1       6.214   4.348  19.203  0.00  0.00    +0.000 HD
ENDBRANCH  23  26
ENDBRANCH   1  25
TORSDOF 4
ENDMDL
MODEL 2
REMARK VINA RESULT:      -6.9      2.560      6.453
REMARK  Name = 
REMARK  7 active torsions:
REMARK  status: ('A' for Active; 'I' for Inactive)
REMARK    1  A    between atoms: C_1  and  C_2
REMARK    2  A    between atoms: C_6  and  O_7
REMARK    3  A    between atoms: C_9  and  C_10
REMARK    4  A    between atoms: N_12  and  C_13
REMARK    5  A    between atoms: C_22  and  C_23
REMARK    6  A    between atoms: C_23  and  C_24
REMARK    7  A    between atoms: C_23  and  C_25
REMARK                            x       y       z     vdW  Elec       q    Type
REMARK                         _______ _______ _______ _____ _____    ______ ____
ROOT
ATOM      1  C   UNL     1       2.256   8.350  18.370  0.00  0.00    +0.000 C 
ATOM      2  O   UNL     1       2.077   8.474  17.156  0.00  0.00    +0.000 OA
ATOM      3  N   UNL     1       2.832   7.237  18.939  0.00  0.00    +0.000 N 
ATOM      4  H   UNL     1       2.752   7.153  19.945  0.00  0.00    +0.000 HD
ENDROOT
BRANCH   3   5
ATOM      5  C   UNL     1       3.294   6.037  18.225  0.00  0.00    +0.000 C 
ATOM      6  C   UNL     1       4.794   6.042  17.942  0.00  0.00    +0.000 A 
ATOM      7  C   UNL     1       5.370   7.125  17.255  0.00  0.00    +0.000 A 
ATOM      8  C   UNL     1       6.727   7.130  16.933  0.00  0.00    +0.000 A 
ATOM      9  C   UNL     1       7.532   6.051  17.284  0.00  0.00    +0.000 A 
ATOM     10  C   UNL     1       6.985   4.981  17.988  0.00  0.00    +0.000 A 
ATOM     11  C   UNL     1       5.627   4.976  18.342  0.00  0.00    +0.000 A 
ATOM     12  C   UNL     1       5.096   3.796  19.107  0.00  0.00    +0.000 C 
ATOM     13  C   UNL     1       3.756   4.074  19.782  0.00  0.00    +0.000 C 
ATOM     14  C   UNL     1       2.765   4.659  18.761  0.00  0.00    +0.000 C 
BRANCH  14  15
ATOM     15  C   UNL     1       1.292   4.631  19.265  0.00  0.00    +0.000 C 
ATOM     16  C   UNL     1       0.584   3.320  18.902  0.00  0.00    +0.000 C 
ATOM     17  C   UNL     1       1.199   4.782  20.796  0.00  0.00    +0.000 C 
ENDBRANCH  14  15
ENDBRANCH   3   5
BRANCH   1  25
ATOM     18  C   UNL     1      -0.545   8.499  22.228  0.00  0.00    +0.000 C 
ATOM     19  C   UNL     1       0.708   8.499  21.375  0.00  0.00    +0.000 C 
ATOM     20  O   UNL     1       1.767   8.021  21.781  0.00  0.00    +0.000 OA
ATOM     21  N   UNL     1       0.618   9.126  20.152  0.00  0.00    +0.000 N 
ATOM     22  C   UNL     1      -0.574   9.814  19.664  0.00  0.00    +0.000 C 
ATOM     23  C   UNL     1      -0.144  10.503  18.376  0.00  0.00    +0.000 C 
ATOM     24  C   UNL     1       1.362  10.701  18.568  0.00  0.00    +0.000 C 
ATOM     25  C   UNL     1       1.810   9.461  19.359  0.00  0.00    +0.000 C 
BRANCH  23  26
ATOM     26  O   UNL     1      -0.451   9.713  17.236  0.00  0.00    +0.000 OA
ATOM     27  H   UNL     1       0.328   9.696  16.633  0.00  0.00    +0.000 HD
ENDBRANCH  23  26
ENDBRANCH   1  25
TORSDOF 4
ENDMDL
MODEL 3
REMARK VINA RESULT:      -6.8      2.619      5.628
REMARK  Name = 
REMARK  7 active torsions:
REMARK  status: ('A' for Active; 'I' for Inactive)
REMARK    1  A    between atoms: C_1  and  C_2
REMARK    2  A    between atoms: C_6  and  O_7
REMARK    3  A    between atoms: C_9  and  C_10
REMARK    4  A    between atoms: N_12  and  C_13
REMARK    5  A    between atoms: C_22  and  C_23
REMARK    6  A    between atoms: C_23  and  C_24
REMARK    7  A    between atoms: C_23  and  C_25
REMARK                            x       y       z     vdW  Elec       q    Type
REMARK                         _______ _______ _______ _____ _____    ______ ____
ROOT
ATOM      1  C   UNL     1       1.859   7.851  20.005  0.00  0.00    +0.000 C 
ATOM      2  O   UNL     1       2.139   7.723  21.200  0.00  0.00    +0.000 OA
ATOM      3  N   UNL     1       2.381   7.047  19.018  0.00  0.00    +0.000 N 
ATOM      4  H   UNL     1       2.244   7.358  18.064  0.00  0.00    +0.000 HD
ENDROOT
BRANCH   3   5
ATOM      5  C   UNL     1       3.345   5.953  19.207  0.00  0.00    +0.000 C 
ATOM      6  C   UNL     1       2.699   4.651  19.674  0.00  0.00    +0.000 A 
ATOM      7  C   UNL     1       1.902   4.645  20.832  0.00  0.00    +0.000 A 
ATOM      8  C   UNL     1       1.345   3.460  21.314  0.00  0.00    +0.000 A 
ATOM      9  C   UNL     1       1.579   2.259  20.652  0.00  0.00    +0.000 A 
ATOM     10  C   UNL     1       2.344   2.250  19.488  0.00  0.00    +0.000 A 
ATOM     11  C   UNL     1       2.887   3.438  18.978  0.00  0.00    +0.000 A 
ATOM     12  C   UNL     1       3.700   3.364  17.715  0.00  0.00    +0.000 C 
ATOM     13  C   UNL     1       3.884   4.721  17.042  0.00  0.00    +0.000 C 
ATOM     14  C   UNL     1       4.402   5.748  18.064  0.00  0.00    +0.000 C 
BRANCH  14  15
ATOM     15  C   UNL     1       4.956   7.040  17.393  0.00  0.00    +0.000 C 
ATOM     16  C   UNL     1       6.460   7.215  17.635  0.00  0.00    +0.000 C 
ATOM     17  C   UNL     1       4.745   7.038  15.866  0.00  0.00    +0.000 C 
ENDBRANCH  14  15
ENDBRANCH   3   5
BRANCH   1  25
ATOM     18  C   UNL     1       2.415  12.167  18.053  0.00  0.00    +0.000 C 
ATOM     19  C   UNL     1       2.093  10.692  18.183  0.00  0.00    +0.000 C 
ATOM     20  O   UNL     1       2.267   9.907  17.251  0.00  0.00    +0.000 OA
ATOM     21  N   UNL     1       1.526  10.289  19.373  0.00  0.00    +0.000 N 
ATOM     22  C   UNL     1       1.186  11.191  20.469  0.00  0.00    +0.000 C 
ATOM     23  C   UNL     1       0.423  10.336  21.473  0.00  0.00    +0.000 C 
ATOM     24  C   UNL     1      -0.171   9.222  20.606  0.00  0.00    +0.000 C 
ATOM     25  C   UNL     1       0.896   8.970  19.528  0.00  0.00    +0.000 C 
BRANCH  23  26
ATOM     26  O   UNL     1       1.279   9.839  22.491  0.00  0.00    +0.000 OA
ATOM     27  H   UNL     1       1.747   9.039  22.161  0.00  0.00    +0.000 HD
ENDBRANCH  23  26
ENDBRANCH   1  25
TORSDOF 4
ENDMDL
MODEL 4
REMARK VINA RESULT:      -6.7      0.840      1.026
REMARK  Name = 
REMARK  7 active torsions:
REMARK  status: ('A' for Active; 'I' for Inactive)
REMARK    1  A    between atoms: C_1  and  C_2
REMARK    2  A    between atoms: C_6  and  O_7
REMARK    3  A    between atoms: C_9  and  C_10
REMARK    4  A    between atoms: N_12  and  C_13
REMARK    5  A    between atoms: C_22  and  C_23
REMARK    6  A    between atoms: C_23  and  C_24
REMARK    7  A    between atoms: C_23  and  C_25
REMARK                            x       y       z     vdW  Elec       q    Type
REMARK                         _______ _______ _______ _____ _____    ______ ____
ROOT
ATOM      1  C   UNL     1       4.771   6.277  17.999  0.00  0.00    +0.000 C 
ATOM      2  O   UNL     1       4.898   6.186  19.223  0.00  0.00    +0.000 OA
ATOM      3  N   UNL     1       3.553   6.224  17.361  0.00  0.00    +0.000 N 
ATOM      4  H   UNL     1       3.576   6.110  16.355  0.00  0.00    +0.000 HD
ENDROOT
BRANCH   3   5
ATOM      5  C   UNL     1       2.243   6.034  18.002  0.00  0.00    +0.000 C 
ATOM      6  C   UNL     1       2.207   4.849  18.963  0.00  0.00    +0.000 A 
ATOM      7  C   UNL     1       2.585   3.573  18.511  0.00  0.00    +0.000 A 
ATOM      8  C   UNL     1       2.509   2.461  19.351  0.00  0.00    +0.000 A 
ATOM      9  C   UNL     1       2.046   2.603  20.655  0.00  0.00    +0.000 A 
ATOM     10  C   UNL     1       1.692   3.864  21.129  0.00  0.00    +0.000 A 
ATOM     11  C   UNL     1       1.790   4.994  20.303  0.00  0.00    +0.000 A 
ATOM     12  C   UNL     1       1.398   6.328  20.875  0.00  0.00    +0.000 C 
ATOM     13  C   UNL     1       1.922   7.505  20.057  0.00  0.00    +0.000 C 
ATOM     14  C   UNL     1       1.552   7.322  18.575  0.00  0.00    +0.000 C 
BRANCH  14  15
ATOM     15  C   UNL     1       1.725   8.629  17.745  0.00  0.00    +0.000 C 
ATOM     16  C   UNL     1       0.490   9.534  17.833  0.00  0.00    +0.000 C 
ATOM     17  C   UNL     1       2.929   9.465  18.220  0.00  0.00    +0.000 C 
ENDBRANCH  14  15
ENDBRANCH   3   5
BRANCH   1  25
ATOM     18  C   UNL     1       6.493   3.916  14.229  0.00  0.00    +0.000 C 
ATOM     19  C   UNL     1       5.829   5.006  15.048  0.00  0.00    +0.000 C 
ATOM     20  O   UNL     1       4.916   5.693  14.590  0.00  0.00    +0.000 OA
ATOM     21  N   UNL     1       6.349   5.234  16.302  0.00  0.00    +0.000 N 
ATOM     22  C   UNL     1       7.506   4.534  16.855  0.00  0.00    +0.000 C 
ATOM     23  C   UNL     1       7.821   5.246  18.164  0.00  0.00    +0.000 C 
ATOM     24  C   UNL     1       7.265   6.655  17.941  0.00  0.00    +0.000 C 
ATOM     25  C   UNL     1       6.011   6.436  17.079  0.00  0.00    +0.000 C 
BRANCH  23  26
ATOM     26  O   UNL     1       7.221   4.589  19.271  0.00  0.00    +0.000 OA
ATOM     27  H   UNL     1       6.243   4.608  19.169  0.00  0.00    +0.000 HD
ENDBRANCH  23  26
ENDBRANCH   1  25
TORSDOF 4
ENDMDL
MODEL 5
REMARK VINA RESULT:      -6.7      5.843      8.536
REMARK  Name = 
REMARK  7 active torsions:
REMARK  status: ('A' for Active; 'I' for Inactive)
REMARK    1  A    between atoms: C_1  and  C_2
REMARK    2  A    between atoms: C_6  and  O_7
REMARK    3  A    between atoms: C_9  and  C_10
REMARK    4  A    between atoms: N_12  and  C_13
REMARK    5  A    between atoms: C_22  and  C_23
REMARK    6  A    between atoms: C_23  and  C_24
REMARK    7  A    between atoms: C_23  and  C_25
REMARK                            x       y       z     vdW  Elec       q    Type
REMARK                         _______ _______ _______ _____ _____    ______ ____
ROOT
ATOM      1  C   UNL     1       0.634  13.718  19.387  0.00  0.00    +0.000 C 
ATOM      2  O   UNL     1      -0.388  13.886  18.717  0.00  0.00    +0.000 OA
ATOM      3  N   UNL     1       0.967  12.516  19.969  0.00  0.00    +0.000 N 
ATOM      4  H   UNL     1       1.714  12.538  20.653  0.00  0.00    +0.000 HD
ENDROOT
BRANCH   3   5
ATOM      5  C   UNL     1       0.179  11.276  19.912  0.00  0.00    +0.000 C 
ATOM      6  C   UNL     1       0.990  10.064  19.462  0.00  0.00    +0.000 A 
ATOM      7  C   UNL     1       1.694  10.110  18.246  0.00  0.00    +0.000 A 
ATOM      8  C   UNL     1       2.398   8.997  17.782  0.00  0.00    +0.000 A 
ATOM      9  C   UNL     1       2.405   7.818  18.520  0.00  0.00    +0.000 A 
ATOM     10  C   UNL     1       1.736   7.763  19.740  0.00  0.00    +0.000 A 
ATOM     11  C   UNL     1       1.047   8.883  20.231  0.00  0.00    +0.000 A 
ATOM     12  C   UNL     1       0.348   8.762  21.557  0.00  0.00    +0.000 C 
ATOM     13  C   UNL     1      -0.002  10.113  22.172  0.00  0.00    +0.000 C 
ATOM     14  C   UNL     1      -0.749  10.982  21.145  0.00  0.00    +0.000 C 
BRANCH  14  15
ATOM     15  C   UNL     1      -1.452  12.211  21.791  0.00  0.00    +0.000 C 
ATOM     16  C   UNL     1      -2.715  12.621  21.024  0.00  0.00    +0.000 C 
ATOM     17  C   UNL     1      -1.881  11.937  23.246  0.00  0.00    +0.000 C 
ENDBRANCH  14  15
ENDBRANCH   3   5
BRANCH   1  25
ATOM     18  C   UNL     1       1.484  17.921  17.298  0.00  0.00    +0.000 C 
ATOM     19  C   UNL     1       1.003  16.906  18.316  0.00  0.00    +0.000 C 
ATOM     20  O   UNL     1      -0.008  17.097  18.991  0.00  0.00    +0.000 OA
ATOM     21  N   UNL     1       1.797  15.795  18.498  0.00  0.00    +0.000 N 
ATOM     22  C   UNL     1       3.068  15.570  17.815  0.00  0.00    +0.000 C 
ATOM     23  C   UNL     1       3.663  14.330  18.468  0.00  0.00    +0.000 C 
ATOM     24  C   UNL     1       3.035  14.331  19.865  0.00  0.00    +0.000 C 
ATOM     25  C   UNL     1       1.620  14.890  19.643  0.00  0.00    +0.000 C 
BRANCH  23  26
ATOM     26  O   UNL     1       3.356  13.155  17.731  0.00  0.00    +0.000 OA
ATOM     27  H   UNL     1       3.018  12.465  18.346  0.00  0.00    +0.000 HD
ENDBRANCH  23  26
ENDBRANCH   1  25
TORSDOF 4
ENDMDL
MODEL 6
REMARK VINA RESULT:      -6.6      2.672      5.855
REMARK  Name = 
REMARK  7 active torsions:
REMARK  status: ('A' for Active; 'I' for Inactive)
REMARK    1  A    between atoms: C_1  and  C_2
REMARK    2  A    between atoms: C_6  and  O_7
REMARK    3  A    between atoms: C_9  and  C_10
REMARK    4  A    between atoms: N_12  and  C_13
REMARK    5  A    between atoms: C_22  and  C_23
REMARK    6  A    between atoms: C_23  and  C_24
REMARK    7  A    between atoms: C_23  and  C_25
REMARK                            x       y       z     vdW  Elec       q    Type
REMARK                         _______ _______ _______ _____ _____    ______ ____
ROOT
ATOM      1  C   UNL     1       1.967   8.351  18.889  0.00  0.00    +0.000 C 
ATOM      2  O   UNL     1       2.131   8.447  20.108  0.00  0.00    +0.000 OA
ATOM      3  N   UNL     1       2.488   7.325  18.135  0.00  0.00    +0.000 N 
ATOM      4  H   UNL     1       2.463   7.447  17.130  0.00  0.00    +0.000 HD
ENDROOT
BRANCH   3   5
ATOM      5  C   UNL     1       3.321   6.219  18.630  0.00  0.00    +0.000 C 
ATOM      6  C   UNL     1       2.509   5.024  19.124  0.00  0.00    +0.000 A 
ATOM      7  C   UNL     1       1.521   5.212  20.106  0.00  0.00    +0.000 A 
ATOM      8  C   UNL     1       0.803   4.130  20.616  0.00  0.00    +0.000 A 
ATOM      9  C   UNL     1       1.063   2.842  20.160  0.00  0.00    +0.000 A 
ATOM     10  C   UNL     1       2.019   2.640  19.168  0.00  0.00    +0.000 A 
ATOM     11  C   UNL     1       2.729   3.723  18.627  0.00  0.00    +0.000 A 
ATOM     12  C   UNL     1       3.745   3.442  17.555  0.00  0.00    +0.000 C 
ATOM     13  C   UNL     1       4.145   4.687  16.769  0.00  0.00    +0.000 C 
ATOM     14  C   UNL     1       4.547   5.813  17.736  0.00  0.00    +0.000 C 
BRANCH  14  15
ATOM     15  C   UNL     1       5.303   6.976  17.028  0.00  0.00    +0.000 C 
ATOM     16  C   UNL     1       6.798   6.984  17.373  0.00  0.00    +0.000 C 
ATOM     17  C   UNL     1       5.197   6.889  15.493  0.00  0.00    +0.000 C 
ENDBRANCH  14  15
ENDBRANCH   3   5
BRANCH   1  25
ATOM     18  C   UNL     1       2.225  13.093  18.437  0.00  0.00    +0.000 C 
ATOM     19  C   UNL     1       2.337  11.620  18.097  0.00  0.00    +0.000 C 
ATOM     20  O   UNL     1       3.225  11.191  17.361  0.00  0.00    +0.000 OA
ATOM     21  N   UNL     1       1.349  10.799  18.594  0.00  0.00    +0.000 N 
ATOM     22  C   UNL     1       0.204  11.265  19.372  0.00  0.00    +0.000 C 
ATOM     23  C   UNL     1      -0.699  10.049  19.530  0.00  0.00    +0.000 C 
ATOM     24  C   UNL     1      -0.344   9.186  18.315  0.00  0.00    +0.000 C 
ATOM     25  C   UNL     1       1.161   9.424  18.108  0.00  0.00    +0.000 C 
BRANCH  23  26
ATOM     26  O   UNL     1      -0.463   9.382  20.762  0.00  0.00    +0.000 OA
ATOM     27  H   UNL     1       0.378   9.711  21.153  0.00  0.00    +0.000 HD
ENDBRANCH  23  26
ENDBRANCH   1  25
TORSDOF 4
ENDMDL
MODEL 7
REMARK VINA RESULT:      -6.6      2.395      5.928
REMARK  Name = 
REMARK  7 active torsions:
REMARK  status: ('A' for Active; 'I' for Inactive)
REMARK    1  A    between atoms: C_1  and  C_2
REMARK    2  A    between atoms: C_6  and  O_7
REMARK    3  A    between atoms: C_9  and  C_10
REMARK    4  A    between atoms: N_12  and  C_13
REMARK    5  A    between atoms: C_22  and  C_23
REMARK    6  A    between atoms: C_23  and  C_24
REMARK    7  A    between atoms: C_23  and  C_25
REMARK                            x       y       z     vdW  Elec       q    Type
REMARK                         _______ _______ _______ _____ _____    ______ ____
ROOT
ATOM      1  C   UNL     1       2.474   7.601  18.914  0.00  0.00    +0.000 C 
ATOM      2  O   UNL     1       2.005   7.160  17.861  0.00  0.00    +0.000 OA
ATOM      3  N   UNL     1       3.315   6.876  19.728  0.00  0.00    +0.000 N 
ATOM      4  H   UNL     1       3.481   7.253  20.653  0.00  0.00    +0.000 HD
ENDROOT
BRANCH   3   5
ATOM      5  C   UNL     1       3.763   5.494  19.504  0.00  0.00    +0.000 C 
ATOM      6  C   UNL     1       2.614   4.495  19.396  0.00  0.00    +0.000 A 
ATOM      7  C   UNL     1       1.664   4.412  20.429  0.00  0.00    +0.000 A 
ATOM      8  C   UNL     1       0.636   3.470  20.384  0.00  0.00    +0.000 A 
ATOM      9  C   UNL     1       0.542   2.590  19.310  0.00  0.00    +0.000 A 
ATOM     10  C   UNL     1       1.458   2.675  18.265  0.00  0.00    +0.000 A 
ATOM     11  C   UNL     1       2.480   3.636  18.285  0.00  0.00    +0.000 A 
ATOM     12  C   UNL     1       3.436   3.681  17.125  0.00  0.00    +0.000 C 
ATOM     13  C   UNL     1       4.223   4.987  17.049  0.00  0.00    +0.000 C 
ATOM     14  C   UNL     1       4.872   5.288  18.411  0.00  0.00    +0.000 C 
BRANCH  14  15
ATOM     15  C   UNL     1       5.972   6.387  18.325  0.00  0.00    +0.000 C 
ATOM     16  C   UNL     1       7.377   5.814  18.546  0.00  0.00    +0.000 C 
ATOM     17  C   UNL     1       5.985   7.090  16.952  0.00  0.00    +0.000 C 
ENDBRANCH  14  15
ENDBRANCH   3   5
BRANCH   1  25
ATOM     18  C   UNL     1      -0.435   9.378  22.250  0.00  0.00    +0.000 C 
ATOM     19  C   UNL     1       0.841   8.958  21.548  0.00  0.00    +0.000 C 
ATOM     20  O   UNL     1       1.825   8.566  22.174  0.00  0.00    +0.000 OA
ATOM     21  N   UNL     1       0.866   9.108  20.178  0.00  0.00    +0.000 N 
ATOM     22  C   UNL     1      -0.224   9.678  19.392  0.00  0.00    +0.000 C 
ATOM     23  C   UNL     1       0.326   9.816  17.979  0.00  0.00    +0.000 C 
ATOM     24  C   UNL     1       1.837   9.935  18.200  0.00  0.00    +0.000 C 
ATOM     25  C   UNL     1       2.117   9.028  19.409  0.00  0.00    +0.000 C 
BRANCH  23  26
ATOM     26  O   UNL     1      -0.022   8.700  17.173  0.00  0.00    +0.000 OA
ATOM     27  H   UNL     1      -0.974   8.759  16.930  0.00  0.00    +0.000 HD
ENDBRANCH  23  26
ENDBRANCH   1  25
TORSDOF 4
ENDMDL
MODEL 8
REMARK VINA RESULT:      -6.5      5.875      9.114
REMARK  Name = 
REMARK  7 active torsions:
REMARK  status: ('A' for Active; 'I' for Inactive)
REMARK    1  A    between atoms: C_1  and  C_2
REMARK    2  A    between atoms: C_6  and  O_7
REMARK    3  A    between atoms: C_9  and  C_10
REMARK    4  A    between atoms: N_12  and  C_13
REMARK    5  A    between atoms: C_22  and  C_23
REMARK    6  A    between atoms: C_23  and  C_24
REMARK    7  A    between atoms: C_23  and  C_25
REMARK                            x       y       z     vdW  Elec       q    Type
REMARK                         _______ _______ _______ _____ _____    ______ ____
ROOT
ATOM      1  C   UNL     1       0.833  13.488  19.193  0.00  0.00    +0.000 C 
ATOM      2  O   UNL     1      -0.049  13.543  18.332  0.00  0.00    +0.000 OA
ATOM      3  N   UNL     1       1.040  12.387  19.992  0.00  0.00    +0.000 N 
ATOM      4  H   UNL     1       1.651  12.517  20.789  0.00  0.00    +0.000 HD
ENDROOT
BRANCH   3   5
ATOM      5  C   UNL     1       0.259  11.141  19.974  0.00  0.00    +0.000 C 
ATOM      6  C   UNL     1       1.061   9.931  19.500  0.00  0.00    +0.000 A 
ATOM      7  C   UNL     1       1.716   9.974  18.258  0.00  0.00    +0.000 A 
ATOM      8  C   UNL     1       2.409   8.864  17.773  0.00  0.00    +0.000 A 
ATOM      9  C   UNL     1       2.453   7.690  18.518  0.00  0.00    +0.000 A 
ATOM     10  C   UNL     1       1.832   7.638  19.763  0.00  0.00    +0.000 A 
ATOM     11  C   UNL     1       1.156   8.756  20.273  0.00  0.00    +0.000 A 
ATOM     12  C   UNL     1       0.510   8.639  21.626  0.00  0.00    +0.000 C 
ATOM     13  C   UNL     1       0.174   9.992  22.247  0.00  0.00    +0.000 C 
ATOM     14  C   UNL     1      -0.618  10.848  21.244  0.00  0.00    +0.000 C 
BRANCH  14  15
ATOM     15  C   UNL     1      -1.305  12.077  21.910  0.00  0.00    +0.000 C 
ATOM     16  C   UNL     1      -2.404  12.673  21.022  0.00  0.00    +0.000 C 
ATOM     17  C   UNL     1      -1.962  11.717  23.256  0.00  0.00    +0.000 C 
ENDBRANCH  14  15
ENDBRANCH   3   5
BRANCH   1  25
ATOM     18  C   UNL     1       1.636  16.402  22.883  0.00  0.00    +0.000 C 
ATOM     19  C   UNL     1       1.845  15.296  21.868  0.00  0.00    +0.000 C 
ATOM     20  O   UNL     1       2.455  14.265  22.151  0.00  0.00    +0.000 OA
ATOM     21  N   UNL     1       1.381  15.537  20.594  0.00  0.00    +0.000 N 
ATOM     22  C   UNL     1       0.756  16.785  20.167  0.00  0.00    +0.000 C 
ATOM     23  C   UNL     1       0.588  16.658  18.658  0.00  0.00    +0.000 C 
ATOM     24  C   UNL     1       1.691  15.671  18.264  0.00  0.00    +0.000 C 
ATOM     25  C   UNL     1       1.771  14.697  19.451  0.00  0.00    +0.000 C 
BRANCH  23  26
ATOM     26  O   UNL     1      -0.710  16.194  18.317  0.00  0.00    +0.000 OA
ATOM     27  H   UNL     1      -0.716  15.912  17.374  0.00  0.00    +0.000 HD
ENDBRANCH  23  26
ENDBRANCH   1  25
TORSDOF 4
ENDMDL
MODEL 9
REMARK VINA RESULT:      -6.4      6.279      9.573
REMARK  Name = 
REMARK  7 active torsions:
REMARK  status: ('A' for Active; 'I' for Inactive)
REMARK    1  A    between atoms: C_1  and  C_2
REMARK    2  A    between atoms: C_6  and  O_7
REMARK    3  A    between atoms: C_9  and  C_10
REMARK    4  A    between atoms: N_12  and  C_13
REMARK    5  A    between atoms: C_22  and  C_23
REMARK    6  A    between atoms: C_23  and  C_24
REMARK    7  A    between atoms: C_23  and  C_25
REMARK                            x       y       z     vdW  Elec       q    Type
REMARK                         _______ _______ _______ _____ _____    ______ ____
ROOT
ATOM      1  C   UNL     1       0.154  13.412  19.227  0.00  0.00    +0.000 C 
ATOM      2  O   UNL     1      -0.277  13.367  18.072  0.00  0.00    +0.000 OA
ATOM      3  N   UNL     1      -0.186  12.497  20.196  0.00  0.00    +0.000 N 
ATOM      4  H   UNL     1       0.062  12.735  21.148  0.00  0.00    +0.000 HD
ENDROOT
BRANCH   3   5
ATOM      5  C   UNL     1      -1.107  11.362  20.034  0.00  0.00    +0.000 C 
ATOM      6  C   UNL     1      -2.514  11.779  19.615  0.00  0.00    +0.000 A 
ATOM      7  C   UNL     1      -3.219  12.719  20.386  0.00  0.00    +0.000 A 
ATOM      8  C   UNL     1      -4.528  13.078  20.060  0.00  0.00    +0.000 A 
ATOM      9  C   UNL     1      -5.157  12.498  18.963  0.00  0.00    +0.000 A 
ATOM     10  C   UNL     1      -4.465  11.585  18.172  0.00  0.00    +0.000 A 
ATOM     11  C   UNL     1      -3.139  11.236  18.474  0.00  0.00    +0.000 A 
ATOM     12  C   UNL     1      -2.443  10.248  17.579  0.00  0.00    +0.000 C 
ATOM     13  C   UNL     1      -0.926  10.258  17.744  0.00  0.00    +0.000 C 
ATOM     14  C   UNL     1      -0.559  10.127  19.233  0.00  0.00    +0.000 C 
BRANCH  14  15
ATOM     15  C   UNL     1       0.940   9.767  19.455  0.00  0.00    +0.000 C 
ATOM     16  C   UNL     1       1.124   8.731  20.570  0.00  0.00    +0.000 C 
ATOM     17  C   UNL     1       1.591   9.180  18.186  0.00  0.00    +0.000 C 
ENDBRANCH  14  15
ENDBRANCH   3   5
BRANCH   1  25
ATOM     18  C   UNL     1       1.138  17.807  17.655  0.00  0.00    +0.000 C 
ATOM     19  C   UNL     1       0.587  16.693  18.523  0.00  0.00    +0.000 C 
ATOM     20  O   UNL     1      -0.473  16.816  19.136  0.00  0.00    +0.000 OA
ATOM     21  N   UNL     1       1.371  15.568  18.647  0.00  0.00    +0.000 N 
ATOM     22  C   UNL     1       2.690  15.411  18.042  0.00  0.00    +0.000 C 
ATOM     23  C   UNL     1       3.241  14.108  18.605  0.00  0.00    +0.000 C 
ATOM     24  C   UNL     1       2.510  13.965  19.943  0.00  0.00    +0.000 C 
ATOM     25  C   UNL     1       1.112  14.548  19.676  0.00  0.00    +0.000 C 
BRANCH  23  26
ATOM     26  O   UNL     1       2.995  13.017  17.729  0.00  0.00    +0.000 OA
ATOM     27  H   UNL     1       3.585  13.091  16.945  0.00  0.00    +0.000 HD
ENDBRANCH  23  26
ENDBRANCH   1  25
TORSDOF 4
ENDMDL
