MODEL 1
REMARK VINA RESULT:      -6.8      0.000      0.000
REMARK  Name = 
REMARK  7 active torsions:
REMARK  status: ('A' for Active; 'I' for Inactive)
REMARK    1  A    between atoms: C_1  and  C_2
REMARK    2  A    between atoms: C_4  and  C_5
REMARK    3  A    between atoms: C_6  and  C_7
REMARK    4  A    between atoms: C_7  and  N_8
REMARK    5  A    between atoms: N_8  and  C_9
REMARK    6  A    between atoms: C_16  and  N_17
REMARK    7  A    between atoms: C_27  and  C_28
REMARK                            x       y       z     vdW  Elec       q    Type
REMARK                         _______ _______ _______ _____ _____    ______ ____
ROOT
ATOM      1  C   UNL     1      -6.844  13.573  16.675  0.00  0.00    +0.000 C 
ATOM      2  C   UNL     1      -6.884  15.117  16.532  0.00  0.00    +0.000 C 
ATOM      3  C   UNL     1      -6.797  15.873  17.861  0.00  0.00    +0.000 C 
ATOM      4  C   UNL     1      -7.848  15.352  18.831  0.00  0.00    +0.000 C 
ATOM      5  N   UNL     1      -7.611  13.933  19.032  0.00  0.00    +0.000 N 
ATOM      6  C   UNL     1      -7.293  13.376  20.253  0.00  0.00    +0.000 A 
ATOM      7  C   UNL     1      -6.741  14.138  21.272  0.00  0.00    +0.000 A 
ATOM      8  C   UNL     1      -6.441  13.560  22.492  0.00  0.00    +0.000 A 
ATOM      9  N   UNL     1      -6.652  12.253  22.684  0.00  0.00    +0.000 NA
ATOM     10  C   UNL     1      -7.197  11.579  21.660  0.00  0.00    +0.000 A 
ATOM     11  N   UNL     1      -7.521  12.070  20.457  0.00  0.00    +0.000 NA
ATOM     12  C   UNL     1      -7.778  13.097  17.844  0.00  0.00    +0.000 C 
ENDROOT
BRANCH   8  13
ATOM     13  N   UNL     1      -5.881  14.302  23.503  0.00  0.00    +0.000 N 
ATOM     14  C   UNL     1      -6.474  15.517  24.066  0.00  0.00    +0.000 C 
ATOM     15  C   UNL     1      -5.409  16.623  24.075  0.00  0.00    +0.000 C 
ATOM     16  O   UNL     1      -4.236  16.209  24.800  0.00  0.00    +0.000 OA
ATOM     17  C   UNL     1      -3.669  15.019  24.215  0.00  0.00    +0.000 C 
ATOM     18  C   UNL     1      -4.673  13.848  24.193  0.00  0.00    +0.000 C 
ENDBRANCH   8  13
BRANCH   1  19
ATOM     19  N   UNL     1      -5.434  13.100  16.746  0.00  0.00    +0.000 NA
ATOM     20  H   UNL     1      -5.034  13.088  15.808  0.00  0.00    +0.000 HD
BRANCH  19  21
ATOM     21  C   UNL     1      -5.370  11.735  17.293  0.00  0.00    +0.000 C 
BRANCH  21  27
ATOM     22  C   UNL     1       0.170  10.103  18.268  0.00  0.00    +0.000 C 
ATOM     23  C   UNL     1      -1.261  10.488  18.034  0.00  0.00    +0.000 A 
ATOM     24  C   UNL     1      -1.930  10.093  16.878  0.00  0.00    +0.000 A 
ATOM     25  C   UNL     1      -3.266  10.464  16.644  0.00  0.00    +0.000 A 
ATOM     26  C   UNL     1      -3.908  10.007  15.357  0.00  0.00    +0.000 C 
ATOM     27  C   UNL     1      -3.961  11.253  17.598  0.00  0.00    +0.000 A 
ATOM     28  C   UNL     1      -3.292  11.629  18.791  0.00  0.00    +0.000 A 
ATOM     29  C   UNL     1      -3.906  12.470  19.879  0.00  0.00    +0.000 C 
ATOM     30  C   UNL     1      -1.949  11.245  18.984  0.00  0.00    +0.000 A 
ENDBRANCH  21  27
ENDBRANCH  19  21
ENDBRANCH   1  19
TORSDOF 4
ENDMDL
MODEL 2
REMARK VINA RESULT:      -6.8      7.168     10.588
REMARK  Name = 
REMARK  7 active torsions:
REMARK  status: ('A' for Active; 'I' for Inactive)
REMARK    1  A    between atoms: C_1  and  C_2
REMARK    2  A    between atoms: C_4  and  C_5
REMARK    3  A    between atoms: C_6  and  C_7
REMARK    4  A    between atoms: C_7  and  N_8
REMARK    5  A    between atoms: N_8  and  C_9
REMARK    6  A    between atoms: C_16  and  N_17
REMARK    7  A    between atoms: C_27  and  C_28
REMARK                            x       y       z     vdW  Elec       q    Type
REMARK                         _______ _______ _______ _____ _____    ______ ____
ROOT
ATOM      1  C   UNL     1       0.305  12.023  20.982  0.00  0.00    +0.000 C 
ATOM      2  C   UNL     1      -0.339  11.450  22.272  0.00  0.00    +0.000 C 
ATOM      3  C   UNL     1      -0.091   9.955  22.486  0.00  0.00    +0.000 C 
ATOM      4  C   UNL     1      -0.489   9.173  21.242  0.00  0.00    +0.000 C 
ATOM      5  N   UNL     1       0.300   9.669  20.128  0.00  0.00    +0.000 N 
ATOM      6  C   UNL     1       1.189   8.892  19.414  0.00  0.00    +0.000 A 
ATOM      7  C   UNL     1       1.734   7.738  19.956  0.00  0.00    +0.000 A 
ATOM      8  C   UNL     1       2.615   6.968  19.216  0.00  0.00    +0.000 A 
ATOM      9  N   UNL     1       2.970   7.353  17.986  0.00  0.00    +0.000 NA
ATOM     10  C   UNL     1       2.397   8.474  17.521  0.00  0.00    +0.000 A 
ATOM     11  N   UNL     1       1.533   9.263  18.172  0.00  0.00    +0.000 NA
ATOM     12  C   UNL     1       0.059  11.064  19.763  0.00  0.00    +0.000 C 
ENDROOT
BRANCH   8  13
ATOM     13  N   UNL     1       3.172   5.831  19.749  0.00  0.00    +0.000 N 
ATOM     14  C   UNL     1       4.536   5.371  19.479  0.00  0.00    +0.000 C 
ATOM     15  C   UNL     1       4.482   3.895  19.063  0.00  0.00    +0.000 C 
ATOM     16  O   UNL     1       3.832   3.095  20.068  0.00  0.00    +0.000 OA
ATOM     17  C   UNL     1       2.488   3.564  20.302  0.00  0.00    +0.000 C 
ATOM     18  C   UNL     1       2.458   5.039  20.751  0.00  0.00    +0.000 C 
ENDBRANCH   8  13
BRANCH   1  19
ATOM     19  N   UNL     1       1.725  12.389  21.235  0.00  0.00    +0.000 NA
ATOM     20  H   UNL     1       1.969  12.151  22.196  0.00  0.00    +0.000 HD
BRANCH  19  21
ATOM     21  C   UNL     1       1.930  13.834  21.051  0.00  0.00    +0.000 C 
BRANCH  21  27
ATOM     22  C   UNL     1       6.792  15.498  18.238  0.00  0.00    +0.000 C 
ATOM     23  C   UNL     1       5.560  15.035  18.959  0.00  0.00    +0.000 A 
ATOM     24  C   UNL     1       4.450  14.572  18.255  0.00  0.00    +0.000 A 
ATOM     25  C   UNL     1       3.286  14.153  18.923  0.00  0.00    +0.000 A 
ATOM     26  C   UNL     1       2.124  13.682  18.082  0.00  0.00    +0.000 C 
ATOM     27  C   UNL     1       3.226  14.192  20.341  0.00  0.00    +0.000 A 
ATOM     28  C   UNL     1       4.367  14.633  21.059  0.00  0.00    +0.000 A 
ATOM     29  C   UNL     1       4.437  14.734  22.561  0.00  0.00    +0.000 C 
ATOM     30  C   UNL     1       5.512  15.054  20.353  0.00  0.00    +0.000 A 
ENDBRANCH  21  27
ENDBRANCH  19  21
ENDBRANCH   1  19
TORSDOF 4
ENDMDL
MODEL 3
REMARK VINA RESULT:      -6.7      7.185     10.683
REMARK  Name = 
REMARK  7 active torsions:
REMARK  status: ('A' for Active; 'I' for Inactive)
REMARK    1  A    between atoms: C_1  and  C_2
REMARK    2  A    between atoms: C_4  and  C_5
REMARK    3  A    between atoms: C_6  and  C_7
REMARK    4  A    between atoms: C_7  and  N_8
REMARK    5  A    between atoms: N_8  and  C_9
REMARK    6  A    between atoms: C_16  and  N_17
REMARK    7  A    between atoms: C_27  and  C_28
REMARK                            x       y       z     vdW  Elec       q    Type
REMARK                         _______ _______ _______ _____ _____    ______ ____
ROOT
ATOM      1  C   UNL     1       0.269  11.970  21.051  0.00  0.00    +0.000 C 
ATOM      2  C   UNL     1      -0.336  11.372  22.349  0.00  0.00    +0.000 C 
ATOM      3  C   UNL     1      -0.051   9.880  22.544  0.00  0.00    +0.000 C 
ATOM      4  C   UNL     1      -0.458   9.102  21.300  0.00  0.00    +0.000 C 
ATOM      5  N   UNL     1       0.298   9.625  20.175  0.00  0.00    +0.000 N 
ATOM      6  C   UNL     1       1.189   8.874  19.436  0.00  0.00    +0.000 A 
ATOM      7  C   UNL     1       1.770   7.727  19.956  0.00  0.00    +0.000 A 
ATOM      8  C   UNL     1       2.652   6.984  19.191  0.00  0.00    +0.000 A 
ATOM      9  N   UNL     1       2.974   7.388  17.958  0.00  0.00    +0.000 NA
ATOM     10  C   UNL     1       2.368   8.500  17.516  0.00  0.00    +0.000 A 
ATOM     11  N   UNL     1       1.499   9.264  18.191  0.00  0.00    +0.000 NA
ATOM     12  C   UNL     1       0.019  11.018  19.829  0.00  0.00    +0.000 C 
ENDROOT
BRANCH   8  13
ATOM     13  N   UNL     1       3.244   5.855  19.702  0.00  0.00    +0.000 N 
ATOM     14  C   UNL     1       4.628   5.454  19.440  0.00  0.00    +0.000 C 
ATOM     15  C   UNL     1       4.637   3.988  18.984  0.00  0.00    +0.000 C 
ATOM     16  O   UNL     1       4.003   3.138  19.958  0.00  0.00    +0.000 OA
ATOM     17  C   UNL     1       2.639   3.549  20.183  0.00  0.00    +0.000 C 
ATOM     18  C   UNL     1       2.547   5.009  20.671  0.00  0.00    +0.000 C 
ENDBRANCH   8  13
BRANCH   1  19
ATOM     19  N   UNL     1       1.686  12.365  21.279  0.00  0.00    +0.000 NA
ATOM     20  H   UNL     1       1.969  12.083  22.218  0.00  0.00    +0.000 HD
BRANCH  19  21
ATOM     21  C   UNL     1       1.844  13.824  21.169  0.00  0.00    +0.000 C 
BRANCH  21  27
ATOM     22  C   UNL     1       6.653  15.223  18.131  0.00  0.00    +0.000 C 
ATOM     23  C   UNL     1       5.409  14.902  18.907  0.00  0.00    +0.000 A 
ATOM     24  C   UNL     1       5.372  15.046  20.292  0.00  0.00    +0.000 A 
ATOM     25  C   UNL     1       4.215  14.731  21.027  0.00  0.00    +0.000 A 
ATOM     26  C   UNL     1       4.267  14.900  22.526  0.00  0.00    +0.000 C 
ATOM     27  C   UNL     1       3.055  14.259  20.359  0.00  0.00    +0.000 A 
ATOM     28  C   UNL     1       3.081  14.142  18.946  0.00  0.00    +0.000 A 
ATOM     29  C   UNL     1       1.927  13.647  18.114  0.00  0.00    +0.000 C 
ATOM     30  C   UNL     1       4.263  14.459  18.245  0.00  0.00    +0.000 A 
ENDBRANCH  21  27
ENDBRANCH  19  21
ENDBRANCH   1  19
TORSDOF 4
ENDMDL
MODEL 4
REMARK VINA RESULT:      -6.6      6.944     10.546
REMARK  Name = 
REMARK  7 active torsions:
REMARK  status: ('A' for Active; 'I' for Inactive)
REMARK    1  A    between atoms: C_1  and  C_2
REMARK    2  A    between atoms: C_4  and  C_5
REMARK    3  A    between atoms: C_6  and  C_7
REMARK    4  A    between atoms: C_7  and  N_8
REMARK    5  A    between atoms: N_8  and  C_9
REMARK    6  A    between atoms: C_16  and  N_17
REMARK    7  A    between atoms: C_27  and  C_28
REMARK                            x       y       z     vdW  Elec       q    Type
REMARK                         _______ _______ _______ _____ _____    ______ ____
ROOT
ATOM      1  C   UNL     1      -0.003  11.499  21.290  0.00  0.00    +0.000 C 
ATOM      2  C   UNL     1      -0.423  10.802  22.611  0.00  0.00    +0.000 C 
ATOM      3  C   UNL     1       0.063   9.356  22.739  0.00  0.00    +0.000 C 
ATOM      4  C   UNL     1      -0.339   8.557  21.507  0.00  0.00    +0.000 C 
ATOM      5  N   UNL     1       0.253   9.195  20.345  0.00  0.00    +0.000 N 
ATOM      6  C   UNL     1       1.171   8.580  19.518  0.00  0.00    +0.000 A 
ATOM      7  C   UNL     1       1.932   7.507  19.958  0.00  0.00    +0.000 A 
ATOM      8  C   UNL     1       2.838   6.899  19.108  0.00  0.00    +0.000 A 
ATOM      9  N   UNL     1       3.008   7.365  17.866  0.00  0.00    +0.000 NA
ATOM     10  C   UNL     1       2.233   8.399  17.504  0.00  0.00    +0.000 A 
ATOM     11  N   UNL     1       1.331   9.032  18.266  0.00  0.00    +0.000 NA
ATOM     12  C   UNL     1      -0.226  10.547  20.062  0.00  0.00    +0.000 C 
ENDROOT
BRANCH   8  13
ATOM     13  N   UNL     1       3.607   5.845  19.538  0.00  0.00    +0.000 N 
ATOM     14  C   UNL     1       5.050   5.727  19.317  0.00  0.00    +0.000 C 
ATOM     15  C   UNL     1       5.343   4.343  18.721  0.00  0.00    +0.000 C 
ATOM     16  O   UNL     1       4.839   3.295  19.569  0.00  0.00    +0.000 OA
ATOM     17  C   UNL     1       3.415   3.430  19.756  0.00  0.00    +0.000 C 
ATOM     18  C   UNL     1       3.040   4.790  20.379  0.00  0.00    +0.000 C 
ENDBRANCH   8  13
BRANCH   1  19
ATOM     19  N   UNL     1       1.366  12.068  21.423  0.00  0.00    +0.000 NA
ATOM     20  H   UNL     1       1.349  12.841  22.088  0.00  0.00    +0.000 HD
BRANCH  19  21
ATOM     21  C   UNL     1       1.842  12.585  20.129  0.00  0.00    +0.000 C 
BRANCH  21  27
ATOM     22  C   UNL     1       1.115  18.310  19.127  0.00  0.00    +0.000 C 
ATOM     23  C   UNL     1       1.278  16.847  19.415  0.00  0.00    +0.000 A 
ATOM     24  C   UNL     1       2.274  16.393  20.277  0.00  0.00    +0.000 A 
ATOM     25  C   UNL     1       2.444  15.022  20.538  0.00  0.00    +0.000 A 
ATOM     26  C   UNL     1       3.558  14.616  21.471  0.00  0.00    +0.000 C 
ATOM     27  C   UNL     1       1.589  14.070  19.922  0.00  0.00    +0.000 A 
ATOM     28  C   UNL     1       0.554  14.533  19.070  0.00  0.00    +0.000 A 
ATOM     29  C   UNL     1      -0.415  13.634  18.347  0.00  0.00    +0.000 C 
ATOM     30  C   UNL     1       0.422  15.915  18.825  0.00  0.00    +0.000 A 
ENDBRANCH  21  27
ENDBRANCH  19  21
ENDBRANCH   1  19
TORSDOF 4
ENDMDL
MODEL 5
REMARK VINA RESULT:      -6.6      6.926     10.460
REMARK  Name = 
REMARK  7 active torsions:
REMARK  status: ('A' for Active; 'I' for Inactive)
REMARK    1  A    between atoms: C_1  and  C_2
REMARK    2  A    between atoms: C_4  and  C_5
REMARK    3  A    between atoms: C_6  and  C_7
REMARK    4  A    between atoms: C_7  and  N_8
REMARK    5  A    between atoms: N_8  and  C_9
REMARK    6  A    between atoms: C_16  and  N_17
REMARK    7  A    between atoms: C_27  and  C_28
REMARK                            x       y       z     vdW  Elec       q    Type
REMARK                         _______ _______ _______ _____ _____    ______ ____
ROOT
ATOM      1  C   UNL     1      -0.032  11.574  21.293  0.00  0.00    +0.000 C 
ATOM      2  C   UNL     1      -0.460  10.893  22.619  0.00  0.00    +0.000 C 
ATOM      3  C   UNL     1       0.002   9.440  22.757  0.00  0.00    +0.000 C 
ATOM      4  C   UNL     1      -0.415   8.639  21.532  0.00  0.00    +0.000 C 
ATOM      5  N   UNL     1       0.185   9.259  20.363  0.00  0.00    +0.000 N 
ATOM      6  C   UNL     1       1.091   8.623  19.540  0.00  0.00    +0.000 A 
ATOM      7  C   UNL     1       1.835   7.541  19.986  0.00  0.00    +0.000 A 
ATOM      8  C   UNL     1       2.730   6.912  19.138  0.00  0.00    +0.000 A 
ATOM      9  N   UNL     1       2.905   7.367  17.893  0.00  0.00    +0.000 NA
ATOM     10  C   UNL     1       2.146   8.410  17.525  0.00  0.00    +0.000 A 
ATOM     11  N   UNL     1       1.256   9.063  18.283  0.00  0.00    +0.000 NA
ATOM     12  C   UNL     1      -0.272  10.617  20.072  0.00  0.00    +0.000 C 
ENDROOT
BRANCH   8  13
ATOM     13  N   UNL     1       3.482   5.849  19.574  0.00  0.00    +0.000 N 
ATOM     14  C   UNL     1       4.915   5.688  19.320  0.00  0.00    +0.000 C 
ATOM     15  C   UNL     1       5.158   4.283  18.751  0.00  0.00    +0.000 C 
ATOM     16  O   UNL     1       4.649   3.269  19.637  0.00  0.00    +0.000 OA
ATOM     17  C   UNL     1       3.235   3.446  19.856  0.00  0.00    +0.000 C 
ATOM     18  C   UNL     1       2.910   4.830  20.455  0.00  0.00    +0.000 C 
ENDBRANCH   8  13
BRANCH   1  19
ATOM     19  N   UNL     1       1.347  12.121  21.418  0.00  0.00    +0.000 NA
ATOM     20  H   UNL     1       1.340  12.909  22.066  0.00  0.00    +0.000 HD
BRANCH  19  21
ATOM     21  C   UNL     1       1.836  12.600  20.115  0.00  0.00    +0.000 C 
BRANCH  21  27
ATOM     22  C   UNL     1       1.450  18.431  19.718  0.00  0.00    +0.000 C 
ATOM     23  C   UNL     1       1.568  16.937  19.786  0.00  0.00    +0.000 A 
ATOM     24  C   UNL     1       0.626  16.115  19.173  0.00  0.00    +0.000 A 
ATOM     25  C   UNL     1       0.721  14.714  19.248  0.00  0.00    +0.000 A 
ATOM     26  C   UNL     1      -0.353  13.899  18.569  0.00  0.00    +0.000 C 
ATOM     27  C   UNL     1       1.795  14.111  19.953  0.00  0.00    +0.000 A 
ATOM     28  C   UNL     1       2.774  14.947  20.550  0.00  0.00    +0.000 A 
ATOM     29  C   UNL     1       3.957  14.442  21.334  0.00  0.00    +0.000 C 
ATOM     30  C   UNL     1       2.638  16.347  20.462  0.00  0.00    +0.000 A 
ENDBRANCH  21  27
ENDBRANCH  19  21
ENDBRANCH   1  19
TORSDOF 4
ENDMDL
MODEL 6
REMARK VINA RESULT:      -6.5      4.029      7.336
REMARK  Name = 
REMARK  7 active torsions:
REMARK  status: ('A' for Active; 'I' for Inactive)
REMARK    1  A    between atoms: C_1  and  C_2
REMARK    2  A    between atoms: C_4  and  C_5
REMARK    3  A    between atoms: C_6  and  C_7
REMARK    4  A    between atoms: C_7  and  N_8
REMARK    5  A    between atoms: N_8  and  C_9
REMARK    6  A    between atoms: C_16  and  N_17
REMARK    7  A    between atoms: C_27  and  C_28
REMARK                            x       y       z     vdW  Elec       q    Type
REMARK                         _______ _______ _______ _____ _____    ______ ____
ROOT
ATOM      1  C   UNL     1       0.989  10.367  19.622  0.00  0.00    +0.000 C 
ATOM      2  C   UNL     1       0.881  10.892  21.078  0.00  0.00    +0.000 C 
ATOM      3  C   UNL     1      -0.517  11.381  21.466  0.00  0.00    +0.000 C 
ATOM      4  C   UNL     1      -1.021  12.391  20.445  0.00  0.00    +0.000 C 
ATOM      5  N   UNL     1      -1.047  11.743  19.145  0.00  0.00    +0.000 N 
ATOM      6  C   UNL     1      -2.198  11.554  18.408  0.00  0.00    +0.000 A 
ATOM      7  C   UNL     1      -3.447  11.549  19.009  0.00  0.00    +0.000 A 
ATOM      8  C   UNL     1      -4.588  11.368  18.247  0.00  0.00    +0.000 A 
ATOM      9  N   UNL     1      -4.488  11.164  16.929  0.00  0.00    +0.000 NA
ATOM     10  C   UNL     1      -3.250  11.191  16.412  0.00  0.00    +0.000 A 
ATOM     11  N   UNL     1      -2.104  11.369  17.082  0.00  0.00    +0.000 NA
ATOM     12  C   UNL     1       0.256  11.333  18.625  0.00  0.00    +0.000 C 
ENDROOT
BRANCH   8  13
ATOM     13  N   UNL     1      -5.829  11.347  18.835  0.00  0.00    +0.000 N 
ATOM     14  C   UNL     1      -6.436  12.482  19.534  0.00  0.00    +0.000 C 
ATOM     15  C   UNL     1      -6.927  12.006  20.908  0.00  0.00    +0.000 C 
ATOM     16  O   UNL     1      -7.840  10.901  20.779  0.00  0.00    +0.000 OA
ATOM     17  C   UNL     1      -7.210   9.796  20.100  0.00  0.00    +0.000 C 
ATOM     18  C   UNL     1      -6.711  10.188  18.694  0.00  0.00    +0.000 C 
ENDBRANCH   8  13
BRANCH   1  19
ATOM     19  N   UNL     1       0.573   8.939  19.557  0.00  0.00    +0.000 NA
ATOM     20  H   UNL     1      -0.347   8.836  19.985  0.00  0.00    +0.000 HD
BRANCH  19  21
ATOM     21  C   UNL     1       1.521   8.087  20.291  0.00  0.00    +0.000 C 
BRANCH  21  27
ATOM     22  C   UNL     1       4.102   4.146  16.810  0.00  0.00    +0.000 C 
ATOM     23  C   UNL     1       3.474   5.159  17.721  0.00  0.00    +0.000 A 
ATOM     24  C   UNL     1       2.872   4.772  18.916  0.00  0.00    +0.000 A 
ATOM     25  C   UNL     1       2.266   5.713  19.767  0.00  0.00    +0.000 A 
ATOM     26  C   UNL     1       1.622   5.204  21.034  0.00  0.00    +0.000 C 
ATOM     27  C   UNL     1       2.265   7.089  19.418  0.00  0.00    +0.000 A 
ATOM     28  C   UNL     1       2.906   7.489  18.218  0.00  0.00    +0.000 A 
ATOM     29  C   UNL     1       2.971   8.911  17.723  0.00  0.00    +0.000 C 
ATOM     30  C   UNL     1       3.493   6.514  17.387  0.00  0.00    +0.000 A 
ENDBRANCH  21  27
ENDBRANCH  19  21
ENDBRANCH   1  19
TORSDOF 4
ENDMDL
MODEL 7
REMARK VINA RESULT:      -6.4      7.106      9.895
REMARK  Name = 
REMARK  7 active torsions:
REMARK  status: ('A' for Active; 'I' for Inactive)
REMARK    1  A    between atoms: C_1  and  C_2
REMARK    2  A    between atoms: C_4  and  C_5
REMARK    3  A    between atoms: C_6  and  C_7
REMARK    4  A    between atoms: C_7  and  N_8
REMARK    5  A    between atoms: N_8  and  C_9
REMARK    6  A    between atoms: C_16  and  N_17
REMARK    7  A    between atoms: C_27  and  C_28
REMARK                            x       y       z     vdW  Elec       q    Type
REMARK                         _______ _______ _______ _____ _____    ______ ____
ROOT
ATOM      1  C   UNL     1       0.110  13.136  21.114  0.00  0.00    +0.000 C 
ATOM      2  C   UNL     1      -0.236  13.509  19.648  0.00  0.00    +0.000 C 
ATOM      3  C   UNL     1       0.933  14.108  18.860  0.00  0.00    +0.000 C 
ATOM      4  C   UNL     1       1.541  15.273  19.629  0.00  0.00    +0.000 C 
ATOM      5  N   UNL     1       1.992  14.776  20.917  0.00  0.00    +0.000 N 
ATOM      6  C   UNL     1       3.310  14.797  21.327  0.00  0.00    +0.000 A 
ATOM      7  C   UNL     1       4.349  14.867  20.411  0.00  0.00    +0.000 A 
ATOM      8  C   UNL     1       5.662  14.900  20.846  0.00  0.00    +0.000 A 
ATOM      9  N   UNL     1       5.936  14.829  22.153  0.00  0.00    +0.000 NA
ATOM     10  C   UNL     1       4.883  14.773  22.983  0.00  0.00    +0.000 A 
ATOM     11  N   UNL     1       3.589  14.747  22.638  0.00  0.00    +0.000 NA
ATOM     12  C   UNL     1       0.938  14.280  21.800  0.00  0.00    +0.000 C 
ENDROOT
BRANCH   8  13
ATOM     13  N   UNL     1       6.699  14.954  19.947  0.00  0.00    +0.000 N 
ATOM     14  C   UNL     1       6.549  15.284  18.528  0.00  0.00    +0.000 C 
ATOM     15  C   UNL     1       7.263  14.208  17.698  0.00  0.00    +0.000 C 
ATOM     16  O   UNL     1       8.645  14.087  18.081  0.00  0.00    +0.000 OA
ATOM     17  C   UNL     1       8.758  13.749  19.479  0.00  0.00    +0.000 C 
ATOM     18  C   UNL     1       8.086  14.800  20.385  0.00  0.00    +0.000 C 
ENDBRANCH   8  13
BRANCH   1  19
ATOM     19  N   UNL     1       0.721  11.780  21.168  0.00  0.00    +0.000 NA
ATOM     20  H   UNL     1       1.702  11.840  20.895  0.00  0.00    +0.000 HD
BRANCH  19  21
ATOM     21  C   UNL     1       0.039  10.865  20.239  0.00  0.00    +0.000 C 
BRANCH  21  27
ATOM     22  C   UNL     1       2.849   5.740  19.858  0.00  0.00    +0.000 C 
ATOM     23  C   UNL     1       2.100   7.037  19.936  0.00  0.00    +0.000 A 
ATOM     24  C   UNL     1       2.210   7.989  18.925  0.00  0.00    +0.000 A 
ATOM     25  C   UNL     1       1.524   9.215  18.999  0.00  0.00    +0.000 A 
ATOM     26  C   UNL     1       1.714  10.196  17.869  0.00  0.00    +0.000 C 
ATOM     27  C   UNL     1       0.696   9.499  20.117  0.00  0.00    +0.000 A 
ATOM     28  C   UNL     1       0.557   8.517  21.131  0.00  0.00    +0.000 A 
ATOM     29  C   UNL     1      -0.279   8.691  22.372  0.00  0.00    +0.000 C 
ATOM     30  C   UNL     1       1.269   7.305  21.025  0.00  0.00    +0.000 A 
ENDBRANCH  21  27
ENDBRANCH  19  21
ENDBRANCH   1  19
TORSDOF 4
ENDMDL
MODEL 8
REMARK VINA RESULT:      -6.4      5.639      8.245
REMARK  Name = 
REMARK  7 active torsions:
REMARK  status: ('A' for Active; 'I' for Inactive)
REMARK    1  A    between atoms: C_1  and  C_2
REMARK    2  A    between atoms: C_4  and  C_5
REMARK    3  A    between atoms: C_6  and  C_7
REMARK    4  A    between atoms: C_7  and  N_8
REMARK    5  A    between atoms: N_8  and  C_9
REMARK    6  A    between atoms: C_16  and  N_17
REMARK    7  A    between atoms: C_27  and  C_28
REMARK                            x       y       z     vdW  Elec       q    Type
REMARK                         _______ _______ _______ _____ _____    ______ ____
ROOT
ATOM      1  C   UNL     1      -0.499   9.936  18.878  0.00  0.00    +0.000 C 
ATOM      2  C   UNL     1      -1.654  10.403  17.953  0.00  0.00    +0.000 C 
ATOM      3  C   UNL     1      -1.664  11.909  17.674  0.00  0.00    +0.000 C 
ATOM      4  C   UNL     1      -1.616  12.685  18.983  0.00  0.00    +0.000 C 
ATOM      5  N   UNL     1      -0.405  12.302  19.689  0.00  0.00    +0.000 N 
ATOM      6  C   UNL     1       0.609  13.184  20.002  0.00  0.00    +0.000 A 
ATOM      7  C   UNL     1       0.776  14.368  19.301  0.00  0.00    +0.000 A 
ATOM      8  C   UNL     1       1.794  15.242  19.640  0.00  0.00    +0.000 A 
ATOM      9  N   UNL     1       2.643  14.931  20.625  0.00  0.00    +0.000 NA
ATOM     10  C   UNL     1       2.417  13.775  21.267  0.00  0.00    +0.000 A 
ATOM     11  N   UNL     1       1.451  12.885  21.003  0.00  0.00    +0.000 NA
ATOM     12  C   UNL     1      -0.340  10.902  20.105  0.00  0.00    +0.000 C 
ENDROOT
BRANCH   8  13
ATOM     13  N   UNL     1       1.978  16.412  18.943  0.00  0.00    +0.000 N 
ATOM     14  C   UNL     1       1.107  17.584  19.047  0.00  0.00    +0.000 C 
ATOM     15  C   UNL     1       0.706  18.024  17.631  0.00  0.00    +0.000 C 
ATOM     16  O   UNL     1       1.867  18.284  16.821  0.00  0.00    +0.000 OA
ATOM     17  C   UNL     1       2.697  17.108  16.726  0.00  0.00    +0.000 C 
ATOM     18  C   UNL     1       3.164  16.616  18.112  0.00  0.00    +0.000 C 
ENDBRANCH   8  13
BRANCH   1  19
ATOM     19  N   UNL     1       0.736   9.702  18.080  0.00  0.00    +0.000 NA
ATOM     20  H   UNL     1       0.599   8.894  17.473  0.00  0.00    +0.000 HD
BRANCH  19  21
ATOM     21  C   UNL     1       1.881   9.427  18.962  0.00  0.00    +0.000 C 
BRANCH  21  27
ATOM     22  C   UNL     1       2.403   3.693  20.034  0.00  0.00    +0.000 C 
ATOM     23  C   UNL     1       2.303   5.167  19.778  0.00  0.00    +0.000 A 
ATOM     24  C   UNL     1       1.717   6.019  20.712  0.00  0.00    +0.000 A 
ATOM     25  C   UNL     1       1.605   7.400  20.471  0.00  0.00    +0.000 A 
ATOM     26  C   UNL     1       0.941   8.246  21.530  0.00  0.00    +0.000 C 
ATOM     27  C   UNL     1       2.097   7.952  19.260  0.00  0.00    +0.000 A 
ATOM     28  C   UNL     1       2.723   7.092  18.322  0.00  0.00    +0.000 A 
ATOM     29  C   UNL     1       3.279   7.542  16.996  0.00  0.00    +0.000 C 
ATOM     30  C   UNL     1       2.808   5.711  18.596  0.00  0.00    +0.000 A 
ENDBRANCH  21  27
ENDBRANCH  19  21
ENDBRANCH   1  19
TORSDOF 4
ENDMDL
MODEL 9
REMARK VINA RESULT:      -6.4      1.421      2.566
REMARK  Name = 
REMARK  7 active torsions:
REMARK  status: ('A' for Active; 'I' for Inactive)
REMARK    1  A    between atoms: C_1  and  C_2
REMARK    2  A    between atoms: C_4  and  C_5
REMARK    3  A    between atoms: C_6  and  C_7
REMARK    4  A    between atoms: C_7  and  N_8
REMARK    5  A    between atoms: N_8  and  C_9
REMARK    6  A    between atoms: C_16  and  N_17
REMARK    7  A    between atoms: C_27  and  C_28
REMARK                            x       y       z     vdW  Elec       q    Type
REMARK                         _______ _______ _______ _____ _____    ______ ____
ROOT
ATOM      1  C   UNL     1      -6.863  11.226  18.466  0.00  0.00    +0.000 C 
ATOM      2  C   UNL     1      -6.903  12.401  17.454  0.00  0.00    +0.000 C 
ATOM      3  C   UNL     1      -6.526  13.758  18.053  0.00  0.00    +0.000 C 
ATOM      4  C   UNL     1      -7.362  14.033  19.296  0.00  0.00    +0.000 C 
ATOM      5  N   UNL     1      -7.115  12.965  20.249  0.00  0.00    +0.000 N 
ATOM      6  C   UNL     1      -6.560  13.167  21.496  0.00  0.00    +0.000 A 
ATOM      7  C   UNL     1      -5.793  14.289  21.772  0.00  0.00    +0.000 A 
ATOM      8  C   UNL     1      -5.257  14.474  23.034  0.00  0.00    +0.000 A 
ATOM      9  N   UNL     1      -5.448  13.554  23.985  0.00  0.00    +0.000 NA
ATOM     10  C   UNL     1      -6.207  12.499  23.652  0.00  0.00    +0.000 A 
ATOM     11  N   UNL     1      -6.766  12.256  22.459  0.00  0.00    +0.000 NA
ATOM     12  C   UNL     1      -7.542  11.634  19.821  0.00  0.00    +0.000 C 
ENDROOT
BRANCH   8  13
ATOM     13  N   UNL     1      -4.484  15.575  23.314  0.00  0.00    +0.000 N 
ATOM     14  C   UNL     1      -3.401  16.066  22.459  0.00  0.00    +0.000 C 
ATOM     15  C   UNL     1      -2.147  16.263  23.321  0.00  0.00    +0.000 C 
ATOM     16  O   UNL     1      -2.408  17.150  24.424  0.00  0.00    +0.000 OA
ATOM     17  C   UNL     1      -3.469  16.632  25.254  0.00  0.00    +0.000 C 
ATOM     18  C   UNL     1      -4.777  16.431  24.463  0.00  0.00    +0.000 C 
ENDBRANCH   8  13
BRANCH   1  19
ATOM     19  N   UNL     1      -5.479  10.689  18.576  0.00  0.00    +0.000 NA
ATOM     20  H   UNL     1      -5.186  10.710  19.553  0.00  0.00    +0.000 HD
BRANCH  19  21
ATOM     21  C   UNL     1      -4.540  11.509  17.795  0.00  0.00    +0.000 C 
BRANCH  21  27
ATOM     22  C   UNL     1       1.003   9.946  18.865  0.00  0.00    +0.000 C 
ATOM     23  C   UNL     1      -0.404  10.377  18.571  0.00  0.00    +0.000 A 
ATOM     24  C   UNL     1      -1.065  11.280  19.401  0.00  0.00    +0.000 A 
ATOM     25  C   UNL     1      -2.389  11.675  19.141  0.00  0.00    +0.000 A 
ATOM     26  C   UNL     1      -3.034  12.645  20.100  0.00  0.00    +0.000 C 
ATOM     27  C   UNL     1      -3.077  11.156  18.013  0.00  0.00    +0.000 A 
ATOM     28  C   UNL     1      -2.395  10.262  17.149  0.00  0.00    +0.000 A 
ATOM     29  C   UNL     1      -3.006   9.630  15.926  0.00  0.00    +0.000 C 
ATOM     30  C   UNL     1      -1.071   9.882  17.449  0.00  0.00    +0.000 A 
ENDBRANCH  21  27
ENDBRANCH  19  21
ENDBRANCH   1  19
TORSDOF 4
ENDMDL
