MODEL 1
REMARK VINA RESULT:      -9.5      0.000      0.000
REMARK  Name = 
REMARK  5 active torsions:
REMARK  status: ('A' for Active; 'I' for Inactive)
REMARK    1  A    between atoms: C_2  and  C_18
REMARK    2  A    between atoms: N_3  and  C_4
REMARK    3  A    between atoms: C_8  and  S_9
REMARK    4  A    between atoms: S_9  and  N_12
REMARK    5  A    between atoms: C_24  and  N_25
REMARK                            x       y       z     vdW  Elec       q    Type
REMARK                         _______ _______ _______ _____ _____    ______ ____
ROOT
ATOM      1  O   UNL     1       2.576   6.338  20.047  0.00  0.00    +0.000 OA
ATOM      2  C   UNL     1       2.704   6.859  18.945  0.00  0.00    +0.000 C 
ATOM      3  N   UNL     1       2.126   8.043  18.520  0.00  0.00    +0.000 N 
ATOM      4  H   UNL     1       2.040   8.150  17.517  0.00  0.00    +0.000 HD
ENDROOT
BRANCH   2   5
ATOM      5  C   UNL     1       3.556   6.192  17.923  0.00  0.00    +0.000 A 
ATOM      6  C   UNL     1       4.397   7.017  17.154  0.00  0.00    +0.000 A 
ATOM      7  C   UNL     1       5.341   6.450  16.299  0.00  0.00    +0.000 A 
ATOM      8  C   UNL     1       5.478   5.066  16.244  0.00  0.00    +0.000 A 
ATOM      9 CL   UNL     1       6.638   4.366  15.186  0.00  0.00    +0.000 Cl
ATOM     10  C   UNL     1       4.666   4.237  17.019  0.00  0.00    +0.000 A 
ATOM     11  C   UNL     1       3.674   4.788  17.847  0.00  0.00    +0.000 A 
BRANCH  11  12
ATOM     12  N   UNL     1       2.766   3.902  18.462  0.00  0.00    +0.000 N 
ATOM     13  C   UNL     1       3.085   3.065  19.584  0.00  0.00    +0.000 C 
ATOM     14  C   UNL     1       2.107   1.916  19.452  0.00  0.00    +0.000 C 
ATOM     15  C   UNL     1       0.871   2.572  18.845  0.00  0.00    +0.000 C 
ATOM     16  C   UNL     1       1.451   3.691  18.019  0.00  0.00    +0.000 C 
ATOM     17  O   UNL     1       0.890   4.262  17.095  0.00  0.00    +0.000 OA
ENDBRANCH  11  12
ENDBRANCH   2   5
BRANCH   3  18
ATOM     18  C   UNL     1       1.300   8.863  19.310  0.00  0.00    +0.000 A 
ATOM     19  C   UNL     1       1.410   8.734  20.697  0.00  0.00    +0.000 A 
ATOM     20  C   UNL     1       0.634   9.521  21.543  0.00  0.00    +0.000 A 
ATOM     21  C   UNL     1      -0.272  10.437  21.010  0.00  0.00    +0.000 A 
ATOM     22  C   UNL     1      -0.382  10.573  19.621  0.00  0.00    +0.000 A 
ATOM     23  C   UNL     1       0.375   9.759  18.769  0.00  0.00    +0.000 A 
BRANCH  22  24
ATOM     24  S   UNL     1      -1.537  11.755  18.952  0.00  0.00    +0.000 S 
ATOM     25  O   UNL     1      -2.218  12.364  20.076  0.00  0.00    +0.000 OA
ATOM     26  O   UNL     1      -0.812  12.571  17.997  0.00  0.00    +0.000 OA
BRANCH  24  27
ATOM     27  N   UNL     1      -2.654  10.848  18.072  0.00  0.00    +0.000 NA
ATOM     28  C   UNL     1      -2.278  10.258  16.777  0.00  0.00    +0.000 C 
ATOM     29  C   UNL     1      -3.139  10.995  15.770  0.00  0.00    +0.000 C 
ATOM     30  C   UNL     1      -4.427  11.293  16.512  0.00  0.00    +0.000 C 
ATOM     31  C   UNL     1      -4.055  11.308  17.994  0.00  0.00    +0.000 C 
ENDBRANCH  24  27
ENDBRANCH  22  24
ENDBRANCH   3  18
TORSDOF 5
ENDMDL
MODEL 2
REMARK VINA RESULT:      -9.5      1.054      1.062
REMARK  Name = 
REMARK  5 active torsions:
REMARK  status: ('A' for Active; 'I' for Inactive)
REMARK    1  A    between atoms: C_2  and  C_18
REMARK    2  A    between atoms: N_3  and  C_4
REMARK    3  A    between atoms: C_8  and  S_9
REMARK    4  A    between atoms: S_9  and  N_12
REMARK    5  A    between atoms: C_24  and  N_25
REMARK                            x       y       z     vdW  Elec       q    Type
REMARK                         _______ _______ _______ _____ _____    ______ ____
ROOT
ATOM      1  O   UNL     1       1.401   7.081  17.647  0.00  0.00    +0.000 OA
ATOM      2  C   UNL     1       2.364   7.112  18.404  0.00  0.00    +0.000 C 
ATOM      3  N   UNL     1       2.451   7.802  19.600  0.00  0.00    +0.000 N 
ATOM      4  H   UNL     1       3.391   8.010  19.915  0.00  0.00    +0.000 HD
ENDROOT
BRANCH   2   5
ATOM      5  C   UNL     1       3.590   6.347  18.047  0.00  0.00    +0.000 A 
ATOM      6  C   UNL     1       4.606   7.046  17.368  0.00  0.00    +0.000 A 
ATOM      7  C   UNL     1       5.844   6.444  17.151  0.00  0.00    +0.000 A 
ATOM      8  C   UNL     1       6.085   5.166  17.648  0.00  0.00    +0.000 A 
ATOM      9 CL   UNL     1       7.611   4.421  17.375  0.00  0.00    +0.000 Cl
ATOM     10  C   UNL     1       5.095   4.471  18.342  0.00  0.00    +0.000 A 
ATOM     11  C   UNL     1       3.824   5.040  18.524  0.00  0.00    +0.000 A 
BRANCH  11  12
ATOM     12  N   UNL     1       2.812   4.224  19.067  0.00  0.00    +0.000 N 
ATOM     13  C   UNL     1       2.573   4.055  20.474  0.00  0.00    +0.000 C 
ATOM     14  C   UNL     1       1.912   2.694  20.555  0.00  0.00    +0.000 C 
ATOM     15  C   UNL     1       1.119   2.609  19.255  0.00  0.00    +0.000 C 
ATOM     16  C   UNL     1       1.942   3.433  18.299  0.00  0.00    +0.000 C 
ATOM     17  O   UNL     1       1.895   3.373  17.079  0.00  0.00    +0.000 OA
ENDBRANCH  11  12
ENDBRANCH   2   5
BRANCH   3  18
ATOM     18  C   UNL     1       1.418   8.577  20.157  0.00  0.00    +0.000 A 
ATOM     19  C   UNL     1       1.080   8.328  21.490  0.00  0.00    +0.000 A 
ATOM     20  C   UNL     1       0.077   9.064  22.114  0.00  0.00    +0.000 A 
ATOM     21  C   UNL     1      -0.609  10.050  21.406  0.00  0.00    +0.000 A 
ATOM     22  C   UNL     1      -0.270  10.307  20.073  0.00  0.00    +0.000 A 
ATOM     23  C   UNL     1       0.716   9.545  19.434  0.00  0.00    +0.000 A 
BRANCH  22  24
ATOM     24  S   UNL     1      -1.149  11.578  19.181  0.00  0.00    +0.000 S 
ATOM     25  O   UNL     1      -1.785  12.424  20.170  0.00  0.00    +0.000 OA
ATOM     26  O   UNL     1      -0.227  12.138  18.211  0.00  0.00    +0.000 OA
BRANCH  24  27
ATOM     27  N   UNL     1      -2.347  10.772  18.309  0.00  0.00    +0.000 NA
ATOM     28  C   UNL     1      -2.016  10.081  17.054  0.00  0.00    +0.000 C 
ATOM     29  C   UNL     1      -2.754  10.868  15.990  0.00  0.00    +0.000 C 
ATOM     30  C   UNL     1      -4.013  11.356  16.679  0.00  0.00    +0.000 C 
ATOM     31  C   UNL     1      -3.679  11.395  18.170  0.00  0.00    +0.000 C 
ENDBRANCH  24  27
ENDBRANCH  22  24
ENDBRANCH   3  18
TORSDOF 5
ENDMDL
MODEL 3
REMARK VINA RESULT:      -9.4      1.125      1.436
REMARK  Name = 
REMARK  5 active torsions:
REMARK  status: ('A' for Active; 'I' for Inactive)
REMARK    1  A    between atoms: C_2  and  C_18
REMARK    2  A    between atoms: N_3  and  C_4
REMARK    3  A    between atoms: C_8  and  S_9
REMARK    4  A    between atoms: S_9  and  N_12
REMARK    5  A    between atoms: C_24  and  N_25
REMARK                            x       y       z     vdW  Elec       q    Type
REMARK                         _______ _______ _______ _____ _____    ______ ____
ROOT
ATOM      1  O   UNL     1       1.436   6.747  17.763  0.00  0.00    +0.000 OA
ATOM      2  C   UNL     1       2.428   6.892  18.467  0.00  0.00    +0.000 C 
ATOM      3  N   UNL     1       2.526   7.676  19.603  0.00  0.00    +0.000 N 
ATOM      4  H   UNL     1       3.464   7.961  19.856  0.00  0.00    +0.000 HD
ENDROOT
BRANCH   2   5
ATOM      5  C   UNL     1       3.682   6.173  18.109  0.00  0.00    +0.000 A 
ATOM      6  C   UNL     1       4.709   6.934  17.521  0.00  0.00    +0.000 A 
ATOM      7  C   UNL     1       5.967   6.368  17.314  0.00  0.00    +0.000 A 
ATOM      8  C   UNL     1       6.213   5.063  17.731  0.00  0.00    +0.000 A 
ATOM      9 CL   UNL     1       7.762   4.364  17.470  0.00  0.00    +0.000 Cl
ATOM     10  C   UNL     1       5.209   4.306  18.336  0.00  0.00    +0.000 A 
ATOM     11  C   UNL     1       3.921   4.841  18.505  0.00  0.00    +0.000 A 
BRANCH  11  12
ATOM     12  N   UNL     1       2.904   3.972  18.950  0.00  0.00    +0.000 N 
ATOM     13  C   UNL     1       2.321   2.931  18.151  0.00  0.00    +0.000 C 
ATOM     14  C   UNL     1       0.945   2.753  18.760  0.00  0.00    +0.000 C 
ATOM     15  C   UNL     1       1.172   3.052  20.238  0.00  0.00    +0.000 C 
ATOM     16  C   UNL     1       2.299   4.052  20.214  0.00  0.00    +0.000 C 
ATOM     17  O   UNL     1       2.587   4.826  21.116  0.00  0.00    +0.000 OA
ENDBRANCH  11  12
ENDBRANCH   2   5
BRANCH   3  18
ATOM     18  C   UNL     1       1.473   8.431  20.151  0.00  0.00    +0.000 A 
ATOM     19  C   UNL     1       1.106   8.152  21.471  0.00  0.00    +0.000 A 
ATOM     20  C   UNL     1       0.082   8.867  22.085  0.00  0.00    +0.000 A 
ATOM     21  C   UNL     1      -0.596   9.861  21.381  0.00  0.00    +0.000 A 
ATOM     22  C   UNL     1      -0.228  10.147  20.061  0.00  0.00    +0.000 A 
ATOM     23  C   UNL     1       0.780   9.407  19.431  0.00  0.00    +0.000 A 
BRANCH  22  24
ATOM     24  S   UNL     1      -1.097  11.429  19.175  0.00  0.00    +0.000 S 
ATOM     25  O   UNL     1      -1.760  12.252  20.165  0.00  0.00    +0.000 OA
ATOM     26  O   UNL     1      -0.158  12.013  18.235  0.00  0.00    +0.000 OA
BRANCH  24  27
ATOM     27  N   UNL     1      -2.270  10.631  18.263  0.00  0.00    +0.000 NA
ATOM     28  C   UNL     1      -1.923  10.034  16.963  0.00  0.00    +0.000 C 
ATOM     29  C   UNL     1      -2.704  10.856  15.957  0.00  0.00    +0.000 C 
ATOM     30  C   UNL     1      -3.975  11.248  16.685  0.00  0.00    +0.000 C 
ATOM     31  C   UNL     1      -3.627  11.207  18.173  0.00  0.00    +0.000 C 
ENDBRANCH  24  27
ENDBRANCH  22  24
ENDBRANCH   3  18
TORSDOF 5
ENDMDL
MODEL 4
REMARK VINA RESULT:      -9.4      0.749      1.135
REMARK  Name = 
REMARK  5 active torsions:
REMARK  status: ('A' for Active; 'I' for Inactive)
REMARK    1  A    between atoms: C_2  and  C_18
REMARK    2  A    between atoms: N_3  and  C_4
REMARK    3  A    between atoms: C_8  and  S_9
REMARK    4  A    between atoms: S_9  and  N_12
REMARK    5  A    between atoms: C_24  and  N_25
REMARK                            x       y       z     vdW  Elec       q    Type
REMARK                         _______ _______ _______ _____ _____    ______ ____
ROOT
ATOM      1  O   UNL     1       2.608   6.119  19.928  0.00  0.00    +0.000 OA
ATOM      2  C   UNL     1       2.774   6.706  18.865  0.00  0.00    +0.000 C 
ATOM      3  N   UNL     1       2.216   7.916  18.494  0.00  0.00    +0.000 N 
ATOM      4  H   UNL     1       2.164   8.085  17.497  0.00  0.00    +0.000 HD
ENDROOT
BRANCH   2   5
ATOM      5  C   UNL     1       3.659   6.097  17.833  0.00  0.00    +0.000 A 
ATOM      6  C   UNL     1       4.500   6.969  17.117  0.00  0.00    +0.000 A 
ATOM      7  C   UNL     1       5.470   6.455  16.259  0.00  0.00    +0.000 A 
ATOM      8  C   UNL     1       5.633   5.077  16.148  0.00  0.00    +0.000 A 
ATOM      9 CL   UNL     1       6.827   4.443  15.085  0.00  0.00    +0.000 Cl
ATOM     10  C   UNL     1       4.821   4.203  16.870  0.00  0.00    +0.000 A 
ATOM     11  C   UNL     1       3.803   4.700  17.700  0.00  0.00    +0.000 A 
BRANCH  11  12
ATOM     12  N   UNL     1       2.899   3.774  18.257  0.00  0.00    +0.000 N 
ATOM     13  C   UNL     1       1.537   3.614  17.832  0.00  0.00    +0.000 C 
ATOM     14  C   UNL     1       0.851   3.053  19.062  0.00  0.00    +0.000 C 
ATOM     15  C   UNL     1       1.938   2.208  19.718  0.00  0.00    +0.000 C 
ATOM     16  C   UNL     1       3.206   2.926  19.334  0.00  0.00    +0.000 C 
ATOM     17  O   UNL     1       4.284   2.826  19.902  0.00  0.00    +0.000 OA
ENDBRANCH  11  12
ENDBRANCH   2   5
BRANCH   3  18
ATOM     18  C   UNL     1       1.365   8.691  19.304  0.00  0.00    +0.000 A 
ATOM     19  C   UNL     1       1.439   8.488  20.685  0.00  0.00    +0.000 A 
ATOM     20  C   UNL     1       0.638   9.228  21.551  0.00  0.00    +0.000 A 
ATOM     21  C   UNL     1      -0.256  10.168  21.043  0.00  0.00    +0.000 A 
ATOM     22  C   UNL     1      -0.330  10.378  19.661  0.00  0.00    +0.000 A 
ATOM     23  C   UNL     1       0.452   9.613  18.787  0.00  0.00    +0.000 A 
BRANCH  22  24
ATOM     24  S   UNL     1      -1.472  11.592  19.025  0.00  0.00    +0.000 S 
ATOM     25  O   UNL     1      -2.152  12.171  20.166  0.00  0.00    +0.000 OA
ATOM     26  O   UNL     1      -0.735  12.431  18.099  0.00  0.00    +0.000 OA
BRANCH  24  27
ATOM     27  N   UNL     1      -2.593  10.723  18.113  0.00  0.00    +0.000 NA
ATOM     28  C   UNL     1      -2.219  10.173  16.800  0.00  0.00    +0.000 C 
ATOM     29  C   UNL     1      -3.070  10.949  15.815  0.00  0.00    +0.000 C 
ATOM     30  C   UNL     1      -4.358  11.234  16.563  0.00  0.00    +0.000 C 
ATOM     31  C   UNL     1      -3.990  11.197  18.046  0.00  0.00    +0.000 C 
ENDBRANCH  24  27
ENDBRANCH  22  24
ENDBRANCH   3  18
TORSDOF 5
ENDMDL
MODEL 5
REMARK VINA RESULT:      -9.3      1.921      3.104
REMARK  Name = 
REMARK  5 active torsions:
REMARK  status: ('A' for Active; 'I' for Inactive)
REMARK    1  A    between atoms: C_2  and  C_18
REMARK    2  A    between atoms: N_3  and  C_4
REMARK    3  A    between atoms: C_8  and  S_9
REMARK    4  A    between atoms: S_9  and  N_12
REMARK    5  A    between atoms: C_24  and  N_25
REMARK                            x       y       z     vdW  Elec       q    Type
REMARK                         _______ _______ _______ _____ _____    ______ ____
ROOT
ATOM      1  O   UNL     1       2.247   7.583  19.814  0.00  0.00    +0.000 OA
ATOM      2  C   UNL     1       2.450   7.654  18.608  0.00  0.00    +0.000 C 
ATOM      3  N   UNL     1       1.854   8.534  17.722  0.00  0.00    +0.000 N 
ATOM      4  H   UNL     1       1.857   8.244  16.752  0.00  0.00    +0.000 HD
ENDROOT
BRANCH   2   5
ATOM      5  C   UNL     1       3.429   6.724  17.983  0.00  0.00    +0.000 A 
ATOM      6  C   UNL     1       4.346   7.279  17.070  0.00  0.00    +0.000 A 
ATOM      7  C   UNL     1       5.394   6.504  16.574  0.00  0.00    +0.000 A 
ATOM      8  C   UNL     1       5.555   5.196  17.021  0.00  0.00    +0.000 A 
ATOM      9 CL   UNL     1       6.845   4.239  16.406  0.00  0.00    +0.000 Cl
ATOM     10  C   UNL     1       4.667   4.642  17.943  0.00  0.00    +0.000 A 
ATOM     11  C   UNL     1       3.575   5.388  18.413  0.00  0.00    +0.000 A 
BRANCH  11  12
ATOM     12  N   UNL     1       2.612   4.720  19.196  0.00  0.00    +0.000 N 
ATOM     13  C   UNL     1       2.685   4.576  20.623  0.00  0.00    +0.000 C 
ATOM     14  C   UNL     1       1.876   3.322  20.889  0.00  0.00    +0.000 C 
ATOM     15  C   UNL     1       0.800   3.361  19.810  0.00  0.00    +0.000 C 
ATOM     16  C   UNL     1       1.486   4.067  18.669  0.00  0.00    +0.000 C 
ATOM     17  O   UNL     1       1.148   4.024  17.495  0.00  0.00    +0.000 OA
ENDBRANCH  11  12
ENDBRANCH   2   5
BRANCH   3  18
ATOM     18  C   UNL     1       0.914   9.519  18.077  0.00  0.00    +0.000 A 
ATOM     19  C   UNL     1      -0.393   9.353  17.611  0.00  0.00    +0.000 A 
ATOM     20  C   UNL     1      -1.381  10.279  17.933  0.00  0.00    +0.000 A 
ATOM     21  C   UNL     1      -1.068  11.391  18.713  0.00  0.00    +0.000 A 
ATOM     22  C   UNL     1       0.238  11.559  19.187  0.00  0.00    +0.000 A 
ATOM     23  C   UNL     1       1.240  10.645  18.837  0.00  0.00    +0.000 A 
BRANCH  22  24
ATOM     24  S   UNL     1       0.623  12.980  20.193  0.00  0.00    +0.000 S 
ATOM     25  O   UNL     1       2.053  13.194  20.093  0.00  0.00    +0.000 OA
ATOM     26  O   UNL     1      -0.308  14.030  19.828  0.00  0.00    +0.000 OA
BRANCH  24  27
ATOM     27  N   UNL     1       0.255  12.527  21.775  0.00  0.00    +0.000 NA
ATOM     28  C   UNL     1       0.276  11.109  22.167  0.00  0.00    +0.000 C 
ATOM     29  C   UNL     1      -1.172  10.789  22.483  0.00  0.00    +0.000 C 
ATOM     30  C   UNL     1      -1.735  12.080  23.046  0.00  0.00    +0.000 C 
ATOM     31  C   UNL     1      -0.861  13.196  22.474  0.00  0.00    +0.000 C 
ENDBRANCH  24  27
ENDBRANCH  22  24
ENDBRANCH   3  18
TORSDOF 5
ENDMDL
MODEL 6
REMARK VINA RESULT:      -9.2      2.229      3.184
REMARK  Name = 
REMARK  5 active torsions:
REMARK  status: ('A' for Active; 'I' for Inactive)
REMARK    1  A    between atoms: C_2  and  C_18
REMARK    2  A    between atoms: N_3  and  C_4
REMARK    3  A    between atoms: C_8  and  S_9
REMARK    4  A    between atoms: S_9  and  N_12
REMARK    5  A    between atoms: C_24  and  N_25
REMARK                            x       y       z     vdW  Elec       q    Type
REMARK                         _______ _______ _______ _____ _____    ______ ____
ROOT
ATOM      1  O   UNL     1       2.045   7.180  19.989  0.00  0.00    +0.000 OA
ATOM      2  C   UNL     1       2.326   7.448  18.827  0.00  0.00    +0.000 C 
ATOM      3  N   UNL     1       1.789   8.467  18.062  0.00  0.00    +0.000 N 
ATOM      4  H   UNL     1       1.855   8.342  17.060  0.00  0.00    +0.000 HD
ENDROOT
BRANCH   2   5
ATOM      5  C   UNL     1       3.344   6.623  18.121  0.00  0.00    +0.000 A 
ATOM      6  C   UNL     1       4.247   7.301  17.281  0.00  0.00    +0.000 A 
ATOM      7  C   UNL     1       5.327   6.621  16.721  0.00  0.00    +0.000 A 
ATOM      8  C   UNL     1       5.533   5.280  17.032  0.00  0.00    +0.000 A 
ATOM      9 CL   UNL     1       6.862   4.439  16.337  0.00  0.00    +0.000 Cl
ATOM     10  C   UNL     1       4.658   4.602  17.881  0.00  0.00    +0.000 A 
ATOM     11  C   UNL     1       3.535   5.256  18.413  0.00  0.00    +0.000 A 
BRANCH  11  12
ATOM     12  N   UNL     1       2.591   4.476  19.111  0.00  0.00    +0.000 N 
ATOM     13  C   UNL     1       2.699   4.122  20.499  0.00  0.00    +0.000 C 
ATOM     14  C   UNL     1       1.897   2.840  20.595  0.00  0.00    +0.000 C 
ATOM     15  C   UNL     1       0.794   3.035  19.560  0.00  0.00    +0.000 C 
ATOM     16  C   UNL     1       1.452   3.905  18.521  0.00  0.00    +0.000 C 
ATOM     17  O   UNL     1       1.086   4.035  17.361  0.00  0.00    +0.000 OA
ENDBRANCH  11  12
ENDBRANCH   2   5
BRANCH   3  18
ATOM     18  C   UNL     1       0.827   9.390  18.514  0.00  0.00    +0.000 A 
ATOM     19  C   UNL     1      -0.267   9.634  17.679  0.00  0.00    +0.000 A 
ATOM     20  C   UNL     1      -1.265  10.524  18.065  0.00  0.00    +0.000 A 
ATOM     21  C   UNL     1      -1.172  11.192  19.285  0.00  0.00    +0.000 A 
ATOM     22  C   UNL     1      -0.081  10.947  20.127  0.00  0.00    +0.000 A 
ATOM     23  C   UNL     1       0.940  10.076  19.726  0.00  0.00    +0.000 A 
BRANCH  22  24
ATOM     24  S   UNL     1       0.021  11.800  21.690  0.00  0.00    +0.000 S 
ATOM     25  O   UNL     1       0.116  10.785  22.720  0.00  0.00    +0.000 OA
ATOM     26  O   UNL     1       1.047  12.817  21.558  0.00  0.00    +0.000 OA
BRANCH  24  27
ATOM     27  N   UNL     1      -1.449  12.607  21.861  0.00  0.00    +0.000 NA
ATOM     28  C   UNL     1      -1.494  14.078  21.874  0.00  0.00    +0.000 C 
ATOM     29  C   UNL     1      -1.941  14.425  23.279  0.00  0.00    +0.000 C 
ATOM     30  C   UNL     1      -2.866  13.291  23.678  0.00  0.00    +0.000 C 
ATOM     31  C   UNL     1      -2.444  12.095  22.825  0.00  0.00    +0.000 C 
ENDBRANCH  24  27
ENDBRANCH  22  24
ENDBRANCH   3  18
TORSDOF 5
ENDMDL
MODEL 7
REMARK VINA RESULT:      -9.2      2.298      2.837
REMARK  Name = 
REMARK  5 active torsions:
REMARK  status: ('A' for Active; 'I' for Inactive)
REMARK    1  A    between atoms: C_2  and  C_18
REMARK    2  A    between atoms: N_3  and  C_4
REMARK    3  A    between atoms: C_8  and  S_9
REMARK    4  A    between atoms: S_9  and  N_12
REMARK    5  A    between atoms: C_24  and  N_25
REMARK                            x       y       z     vdW  Elec       q    Type
REMARK                         _______ _______ _______ _____ _____    ______ ____
ROOT
ATOM      1  O   UNL     1       1.395   7.876  17.652  0.00  0.00    +0.000 OA
ATOM      2  C   UNL     1       2.241   7.564  18.482  0.00  0.00    +0.000 C 
ATOM      3  N   UNL     1       2.272   7.946  19.811  0.00  0.00    +0.000 N 
ATOM      4  H   UNL     1       3.181   7.905  20.256  0.00  0.00    +0.000 HD
ENDROOT
BRANCH   2   5
ATOM      5  C   UNL     1       3.369   6.685  18.070  0.00  0.00    +0.000 A 
ATOM      6  C   UNL     1       4.354   7.254  17.242  0.00  0.00    +0.000 A 
ATOM      7  C   UNL     1       5.520   6.546  16.955  0.00  0.00    +0.000 A 
ATOM      8  C   UNL     1       5.725   5.294  17.527  0.00  0.00    +0.000 A 
ATOM      9 CL   UNL     1       7.161   4.419  17.168  0.00  0.00    +0.000 Cl
ATOM     10  C   UNL     1       4.767   4.729  18.368  0.00  0.00    +0.000 A 
ATOM     11  C   UNL     1       3.563   5.403  18.627  0.00  0.00    +0.000 A 
BRANCH  11  12
ATOM     12  N   UNL     1       2.559   4.707  19.330  0.00  0.00    +0.000 N 
ATOM     13  C   UNL     1       2.506   4.586  20.760  0.00  0.00    +0.000 C 
ATOM     14  C   UNL     1       1.727   3.305  20.974  0.00  0.00    +0.000 C 
ATOM     15  C   UNL     1       0.754   3.283  19.800  0.00  0.00    +0.000 C 
ATOM     16  C   UNL     1       1.513   4.000  18.715  0.00  0.00    +0.000 C 
ATOM     17  O   UNL     1       1.288   3.926  17.515  0.00  0.00    +0.000 OA
ENDBRANCH  11  12
ENDBRANCH   2   5
BRANCH   3  18
ATOM     18  C   UNL     1       1.306   8.756  20.438  0.00  0.00    +0.000 A 
ATOM     19  C   UNL     1       1.002   8.471  21.772  0.00  0.00    +0.000 A 
ATOM     20  C   UNL     1       0.067   9.237  22.462  0.00  0.00    +0.000 A 
ATOM     21  C   UNL     1      -0.585  10.289  21.820  0.00  0.00    +0.000 A 
ATOM     22  C   UNL     1      -0.280  10.581  20.485  0.00  0.00    +0.000 A 
ATOM     23  C   UNL     1       0.637   9.791  19.780  0.00  0.00    +0.000 A 
BRANCH  22  24
ATOM     24  S   UNL     1      -1.114  11.935  19.678  0.00  0.00    +0.000 S 
ATOM     25  O   UNL     1      -1.342  11.532  18.305  0.00  0.00    +0.000 OA
ATOM     26  O   UNL     1      -2.223  12.324  20.528  0.00  0.00    +0.000 OA
BRANCH  24  27
ATOM     27  N   UNL     1      -0.016  13.214  19.690  0.00  0.00    +0.000 NA
ATOM     28  C   UNL     1       0.952  13.374  18.593  0.00  0.00    +0.000 C 
ATOM     29  C   UNL     1       2.298  13.134  19.247  0.00  0.00    +0.000 C 
ATOM     30  C   UNL     1       2.137  13.660  20.660  0.00  0.00    +0.000 C 
ATOM     31  C   UNL     1       0.640  13.589  20.959  0.00  0.00    +0.000 C 
ENDBRANCH  24  27
ENDBRANCH  22  24
ENDBRANCH   3  18
TORSDOF 5
ENDMDL
MODEL 8
REMARK VINA RESULT:      -9.2      2.482      3.117
REMARK  Name = 
REMARK  5 active torsions:
REMARK  status: ('A' for Active; 'I' for Inactive)
REMARK    1  A    between atoms: C_2  and  C_18
REMARK    2  A    between atoms: N_3  and  C_4
REMARK    3  A    between atoms: C_8  and  S_9
REMARK    4  A    between atoms: S_9  and  N_12
REMARK    5  A    between atoms: C_24  and  N_25
REMARK                            x       y       z     vdW  Elec       q    Type
REMARK                         _______ _______ _______ _____ _____    ______ ____
ROOT
ATOM      1  O   UNL     1       4.097   6.255  19.581  0.00  0.00    +0.000 OA
ATOM      2  C   UNL     1       3.590   6.481  18.488  0.00  0.00    +0.000 C 
ATOM      3  N   UNL     1       2.547   7.351  18.227  0.00  0.00    +0.000 N 
ATOM      4  H   UNL     1       2.028   7.167  17.377  0.00  0.00    +0.000 HD
ENDROOT
BRANCH   2   5
ATOM      5  C   UNL     1       4.113   5.772  17.288  0.00  0.00    +0.000 A 
ATOM      6  C   UNL     1       4.829   6.542  16.353  0.00  0.00    +0.000 A 
ATOM      7  C   UNL     1       5.488   5.919  15.294  0.00  0.00    +0.000 A 
ATOM      8  C   UNL     1       5.472   4.531  15.192  0.00  0.00    +0.000 A 
ATOM      9 CL   UNL     1       6.281   3.764  13.883  0.00  0.00    +0.000 Cl
ATOM     10  C   UNL     1       4.784   3.756  16.126  0.00  0.00    +0.000 A 
ATOM     11  C   UNL     1       4.070   4.367  17.169  0.00  0.00    +0.000 A 
BRANCH  11  12
ATOM     12  N   UNL     1       3.247   3.549  17.968  0.00  0.00    +0.000 N 
ATOM     13  C   UNL     1       3.736   2.591  18.920  0.00  0.00    +0.000 C 
ATOM     14  C   UNL     1       2.610   1.581  19.009  0.00  0.00    +0.000 C 
ATOM     15  C   UNL     1       1.359   2.428  18.797  0.00  0.00    +0.000 C 
ATOM     16  C   UNL     1       1.845   3.533  17.896  0.00  0.00    +0.000 C 
ATOM     17  O   UNL     1       1.142   4.241  17.189  0.00  0.00    +0.000 OA
ENDBRANCH  11  12
ENDBRANCH   2   5
BRANCH   3  18
ATOM     18  C   UNL     1       1.903   8.147  19.193  0.00  0.00    +0.000 A 
ATOM     19  C   UNL     1       1.603   7.546  20.419  0.00  0.00    +0.000 A 
ATOM     20  C   UNL     1       0.979   8.274  21.428  0.00  0.00    +0.000 A 
ATOM     21  C   UNL     1       0.635   9.608  21.215  0.00  0.00    +0.000 A 
ATOM     22  C   UNL     1       0.937  10.215  19.991  0.00  0.00    +0.000 A 
ATOM     23  C   UNL     1       1.536   9.475  18.964  0.00  0.00    +0.000 A 
BRANCH  22  24
ATOM     24  S   UNL     1       0.500  11.926  19.736  0.00  0.00    +0.000 S 
ATOM     25  O   UNL     1      -0.221  11.995  18.481  0.00  0.00    +0.000 OA
ATOM     26  O   UNL     1      -0.108  12.402  20.964  0.00  0.00    +0.000 OA
BRANCH  24  27
ATOM     27  N   UNL     1       1.963  12.745  19.563  0.00  0.00    +0.000 NA
ATOM     28  C   UNL     1       2.274  13.901  20.419  0.00  0.00    +0.000 C 
ATOM     29  C   UNL     1       2.309  15.075  19.462  0.00  0.00    +0.000 C 
ATOM     30  C   UNL     1       2.832  14.494  18.162  0.00  0.00    +0.000 C 
ATOM     31  C   UNL     1       2.488  13.006  18.208  0.00  0.00    +0.000 C 
ENDBRANCH  24  27
ENDBRANCH  22  24
ENDBRANCH   3  18
TORSDOF 5
ENDMDL
MODEL 9
REMARK VINA RESULT:      -9.2      2.013      2.642
REMARK  Name = 
REMARK  5 active torsions:
REMARK  status: ('A' for Active; 'I' for Inactive)
REMARK    1  A    between atoms: C_2  and  C_18
REMARK    2  A    between atoms: N_3  and  C_4
REMARK    3  A    between atoms: C_8  and  S_9
REMARK    4  A    between atoms: S_9  and  N_12
REMARK    5  A    between atoms: C_24  and  N_25
REMARK                            x       y       z     vdW  Elec       q    Type
REMARK                         _______ _______ _______ _____ _____    ______ ____
ROOT
ATOM      1  O   UNL     1       3.168   6.239  20.071  0.00  0.00    +0.000 OA
ATOM      2  C   UNL     1       2.996   6.686  18.943  0.00  0.00    +0.000 C 
ATOM      3  N   UNL     1       2.201   7.764  18.595  0.00  0.00    +0.000 N 
ATOM      4  H   UNL     1       1.894   7.786  17.631  0.00  0.00    +0.000 HD
ENDROOT
BRANCH   2   5
ATOM      5  C   UNL     1       3.691   6.042  17.795  0.00  0.00    +0.000 A 
ATOM      6  C   UNL     1       4.493   6.869  16.987  0.00  0.00    +0.000 A 
ATOM      7  C   UNL     1       5.303   6.308  16.000  0.00  0.00    +0.000 A 
ATOM      8  C   UNL     1       5.348   4.925  15.849  0.00  0.00    +0.000 A 
ATOM      9 CL   UNL     1       6.342   4.234  14.628  0.00  0.00    +0.000 Cl
ATOM     10  C   UNL     1       4.575   4.093  16.659  0.00  0.00    +0.000 A 
ATOM     11  C   UNL     1       3.713   4.642  17.623  0.00  0.00    +0.000 A 
BRANCH  11  12
ATOM     12  N   UNL     1       2.824   3.768  18.281  0.00  0.00    +0.000 N 
ATOM     13  C   UNL     1       3.206   2.859  19.326  0.00  0.00    +0.000 C 
ATOM     14  C   UNL     1       2.161   1.766  19.236  0.00  0.00    +0.000 C 
ATOM     15  C   UNL     1       0.908   2.511  18.786  0.00  0.00    +0.000 C 
ATOM     16  C   UNL     1       1.463   3.643  17.961  0.00  0.00    +0.000 C 
ATOM     17  O   UNL     1       0.846   4.288  17.126  0.00  0.00    +0.000 OA
ENDBRANCH  11  12
ENDBRANCH   2   5
BRANCH   3  18
ATOM     18  C   UNL     1       1.464   8.545  19.504  0.00  0.00    +0.000 A 
ATOM     19  C   UNL     1       1.463   8.139  20.842  0.00  0.00    +0.000 A 
ATOM     20  C   UNL     1       0.767   8.870  21.801  0.00  0.00    +0.000 A 
ATOM     21  C   UNL     1       0.052  10.007  21.429  0.00  0.00    +0.000 A 
ATOM     22  C   UNL     1       0.054  10.420  20.092  0.00  0.00    +0.000 A 
ATOM     23  C   UNL     1       0.727   9.669  19.121  0.00  0.00    +0.000 A 
BRANCH  22  24
ATOM     24  S   UNL     1      -0.857  11.883  19.632  0.00  0.00    +0.000 S 
ATOM     25  O   UNL     1      -1.352  11.667  18.288  0.00  0.00    +0.000 OA
ATOM     26  O   UNL     1      -1.772  12.179  20.718  0.00  0.00    +0.000 OA
BRANCH  24  27
ATOM     27  N   UNL     1       0.278  13.130  19.595  0.00  0.00    +0.000 NA
ATOM     28  C   UNL     1       1.086  13.365  18.388  0.00  0.00    +0.000 C 
ATOM     29  C   UNL     1       2.501  13.034  18.817  0.00  0.00    +0.000 C 
ATOM     30  C   UNL     1       2.562  13.434  20.278  0.00  0.00    +0.000 C 
ATOM     31  C   UNL     1       1.121  13.372  20.783  0.00  0.00    +0.000 C 
ENDBRANCH  24  27
ENDBRANCH  22  24
ENDBRANCH   3  18
TORSDOF 5
ENDMDL
