MODEL 1
REMARK VINA RESULT:      -8.5      0.000      0.000
REMARK  Name = 
REMARK  5 active torsions:
REMARK  status: ('A' for Active; 'I' for Inactive)
REMARK    1  A    between atoms: C_2  and  C_3
REMARK    2  A    between atoms: C_3  and  S_4
REMARK    3  A    between atoms: S_4  and  C_5
REMARK    4  A    between atoms: C_8  and  C_9
REMARK    5  A    between atoms: N_12  and  C_13
REMARK                            x       y       z     vdW  Elec       q    Type
REMARK                         _______ _______ _______ _____ _____    ______ ____
ROOT
ATOM      1  C   UNL     1       1.700   9.048  17.745  0.00  0.00    +0.000 C 
ENDROOT
BRANCH   1   3
ATOM      2  O   UNL     1       0.841  10.414  19.498  0.00  0.00    +0.000 OA
ATOM      3  C   UNL     1       0.699   9.980  18.353  0.00  0.00    +0.000 C 
ATOM      4  N   UNL     1      -0.380  10.266  17.512  0.00  0.00    +0.000 N 
ATOM      5  C   UNL     1      -1.500  10.987  17.821  0.00  0.00    +0.000 A 
ATOM      6  N   UNL     1      -2.444  11.155  16.938  0.00  0.00    +0.000 NA
ATOM      7  C   UNL     1      -3.575  11.557  17.569  0.00  0.00    +0.000 A 
ATOM      8  C   UNL     1      -4.868  11.670  17.019  0.00  0.00    +0.000 A 
ATOM      9  C   UNL     1      -5.952  11.452  17.863  0.00  0.00    +0.000 A 
ATOM     10  C   UNL     1      -5.810  11.753  19.199  0.00  0.00    +0.000 A 
ATOM     11  F   UNL     1      -6.881  11.670  19.994  0.00  0.00    +0.000 F 
ATOM     12  C   UNL     1      -4.576  12.106  19.751  0.00  0.00    +0.000 A 
ATOM     13  C   UNL     1      -3.463  11.808  18.951  0.00  0.00    +0.000 A 
ATOM     14  S   UNL     1      -1.801  11.650  19.367  0.00  0.00    +0.000 S 
ATOM     15  H   UNL     1      -0.430   9.801  16.609  0.00  0.00    +0.000 HD
ENDBRANCH   1   3
BRANCH   1  16
ATOM     16  S   UNL     1       2.127   7.673  18.854  0.00  0.00    +0.000 S 
BRANCH  16  17
ATOM     17  C   UNL     1       3.438   6.877  18.035  0.00  0.00    +0.000 A 
ATOM     18  N   UNL     1       4.443   7.527  17.488  0.00  0.00    +0.000 NA
ATOM     19  N   UNL     1       5.342   6.598  17.032  0.00  0.00    +0.000 NA
ATOM     20  C   UNL     1       4.824   5.403  17.217  0.00  0.00    +0.000 A 
ATOM     21  N   UNL     1       3.653   5.515  17.974  0.00  0.00    +0.000 N 
BRANCH  21  22
ATOM     22  C   UNL     1       2.933   4.432  18.560  0.00  0.00    +0.000 A 
ATOM     23  C   UNL     1       3.366   3.877  19.775  0.00  0.00    +0.000 A 
ATOM     24  C   UNL     1       2.629   2.851  20.375  0.00  0.00    +0.000 A 
ATOM     25  C   UNL     1       1.465   2.374  19.775  0.00  0.00    +0.000 A 
ATOM     26  C   UNL     1       1.040   2.913  18.564  0.00  0.00    +0.000 A 
ATOM     27  C   UNL     1       1.774   3.931  17.956  0.00  0.00    +0.000 A 
ENDBRANCH  21  22
BRANCH  20  28
ATOM     28  C   UNL     1       5.348   4.142  16.527  0.00  0.00    +0.000 C 
ATOM     29  C   UNL     1       6.618   4.158  15.704  0.00  0.00    +0.000 C 
ATOM     30  C   UNL     1       5.296   4.119  15.009  0.00  0.00    +0.000 C 
ENDBRANCH  20  28
ENDBRANCH  16  17
ENDBRANCH   1  16
TORSDOF 5
ENDMDL
MODEL 2
REMARK VINA RESULT:      -8.4      0.667      1.095
REMARK  Name = 
REMARK  5 active torsions:
REMARK  status: ('A' for Active; 'I' for Inactive)
REMARK    1  A    between atoms: C_2  and  C_3
REMARK    2  A    between atoms: C_3  and  S_4
REMARK    3  A    between atoms: S_4  and  C_5
REMARK    4  A    between atoms: C_8  and  C_9
REMARK    5  A    between atoms: N_12  and  C_13
REMARK                            x       y       z     vdW  Elec       q    Type
REMARK                         _______ _______ _______ _____ _____    ______ ____
ROOT
ATOM      1  C   UNL     1       1.211   9.313  17.806  0.00  0.00    +0.000 C 
ENDROOT
BRANCH   1   3
ATOM      2  O   UNL     1       0.395  10.834  19.448  0.00  0.00    +0.000 OA
ATOM      3  C   UNL     1       0.206  10.269  18.369  0.00  0.00    +0.000 C 
ATOM      4  N   UNL     1      -0.931  10.416  17.571  0.00  0.00    +0.000 N 
ATOM      5  C   UNL     1      -2.063  11.125  17.869  0.00  0.00    +0.000 A 
ATOM      6  N   UNL     1      -3.064  11.156  17.033  0.00  0.00    +0.000 NA
ATOM      7  C   UNL     1      -4.173  11.583  17.686  0.00  0.00    +0.000 A 
ATOM      8  C   UNL     1      -5.499  11.585  17.209  0.00  0.00    +0.000 A 
ATOM      9  C   UNL     1      -6.521  11.422  18.139  0.00  0.00    +0.000 A 
ATOM     10  C   UNL     1      -6.315  11.878  19.422  0.00  0.00    +0.000 A 
ATOM     11  F   UNL     1      -7.333  11.844  20.287  0.00  0.00    +0.000 F 
ATOM     12  C   UNL     1      -5.068  12.337  19.853  0.00  0.00    +0.000 A 
ATOM     13  C   UNL     1      -3.991  11.993  19.022  0.00  0.00    +0.000 A 
ATOM     14  S   UNL     1      -2.303  11.946  19.347  0.00  0.00    +0.000 S 
ATOM     15  H   UNL     1      -1.013   9.851  16.730  0.00  0.00    +0.000 HD
ENDBRANCH   1   3
BRANCH   1  16
ATOM     16  S   UNL     1       1.804   8.123  19.046  0.00  0.00    +0.000 S 
BRANCH  16  17
ATOM     17  C   UNL     1       3.010   7.207  18.192  0.00  0.00    +0.000 A 
ATOM     18  N   UNL     1       3.973   7.766  17.491  0.00  0.00    +0.000 NA
ATOM     19  N   UNL     1       4.800   6.767  17.048  0.00  0.00    +0.000 NA
ATOM     20  C   UNL     1       4.274   5.614  17.399  0.00  0.00    +0.000 A 
ATOM     21  N   UNL     1       3.185   5.840  18.248  0.00  0.00    +0.000 N 
BRANCH  21  22
ATOM     22  C   UNL     1       2.499   4.844  19.005  0.00  0.00    +0.000 A 
ATOM     23  C   UNL     1       1.572   3.998  18.375  0.00  0.00    +0.000 A 
ATOM     24  C   UNL     1       0.940   2.988  19.107  0.00  0.00    +0.000 A 
ATOM     25  C   UNL     1       1.224   2.813  20.460  0.00  0.00    +0.000 A 
ATOM     26  C   UNL     1       2.132   3.658  21.091  0.00  0.00    +0.000 A 
ATOM     27  C   UNL     1       2.761   4.673  20.369  0.00  0.00    +0.000 A 
ENDBRANCH  21  22
BRANCH  20  28
ATOM     28  C   UNL     1       4.698   4.275  16.793  0.00  0.00    +0.000 C 
ATOM     29  C   UNL     1       6.126   4.015  16.365  0.00  0.00    +0.000 C 
ATOM     30  C   UNL     1       5.086   4.278  15.325  0.00  0.00    +0.000 C 
ENDBRANCH  20  28
ENDBRANCH  16  17
ENDBRANCH   1  16
TORSDOF 5
ENDMDL
MODEL 3
REMARK VINA RESULT:      -8.3      3.740      4.661
REMARK  Name = 
REMARK  5 active torsions:
REMARK  status: ('A' for Active; 'I' for Inactive)
REMARK    1  A    between atoms: C_2  and  C_3
REMARK    2  A    between atoms: C_3  and  S_4
REMARK    3  A    between atoms: S_4  and  C_5
REMARK    4  A    between atoms: C_8  and  C_9
REMARK    5  A    between atoms: N_12  and  C_13
REMARK                            x       y       z     vdW  Elec       q    Type
REMARK                         _______ _______ _______ _____ _____    ______ ____
ROOT
ATOM      1  C   UNL     1       1.481   8.944  17.765  0.00  0.00    +0.000 C 
ENDROOT
BRANCH   1   3
ATOM      2  O   UNL     1       0.372  10.497  19.190  0.00  0.00    +0.000 OA
ATOM      3  C   UNL     1       1.313  10.277  18.424  0.00  0.00    +0.000 C 
ATOM      4  N   UNL     1       2.291  11.206  18.062  0.00  0.00    +0.000 N 
ATOM      5  C   UNL     1       2.341  12.530  18.407  0.00  0.00    +0.000 A 
ATOM      6  N   UNL     1       3.308  13.290  17.975  0.00  0.00    +0.000 NA
ATOM      7  C   UNL     1       2.950  14.589  18.122  0.00  0.00    +0.000 A 
ATOM      8  C   UNL     1       3.616  15.723  17.617  0.00  0.00    +0.000 A 
ATOM      9  C   UNL     1       2.846  16.834  17.288  0.00  0.00    +0.000 A 
ATOM     10  C   UNL     1       1.682  17.052  17.992  0.00  0.00    +0.000 A 
ATOM     11  F   UNL     1       1.002  18.182  17.774  0.00  0.00    +0.000 F 
ATOM     12  C   UNL     1       1.176  16.113  18.893  0.00  0.00    +0.000 A 
ATOM     13  C   UNL     1       1.729  14.829  18.783  0.00  0.00    +0.000 A 
ATOM     14  S   UNL     1       1.141  13.310  19.338  0.00  0.00    +0.000 S 
ATOM     15  H   UNL     1       2.985  10.938  17.371  0.00  0.00    +0.000 HD
ENDBRANCH   1   3
BRANCH   1  16
ATOM     16  S   UNL     1       2.218   7.709  18.877  0.00  0.00    +0.000 S 
BRANCH  16  17
ATOM     17  C   UNL     1       3.404   6.917  17.882  0.00  0.00    +0.000 A 
ATOM     18  N   UNL     1       4.341   7.567  17.227  0.00  0.00    +0.000 NA
ATOM     19  N   UNL     1       5.162   6.638  16.642  0.00  0.00    +0.000 NA
ATOM     20  C   UNL     1       4.654   5.446  16.865  0.00  0.00    +0.000 A 
ATOM     21  N   UNL     1       3.589   5.555  17.766  0.00  0.00    +0.000 N 
BRANCH  21  22
ATOM     22  C   UNL     1       2.933   4.467  18.415  0.00  0.00    +0.000 A 
ATOM     23  C   UNL     1       1.696   4.007  17.937  0.00  0.00    +0.000 A 
ATOM     24  C   UNL     1       1.079   2.907  18.541  0.00  0.00    +0.000 A 
ATOM     25  C   UNL     1       1.686   2.261  19.617  0.00  0.00    +0.000 A 
ATOM     26  C   UNL     1       2.906   2.722  20.102  0.00  0.00    +0.000 A 
ATOM     27  C   UNL     1       3.523   3.823  19.510  0.00  0.00    +0.000 A 
ENDBRANCH  21  22
BRANCH  20  28
ATOM     28  C   UNL     1       5.069   4.195  16.088  0.00  0.00    +0.000 C 
ATOM     29  C   UNL     1       6.486   4.000  15.597  0.00  0.00    +0.000 C 
ATOM     30  C   UNL     1       5.421   4.383  14.623  0.00  0.00    +0.000 C 
ENDBRANCH  20  28
ENDBRANCH  16  17
ENDBRANCH   1  16
TORSDOF 5
ENDMDL
MODEL 4
REMARK VINA RESULT:      -8.3      1.140      1.549
REMARK  Name = 
REMARK  5 active torsions:
REMARK  status: ('A' for Active; 'I' for Inactive)
REMARK    1  A    between atoms: C_2  and  C_3
REMARK    2  A    between atoms: C_3  and  S_4
REMARK    3  A    between atoms: S_4  and  C_5
REMARK    4  A    between atoms: C_8  and  C_9
REMARK    5  A    between atoms: N_12  and  C_13
REMARK                            x       y       z     vdW  Elec       q    Type
REMARK                         _______ _______ _______ _____ _____    ______ ____
ROOT
ATOM      1  C   UNL     1       1.694   8.332  17.494  0.00  0.00    +0.000 C 
ENDROOT
BRANCH   1   3
ATOM      2  O   UNL     1       1.621  10.017  19.177  0.00  0.00    +0.000 OA
ATOM      3  C   UNL     1       1.072   9.493  18.205  0.00  0.00    +0.000 C 
ATOM      4  N   UNL     1      -0.162   9.876  17.674  0.00  0.00    +0.000 N 
ATOM      5  C   UNL     1      -1.018  10.820  18.172  0.00  0.00    +0.000 A 
ATOM      6  N   UNL     1      -2.156  11.059  17.581  0.00  0.00    +0.000 NA
ATOM      7  C   UNL     1      -2.967  11.728  18.436  0.00  0.00    +0.000 A 
ATOM      8  C   UNL     1      -4.337  12.015  18.269  0.00  0.00    +0.000 A 
ATOM      9  C   UNL     1      -5.126  12.093  19.412  0.00  0.00    +0.000 A 
ATOM     10  C   UNL     1      -4.537  12.510  20.585  0.00  0.00    +0.000 A 
ATOM     11  F   UNL     1      -5.310  12.713  21.656  0.00  0.00    +0.000 F 
ATOM     12  C   UNL     1      -3.156  12.689  20.696  0.00  0.00    +0.000 A 
ATOM     13  C   UNL     1      -2.399  12.106  19.669  0.00  0.00    +0.000 A 
ATOM     14  S   UNL     1      -0.730  11.693  19.611  0.00  0.00    +0.000 S 
ATOM     15  H   UNL     1      -0.554   9.331  16.911  0.00  0.00    +0.000 HD
ENDBRANCH   1   3
BRANCH   1  16
ATOM     16  S   UNL     1       2.618   7.244  18.621  0.00  0.00    +0.000 S 
BRANCH  16  17
ATOM     17  C   UNL     1       3.984   6.736  17.673  0.00  0.00    +0.000 A 
ATOM     18  N   UNL     1       4.851   7.579  17.155  0.00  0.00    +0.000 NA
ATOM     19  N   UNL     1       5.849   6.843  16.571  0.00  0.00    +0.000 NA
ATOM     20  C   UNL     1       5.523   5.572  16.653  0.00  0.00    +0.000 A 
ATOM     21  N   UNL     1       4.391   5.435  17.464  0.00  0.00    +0.000 N 
BRANCH  21  22
ATOM     22  C   UNL     1       3.870   4.204  17.965  0.00  0.00    +0.000 A 
ATOM     23  C   UNL     1       2.847   3.540  17.270  0.00  0.00    +0.000 A 
ATOM     24  C   UNL     1       2.374   2.309  17.734  0.00  0.00    +0.000 A 
ATOM     25  C   UNL     1       2.913   1.733  18.883  0.00  0.00    +0.000 A 
ATOM     26  C   UNL     1       3.918   2.395  19.582  0.00  0.00    +0.000 A 
ATOM     27  C   UNL     1       4.389   3.627  19.130  0.00  0.00    +0.000 A 
ENDBRANCH  21  22
BRANCH  20  28
ATOM     28  C   UNL     1       6.186   4.476  15.818  0.00  0.00    +0.000 C 
ATOM     29  C   UNL     1       6.930   4.794  14.540  0.00  0.00    +0.000 C 
ATOM     30  C   UNL     1       5.571   4.180  14.461  0.00  0.00    +0.000 C 
ENDBRANCH  20  28
ENDBRANCH  16  17
ENDBRANCH   1  16
TORSDOF 5
ENDMDL
MODEL 5
REMARK VINA RESULT:      -8.2      1.735      3.240
REMARK  Name = 
REMARK  5 active torsions:
REMARK  status: ('A' for Active; 'I' for Inactive)
REMARK    1  A    between atoms: C_2  and  C_3
REMARK    2  A    between atoms: C_3  and  S_4
REMARK    3  A    between atoms: S_4  and  C_5
REMARK    4  A    between atoms: C_8  and  C_9
REMARK    5  A    between atoms: N_12  and  C_13
REMARK                            x       y       z     vdW  Elec       q    Type
REMARK                         _______ _______ _______ _____ _____    ______ ____
ROOT
ATOM      1  C   UNL     1       1.874   8.095  19.928  0.00  0.00    +0.000 C 
ENDROOT
BRANCH   1   3
ATOM      2  O   UNL     1       1.003   9.994  21.072  0.00  0.00    +0.000 OA
ATOM      3  C   UNL     1       0.993   9.298  20.054  0.00  0.00    +0.000 C 
ATOM      4  N   UNL     1       0.176   9.512  18.941  0.00  0.00    +0.000 N 
ATOM      5  C   UNL     1      -0.807  10.454  18.806  0.00  0.00    +0.000 A 
ATOM      6  N   UNL     1      -1.511  10.523  17.710  0.00  0.00    +0.000 NA
ATOM      7  C   UNL     1      -2.632  11.248  17.950  0.00  0.00    +0.000 A 
ATOM      8  C   UNL     1      -3.744  11.409  17.100  0.00  0.00    +0.000 A 
ATOM      9  C   UNL     1      -4.989  11.594  17.692  0.00  0.00    +0.000 A 
ATOM     10  C   UNL     1      -5.042  12.216  18.920  0.00  0.00    +0.000 A 
ATOM     11  F   UNL     1      -6.238  12.514  19.438  0.00  0.00    +0.000 F 
ATOM     12  C   UNL     1      -3.890  12.507  19.651  0.00  0.00    +0.000 A 
ATOM     13  C   UNL     1      -2.733  11.839  19.225  0.00  0.00    +0.000 A 
ATOM     14  S   UNL     1      -1.249  11.543  20.045  0.00  0.00    +0.000 S 
ATOM     15  H   UNL     1       0.202   8.837  18.182  0.00  0.00    +0.000 HD
ENDBRANCH   1   3
BRANCH   1  16
ATOM     16  S   UNL     1       2.498   7.868  18.235  0.00  0.00    +0.000 S 
BRANCH  16  17
ATOM     17  C   UNL     1       2.611   6.141  18.068  0.00  0.00    +0.000 A 
ATOM     18  N   UNL     1       1.577   5.378  17.783  0.00  0.00    +0.000 NA
ATOM     19  N   UNL     1       2.038   4.098  17.617  0.00  0.00    +0.000 NA
ATOM     20  C   UNL     1       3.321   4.084  17.902  0.00  0.00    +0.000 A 
ATOM     21  N   UNL     1       3.773   5.397  18.078  0.00  0.00    +0.000 N 
BRANCH  21  22
ATOM     22  C   UNL     1       5.137   5.802  18.181  0.00  0.00    +0.000 A 
ATOM     23  C   UNL     1       5.917   5.372  19.266  0.00  0.00    +0.000 A 
ATOM     24  C   UNL     1       7.268   5.726  19.338  0.00  0.00    +0.000 A 
ATOM     25  C   UNL     1       7.848   6.504  18.337  0.00  0.00    +0.000 A 
ATOM     26  C   UNL     1       7.075   6.943  17.266  0.00  0.00    +0.000 A 
ATOM     27  C   UNL     1       5.725   6.600  17.192  0.00  0.00    +0.000 A 
ENDBRANCH  21  22
BRANCH  20  28
ATOM     28  C   UNL     1       4.109   2.803  18.181  0.00  0.00    +0.000 C 
ATOM     29  C   UNL     1       3.413   1.498  18.498  0.00  0.00    +0.000 C 
ATOM     30  C   UNL     1       4.065   2.266  19.601  0.00  0.00    +0.000 C 
ENDBRANCH  20  28
ENDBRANCH  16  17
ENDBRANCH   1  16
TORSDOF 5
ENDMDL
MODEL 6
REMARK VINA RESULT:      -8.2      3.667      4.052
REMARK  Name = 
REMARK  5 active torsions:
REMARK  status: ('A' for Active; 'I' for Inactive)
REMARK    1  A    between atoms: C_2  and  C_3
REMARK    2  A    between atoms: C_3  and  S_4
REMARK    3  A    between atoms: S_4  and  C_5
REMARK    4  A    between atoms: C_8  and  C_9
REMARK    5  A    between atoms: N_12  and  C_13
REMARK                            x       y       z     vdW  Elec       q    Type
REMARK                         _______ _______ _______ _____ _____    ______ ____
ROOT
ATOM      1  C   UNL     1       1.862   8.528  17.594  0.00  0.00    +0.000 C 
ENDROOT
BRANCH   1   3
ATOM      2  O   UNL     1       0.684   9.618  19.355  0.00  0.00    +0.000 OA
ATOM      3  C   UNL     1       1.527   9.703  18.459  0.00  0.00    +0.000 C 
ATOM      4  N   UNL     1       2.233  10.861  18.125  0.00  0.00    +0.000 N 
ATOM      5  C   UNL     1       2.065  12.112  18.653  0.00  0.00    +0.000 A 
ATOM      6  N   UNL     1       2.785  13.112  18.227  0.00  0.00    +0.000 NA
ATOM      7  C   UNL     1       2.198  14.274  18.606  0.00  0.00    +0.000 A 
ATOM      8  C   UNL     1       2.540  15.579  18.199  0.00  0.00    +0.000 A 
ATOM      9  C   UNL     1       1.521  16.524  18.132  0.00  0.00    +0.000 A 
ATOM     10  C   UNL     1       0.454  16.395  18.993  0.00  0.00    +0.000 A 
ATOM     11  F   UNL     1      -0.465  17.365  19.027  0.00  0.00    +0.000 F 
ATOM     12  C   UNL     1       0.286  15.267  19.799  0.00  0.00    +0.000 A 
ATOM     13  C   UNL     1       1.064  14.158  19.435  0.00  0.00    +0.000 A 
ATOM     14  S   UNL     1       0.883  12.492  19.825  0.00  0.00    +0.000 S 
ATOM     15  H   UNL     1       2.858  10.836  17.324  0.00  0.00    +0.000 HD
ENDBRANCH   1   3
BRANCH   1  16
ATOM     16  S   UNL     1       2.598   7.160  18.538  0.00  0.00    +0.000 S 
BRANCH  16  17
ATOM     17  C   UNL     1       3.944   6.662  17.557  0.00  0.00    +0.000 A 
ATOM     18  N   UNL     1       4.787   7.510  17.010  0.00  0.00    +0.000 NA
ATOM     19  N   UNL     1       5.777   6.782  16.404  0.00  0.00    +0.000 NA
ATOM     20  C   UNL     1       5.467   5.508  16.503  0.00  0.00    +0.000 A 
ATOM     21  N   UNL     1       4.360   5.363  17.346  0.00  0.00    +0.000 N 
BRANCH  21  22
ATOM     22  C   UNL     1       3.867   4.130  17.869  0.00  0.00    +0.000 A 
ATOM     23  C   UNL     1       4.486   3.543  18.983  0.00  0.00    +0.000 A 
ATOM     24  C   UNL     1       3.970   2.363  19.527  0.00  0.00    +0.000 A 
ATOM     25  C   UNL     1       2.840   1.764  18.970  0.00  0.00    +0.000 A 
ATOM     26  C   UNL     1       2.232   2.337  17.857  0.00  0.00    +0.000 A 
ATOM     27  C   UNL     1       2.746   3.509  17.305  0.00  0.00    +0.000 A 
ENDBRANCH  21  22
BRANCH  20  28
ATOM     28  C   UNL     1       6.120   4.414  15.657  0.00  0.00    +0.000 C 
ATOM     29  C   UNL     1       6.979   4.746  14.456  0.00  0.00    +0.000 C 
ATOM     30  C   UNL     1       5.592   4.231  14.245  0.00  0.00    +0.000 C 
ENDBRANCH  20  28
ENDBRANCH  16  17
ENDBRANCH   1  16
TORSDOF 5
ENDMDL
MODEL 7
REMARK VINA RESULT:      -8.2      3.067      4.331
REMARK  Name = 
REMARK  5 active torsions:
REMARK  status: ('A' for Active; 'I' for Inactive)
REMARK    1  A    between atoms: C_2  and  C_3
REMARK    2  A    between atoms: C_3  and  S_4
REMARK    3  A    between atoms: S_4  and  C_5
REMARK    4  A    between atoms: C_8  and  C_9
REMARK    5  A    between atoms: N_12  and  C_13
REMARK                            x       y       z     vdW  Elec       q    Type
REMARK                         _______ _______ _______ _____ _____    ______ ____
ROOT
ATOM      1  C   UNL     1       2.309   7.083  19.117  0.00  0.00    +0.000 C 
ENDROOT
BRANCH   1   3
ATOM      2  O   UNL     1       1.594   7.356  21.373  0.00  0.00    +0.000 OA
ATOM      3  C   UNL     1       1.738   7.864  20.259  0.00  0.00    +0.000 C 
ATOM      4  N   UNL     1       1.381   9.171  19.918  0.00  0.00    +0.000 N 
ATOM      5  C   UNL     1       0.736  10.085  20.707  0.00  0.00    +0.000 A 
ATOM      6  N   UNL     1       0.444  11.269  20.246  0.00  0.00    +0.000 NA
ATOM      7  C   UNL     1      -0.494  11.835  21.044  0.00  0.00    +0.000 A 
ATOM      8  C   UNL     1      -1.219  13.020  20.805  0.00  0.00    +0.000 A 
ATOM      9  C   UNL     1      -2.507  13.107  21.322  0.00  0.00    +0.000 A 
ATOM     10  C   UNL     1      -2.793  12.421  22.481  0.00  0.00    +0.000 A 
ATOM     11  F   UNL     1      -3.986  12.599  23.056  0.00  0.00    +0.000 F 
ATOM     12  C   UNL     1      -1.890  11.519  23.049  0.00  0.00    +0.000 A 
ATOM     13  C   UNL     1      -0.846  11.114  22.203  0.00  0.00    +0.000 A 
ATOM     14  S   UNL     1       0.197   9.749  22.293  0.00  0.00    +0.000 S 
ATOM     15  H   UNL     1       1.483   9.468  18.951  0.00  0.00    +0.000 HD
ENDBRANCH   1   3
BRANCH   1  16
ATOM     16  S   UNL     1       3.286   5.655  19.674  0.00  0.00    +0.000 S 
BRANCH  16  17
ATOM     17  C   UNL     1       3.738   4.865  18.193  0.00  0.00    +0.000 A 
ATOM     18  N   UNL     1       2.906   4.129  17.489  0.00  0.00    +0.000 NA
ATOM     19  N   UNL     1       3.552   3.754  16.339  0.00  0.00    +0.000 NA
ATOM     20  C   UNL     1       4.793   4.181  16.409  0.00  0.00    +0.000 A 
ATOM     21  N   UNL     1       4.937   5.012  17.526  0.00  0.00    +0.000 N 
BRANCH  21  22
ATOM     22  C   UNL     1       6.068   5.834  17.813  0.00  0.00    +0.000 A 
ATOM     23  C   UNL     1       6.217   7.073  17.170  0.00  0.00    +0.000 A 
ATOM     24  C   UNL     1       7.297   7.901  17.491  0.00  0.00    +0.000 A 
ATOM     25  C   UNL     1       8.230   7.503  18.448  0.00  0.00    +0.000 A 
ATOM     26  C   UNL     1       8.093   6.270  19.078  0.00  0.00    +0.000 A 
ATOM     27  C   UNL     1       7.022   5.436  18.757  0.00  0.00    +0.000 A 
ENDBRANCH  21  22
BRANCH  20  28
ATOM     28  C   UNL     1       5.914   3.667  15.504  0.00  0.00    +0.000 C 
ATOM     29  C   UNL     1       6.908   4.607  14.859  0.00  0.00    +0.000 C 
ATOM     30  C   UNL     1       5.818   4.012  14.029  0.00  0.00    +0.000 C 
ENDBRANCH  20  28
ENDBRANCH  16  17
ENDBRANCH   1  16
TORSDOF 5
ENDMDL
MODEL 8
REMARK VINA RESULT:      -8.1      2.468      3.004
REMARK  Name = 
REMARK  5 active torsions:
REMARK  status: ('A' for Active; 'I' for Inactive)
REMARK    1  A    between atoms: C_2  and  C_3
REMARK    2  A    between atoms: C_3  and  S_4
REMARK    3  A    between atoms: S_4  and  C_5
REMARK    4  A    between atoms: C_8  and  C_9
REMARK    5  A    between atoms: N_12  and  C_13
REMARK                            x       y       z     vdW  Elec       q    Type
REMARK                         _______ _______ _______ _____ _____    ______ ____
ROOT
ATOM      1  C   UNL     1       2.509   8.890  17.969  0.00  0.00    +0.000 C 
ENDROOT
BRANCH   1   3
ATOM      2  O   UNL     1       0.304   9.631  17.451  0.00  0.00    +0.000 OA
ATOM      3  C   UNL     1       1.162   9.444  18.316  0.00  0.00    +0.000 C 
ATOM      4  N   UNL     1       1.012   9.734  19.675  0.00  0.00    +0.000 N 
ATOM      5  C   UNL     1      -0.053  10.349  20.276  0.00  0.00    +0.000 A 
ATOM      6  N   UNL     1      -0.046  10.579  21.559  0.00  0.00    +0.000 NA
ATOM      7  C   UNL     1      -0.995  11.503  21.848  0.00  0.00    +0.000 A 
ATOM      8  C   UNL     1      -1.197  12.167  23.075  0.00  0.00    +0.000 A 
ATOM      9  C   UNL     1      -1.712  13.459  23.034  0.00  0.00    +0.000 A 
ATOM     10  C   UNL     1      -2.548  13.796  21.993  0.00  0.00    +0.000 A 
ATOM     11  F   UNL     1      -3.150  14.989  22.013  0.00  0.00    +0.000 F 
ATOM     12  C   UNL     1      -2.754  12.945  20.905  0.00  0.00    +0.000 A 
ATOM     13  C   UNL     1      -1.819  11.908  20.779  0.00  0.00    +0.000 A 
ATOM     14  S   UNL     1      -1.413  10.931  19.422  0.00  0.00    +0.000 S 
ATOM     15  H   UNL     1       1.809   9.602  20.292  0.00  0.00    +0.000 HD
ENDBRANCH   1   3
BRANCH   1  16
ATOM     16  S   UNL     1       2.651   7.120  18.356  0.00  0.00    +0.000 S 
BRANCH  16  17
ATOM     17  C   UNL     1       4.035   6.609  17.436  0.00  0.00    +0.000 A 
ATOM     18  N   UNL     1       4.887   7.451  16.893  0.00  0.00    +0.000 NA
ATOM     19  N   UNL     1       5.905   6.717  16.342  0.00  0.00    +0.000 NA
ATOM     20  C   UNL     1       5.606   5.442  16.469  0.00  0.00    +0.000 A 
ATOM     21  N   UNL     1       4.472   5.310  17.278  0.00  0.00    +0.000 N 
BRANCH  21  22
ATOM     22  C   UNL     1       3.974   4.087  17.820  0.00  0.00    +0.000 A 
ATOM     23  C   UNL     1       4.569   3.534  18.965  0.00  0.00    +0.000 A 
ATOM     24  C   UNL     1       4.047   2.365  19.527  0.00  0.00    +0.000 A 
ATOM     25  C   UNL     1       2.937   1.743  18.957  0.00  0.00    +0.000 A 
ATOM     26  C   UNL     1       2.353   2.281  17.814  0.00  0.00    +0.000 A 
ATOM     27  C   UNL     1       2.873   3.443  17.244  0.00  0.00    +0.000 A 
ENDBRANCH  21  22
BRANCH  20  28
ATOM     28  C   UNL     1       6.299   4.332  15.678  0.00  0.00    +0.000 C 
ATOM     29  C   UNL     1       7.084   4.626  14.419  0.00  0.00    +0.000 C 
ATOM     30  C   UNL     1       5.729   4.006  14.309  0.00  0.00    +0.000 C 
ENDBRANCH  20  28
ENDBRANCH  16  17
ENDBRANCH   1  16
TORSDOF 5
ENDMDL
MODEL 9
REMARK VINA RESULT:      -8.0      4.029      9.353
REMARK  Name = 
REMARK  5 active torsions:
REMARK  status: ('A' for Active; 'I' for Inactive)
REMARK    1  A    between atoms: C_2  and  C_3
REMARK    2  A    between atoms: C_3  and  S_4
REMARK    3  A    between atoms: S_4  and  C_5
REMARK    4  A    between atoms: C_8  and  C_9
REMARK    5  A    between atoms: N_12  and  C_13
REMARK                            x       y       z     vdW  Elec       q    Type
REMARK                         _______ _______ _______ _____ _____    ______ ____
ROOT
ATOM      1  C   UNL     1       1.253   8.500  21.783  0.00  0.00    +0.000 C 
ENDROOT
BRANCH   1   3
ATOM      2  O   UNL     1       1.200   6.234  21.051  0.00  0.00    +0.000 OA
ATOM      3  C   UNL     1       1.535   7.396  20.812  0.00  0.00    +0.000 C 
ATOM      4  N   UNL     1       2.216   7.820  19.668  0.00  0.00    +0.000 N 
ATOM      5  C   UNL     1       2.710   7.034  18.662  0.00  0.00    +0.000 A 
ATOM      6  N   UNL     1       3.349   7.568  17.659  0.00  0.00    +0.000 NA
ATOM      7  C   UNL     1       4.049   6.601  17.015  0.00  0.00    +0.000 A 
ATOM      8  C   UNL     1       5.012   6.773  16.002  0.00  0.00    +0.000 A 
ATOM      9  C   UNL     1       6.043   5.842  15.924  0.00  0.00    +0.000 A 
ATOM     10  C   UNL     1       5.791   4.553  16.337  0.00  0.00    +0.000 A 
ATOM     11  F   UNL     1       6.731   3.622  16.148  0.00  0.00    +0.000 F 
ATOM     12  C   UNL     1       4.603   4.201  16.980  0.00  0.00    +0.000 A 
ATOM     13  C   UNL     1       3.852   5.281  17.469  0.00  0.00    +0.000 A 
ATOM     14  S   UNL     1       2.611   5.329  18.660  0.00  0.00    +0.000 S 
ATOM     15  H   UNL     1       2.502   8.793  19.604  0.00  0.00    +0.000 HD
ENDBRANCH   1   3
BRANCH   1  16
ATOM     16  S   UNL     1      -0.285   9.388  21.394  0.00  0.00    +0.000 S 
BRANCH  16  17
ATOM     17  C   UNL     1       0.268  10.893  20.722  0.00  0.00    +0.000 A 
ATOM     18  N   UNL     1       1.365  11.498  21.123  0.00  0.00    +0.000 NA
ATOM     19  N   UNL     1       1.559  12.588  20.315  0.00  0.00    +0.000 NA
ATOM     20  C   UNL     1       0.527  12.686  19.506  0.00  0.00    +0.000 A 
ATOM     21  N   UNL     1      -0.277  11.549  19.637  0.00  0.00    +0.000 N 
BRANCH  21  22
ATOM     22  C   UNL     1      -1.357  11.189  18.777  0.00  0.00    +0.000 A 
ATOM     23  C   UNL     1      -1.175  10.202  17.796  0.00  0.00    +0.000 A 
ATOM     24  C   UNL     1      -2.249   9.813  16.989  0.00  0.00    +0.000 A 
ATOM     25  C   UNL     1      -3.503  10.398  17.155  0.00  0.00    +0.000 A 
ATOM     26  C   UNL     1      -3.685  11.385  18.118  0.00  0.00    +0.000 A 
ATOM     27  C   UNL     1      -2.616  11.785  18.920  0.00  0.00    +0.000 A 
ENDBRANCH  21  22
BRANCH  20  28
ATOM     28  C   UNL     1       0.197  13.951  18.711  0.00  0.00    +0.000 C 
ATOM     29  C   UNL     1       0.896  15.265  18.985  0.00  0.00    +0.000 C 
ATOM     30  C   UNL     1      -0.507  15.068  19.460  0.00  0.00    +0.000 C 
ENDBRANCH  20  28
ENDBRANCH  16  17
ENDBRANCH   1  16
TORSDOF 5
ENDMDL
