MODEL 1
REMARK VINA RESULT:      -8.4      0.000      0.000
REMARK  Name = 
REMARK  3 active torsions:
REMARK  status: ('A' for Active; 'I' for Inactive)
REMARK    1  A    between atoms: C_1  and  C_2
REMARK    2  A    between atoms: C_6  and  N_7
REMARK    3  A    between atoms: C_14  and  C_15
REMARK                            x       y       z     vdW  Elec       q    Type
REMARK                         _______ _______ _______ _____ _____    ______ ____
ROOT
ATOM      1  N   UNL     1       5.493   4.971  15.902  0.00  0.00    +0.000 N 
ATOM      2  C   UNL     1       5.193   4.057  16.891  0.00  0.00    +0.000 C 
ATOM      3  O   UNL     1       5.294   2.838  16.772  0.00  0.00    +0.000 OA
ATOM      4  N   UNL     1       4.783   4.601  18.104  0.00  0.00    +0.000 N 
ATOM      5  C   UNL     1       4.748   3.713  19.267  0.00  0.00    +0.000 C 
ATOM      6  C   UNL     1       3.315   3.502  19.733  0.00  0.00    +0.000 C 
ATOM      7  C   UNL     1       2.673   4.847  20.068  0.00  0.00    +0.000 C 
ATOM      8  C   UNL     1       2.737   5.806  18.868  0.00  0.00    +0.000 C 
ATOM      9  C   UNL     1       4.170   5.923  18.304  0.00  0.00    +0.000 C 
ATOM     10  H   UNL     1       5.496   5.943  16.165  0.00  0.00    +0.000 HD
ENDROOT
BRANCH   8  11
ATOM     11  C   UNL     1       2.198   7.157  19.237  0.00  0.00    +0.000 A 
ATOM     12  N   UNL     1       2.006   8.184  18.432  0.00  0.00    +0.000 NA
ATOM     13  C   UNL     1       1.466   9.178  19.214  0.00  0.00    +0.000 A 
ATOM     14  C   UNL     1       1.045  10.469  18.867  0.00  0.00    +0.000 A 
ATOM     15  C   UNL     1       0.506  11.293  19.867  0.00  0.00    +0.000 A 
ATOM     16  C   UNL     1       0.397  10.840  21.185  0.00  0.00    +0.000 A 
ATOM     17  C   UNL     1       0.815   9.554  21.549  0.00  0.00    +0.000 A 
ATOM     18  C   UNL     1       1.340   8.753  20.532  0.00  0.00    +0.000 A 
ATOM     19  N   UNL     1       1.821   7.470  20.520  0.00  0.00    +0.000 N 
ATOM     20  H   UNL     1       1.877   6.850  21.321  0.00  0.00    +0.000 HD
ENDBRANCH   8  11
BRANCH   1  26
ATOM     21  C   UNL     1       4.840   2.813  11.485  0.00  0.00    +0.000 C 
ATOM     22  C   UNL     1       5.673   3.630  12.430  0.00  0.00    +0.000 A 
ATOM     23  C   UNL     1       6.910   4.124  12.009  0.00  0.00    +0.000 A 
ATOM     24  C   UNL     1       7.691   4.880  12.873  0.00  0.00    +0.000 A 
ATOM     25  C   UNL     1       7.246   5.152  14.165  0.00  0.00    +0.000 A 
ATOM     26  C   UNL     1       6.008   4.687  14.613  0.00  0.00    +0.000 A 
ATOM     27  C   UNL     1       5.225   3.920  13.734  0.00  0.00    +0.000 A 
ENDBRANCH   1  26
TORSDOF 2
ENDMDL
MODEL 2
REMARK VINA RESULT:      -8.2      0.305      1.199
REMARK  Name = 
REMARK  3 active torsions:
REMARK  status: ('A' for Active; 'I' for Inactive)
REMARK    1  A    between atoms: C_1  and  C_2
REMARK    2  A    between atoms: C_6  and  N_7
REMARK    3  A    between atoms: C_14  and  C_15
REMARK                            x       y       z     vdW  Elec       q    Type
REMARK                         _______ _______ _______ _____ _____    ______ ____
ROOT
ATOM      1  N   UNL     1       5.554   5.031  15.871  0.00  0.00    +0.000 N 
ATOM      2  C   UNL     1       5.244   4.121  16.860  0.00  0.00    +0.000 C 
ATOM      3  O   UNL     1       5.359   2.902  16.752  0.00  0.00    +0.000 OA
ATOM      4  N   UNL     1       4.807   4.671  18.061  0.00  0.00    +0.000 N 
ATOM      5  C   UNL     1       4.757   3.791  19.230  0.00  0.00    +0.000 C 
ATOM      6  C   UNL     1       3.319   3.570  19.671  0.00  0.00    +0.000 C 
ATOM      7  C   UNL     1       2.658   4.911  19.984  0.00  0.00    +0.000 C 
ATOM      8  C   UNL     1       2.736   5.862  18.778  0.00  0.00    +0.000 C 
ATOM      9  C   UNL     1       4.177   5.987  18.240  0.00  0.00    +0.000 C 
ATOM     10  H   UNL     1       5.543   6.004  16.126  0.00  0.00    +0.000 HD
ENDROOT
BRANCH   8  11
ATOM     11  C   UNL     1       2.177   7.210  19.126  0.00  0.00    +0.000 A 
ATOM     12  N   UNL     1       1.715   7.603  20.298  0.00  0.00    +0.000 NA
ATOM     13  C   UNL     1       1.350   8.919  20.136  0.00  0.00    +0.000 A 
ATOM     14  C   UNL     1       0.827   9.830  21.063  0.00  0.00    +0.000 A 
ATOM     15  C   UNL     1       0.551  11.139  20.640  0.00  0.00    +0.000 A 
ATOM     16  C   UNL     1       0.788  11.527  19.318  0.00  0.00    +0.000 A 
ATOM     17  C   UNL     1       1.308  10.629  18.378  0.00  0.00    +0.000 A 
ATOM     18  C   UNL     1       1.579   9.335  18.830  0.00  0.00    +0.000 A 
ATOM     19  N   UNL     1       2.095   8.229  18.207  0.00  0.00    +0.000 N 
ATOM     20  H   UNL     1       2.382   8.173  17.236  0.00  0.00    +0.000 HD
ENDBRANCH   8  11
BRANCH   1  26
ATOM     21  C   UNL     1       5.100   2.657  11.540  0.00  0.00    +0.000 C 
ATOM     22  C   UNL     1       5.858   3.577  12.452  0.00  0.00    +0.000 A 
ATOM     23  C   UNL     1       7.051   4.157  12.013  0.00  0.00    +0.000 A 
ATOM     24  C   UNL     1       7.762   5.009  12.847  0.00  0.00    +0.000 A 
ATOM     25  C   UNL     1       7.291   5.292  14.128  0.00  0.00    +0.000 A 
ATOM     26  C   UNL     1       6.096   4.741  14.593  0.00  0.00    +0.000 A 
ATOM     27  C   UNL     1       5.383   3.878  13.744  0.00  0.00    +0.000 A 
ENDBRANCH   1  26
TORSDOF 2
ENDMDL
MODEL 3
REMARK VINA RESULT:      -7.9      0.992      1.283
REMARK  Name = 
REMARK  3 active torsions:
REMARK  status: ('A' for Active; 'I' for Inactive)
REMARK    1  A    between atoms: C_1  and  C_2
REMARK    2  A    between atoms: C_6  and  N_7
REMARK    3  A    between atoms: C_14  and  C_15
REMARK                            x       y       z     vdW  Elec       q    Type
REMARK                         _______ _______ _______ _____ _____    ______ ____
ROOT
ATOM      1  N   UNL     1       5.319   5.338  15.690  0.00  0.00    +0.000 N 
ATOM      2  C   UNL     1       4.799   4.591  16.727  0.00  0.00    +0.000 C 
ATOM      3  O   UNL     1       4.716   3.365  16.734  0.00  0.00    +0.000 OA
ATOM      4  N   UNL     1       4.383   5.319  17.837  0.00  0.00    +0.000 N 
ATOM      5  C   UNL     1       4.114   4.578  19.070  0.00  0.00    +0.000 C 
ATOM      6  C   UNL     1       2.633   4.634  19.413  0.00  0.00    +0.000 C 
ATOM      7  C   UNL     1       2.186   6.088  19.556  0.00  0.00    +0.000 C 
ATOM      8  C   UNL     1       2.497   6.890  18.281  0.00  0.00    +0.000 C 
ATOM      9  C   UNL     1       3.971   6.731  17.850  0.00  0.00    +0.000 C 
ATOM     10  H   UNL     1       5.453   6.321  15.858  0.00  0.00    +0.000 HD
ENDROOT
BRANCH   8  11
ATOM     11  C   UNL     1       2.149   8.338  18.465  0.00  0.00    +0.000 A 
ATOM     12  N   UNL     1       2.593   9.360  17.759  0.00  0.00    +0.000 NA
ATOM     13  C   UNL     1       1.969  10.472  18.275  0.00  0.00    +0.000 A 
ATOM     14  C   UNL     1       2.054  11.815  17.883  0.00  0.00    +0.000 A 
ATOM     15  C   UNL     1       1.289  12.767  18.575  0.00  0.00    +0.000 A 
ATOM     16  C   UNL     1       0.464  12.387  19.637  0.00  0.00    +0.000 A 
ATOM     17  C   UNL     1       0.370  11.050  20.042  0.00  0.00    +0.000 A 
ATOM     18  C   UNL     1       1.136  10.123  19.331  0.00  0.00    +0.000 A 
ATOM     19  N   UNL     1       1.277   8.764  19.438  0.00  0.00    +0.000 N 
ATOM     20  H   UNL     1       0.806   8.169  20.111  0.00  0.00    +0.000 HD
ENDBRANCH   8  11
BRANCH   1  26
ATOM     21  C   UNL     1       4.707   2.786  11.481  0.00  0.00    +0.000 C 
ATOM     22  C   UNL     1       5.572   3.591  12.406  0.00  0.00    +0.000 A 
ATOM     23  C   UNL     1       6.895   3.868  12.051  0.00  0.00    +0.000 A 
ATOM     24  C   UNL     1       7.706   4.611  12.898  0.00  0.00    +0.000 A 
ATOM     25  C   UNL     1       7.206   5.086  14.110  0.00  0.00    +0.000 A 
ATOM     26  C   UNL     1       5.885   4.841  14.489  0.00  0.00    +0.000 A 
ATOM     27  C   UNL     1       5.071   4.087  13.627  0.00  0.00    +0.000 A 
ENDBRANCH   1  26
TORSDOF 2
ENDMDL
MODEL 4
REMARK VINA RESULT:      -7.9      2.069      8.415
REMARK  Name = 
REMARK  3 active torsions:
REMARK  status: ('A' for Active; 'I' for Inactive)
REMARK    1  A    between atoms: C_1  and  C_2
REMARK    2  A    between atoms: C_6  and  N_7
REMARK    3  A    between atoms: C_14  and  C_15
REMARK                            x       y       z     vdW  Elec       q    Type
REMARK                         _______ _______ _______ _____ _____    ______ ____
ROOT
ATOM      1  N   UNL     1       1.876   8.510  18.029  0.00  0.00    +0.000 N 
ATOM      2  C   UNL     1       2.275   7.626  19.009  0.00  0.00    +0.000 C 
ATOM      3  O   UNL     1       2.164   7.822  20.217  0.00  0.00    +0.000 OA
ATOM      4  N   UNL     1       2.806   6.424  18.550  0.00  0.00    +0.000 N 
ATOM      5  C   UNL     1       2.960   5.338  19.520  0.00  0.00    +0.000 C 
ATOM      6  C   UNL     1       4.433   5.036  19.751  0.00  0.00    +0.000 C 
ATOM      7  C   UNL     1       5.104   4.671  18.429  0.00  0.00    +0.000 C 
ATOM      8  C   UNL     1       4.918   5.785  17.387  0.00  0.00    +0.000 C 
ATOM      9  C   UNL     1       3.436   6.192  17.242  0.00  0.00    +0.000 C 
ATOM     10  H   UNL     1       1.899   8.178  17.078  0.00  0.00    +0.000 HD
ENDROOT
BRANCH   8  11
ATOM     11  C   UNL     1       5.491   5.377  16.062  0.00  0.00    +0.000 A 
ATOM     12  N   UNL     1       6.589   5.836  15.493  0.00  0.00    +0.000 NA
ATOM     13  C   UNL     1       6.721   5.140  14.315  0.00  0.00    +0.000 A 
ATOM     14  C   UNL     1       7.722   5.207  13.336  0.00  0.00    +0.000 A 
ATOM     15  C   UNL     1       7.628   4.363  12.218  0.00  0.00    +0.000 A 
ATOM     16  C   UNL     1       6.555   3.478  12.079  0.00  0.00    +0.000 A 
ATOM     17  C   UNL     1       5.546   3.400  13.046  0.00  0.00    +0.000 A 
ATOM     18  C   UNL     1       5.669   4.246  14.151  0.00  0.00    +0.000 A 
ATOM     19  N   UNL     1       4.898   4.423  15.270  0.00  0.00    +0.000 N 
ATOM     20  H   UNL     1       4.041   3.926  15.485  0.00  0.00    +0.000 HD
ENDBRANCH   8  11
BRANCH   1  26
ATOM     21  C   UNL     1      -2.365  11.056  18.385  0.00  0.00    +0.000 C 
ATOM     22  C   UNL     1      -0.865  11.006  18.412  0.00  0.00    +0.000 A 
ATOM     23  C   UNL     1      -0.140  12.172  18.667  0.00  0.00    +0.000 A 
ATOM     24  C   UNL     1       1.249  12.140  18.694  0.00  0.00    +0.000 A 
ATOM     25  C   UNL     1       1.927  10.944  18.467  0.00  0.00    +0.000 A 
ATOM     26  C   UNL     1       1.233   9.757  18.224  0.00  0.00    +0.000 A 
ATOM     27  C   UNL     1      -0.171   9.799  18.195  0.00  0.00    +0.000 A 
ENDBRANCH   1  26
TORSDOF 2
ENDMDL
MODEL 5
REMARK VINA RESULT:      -7.8      2.011      8.448
REMARK  Name = 
REMARK  3 active torsions:
REMARK  status: ('A' for Active; 'I' for Inactive)
REMARK    1  A    between atoms: C_1  and  C_2
REMARK    2  A    between atoms: C_6  and  N_7
REMARK    3  A    between atoms: C_14  and  C_15
REMARK                            x       y       z     vdW  Elec       q    Type
REMARK                         _______ _______ _______ _____ _____    ______ ____
ROOT
ATOM      1  N   UNL     1       1.978   8.550  18.071  0.00  0.00    +0.000 N 
ATOM      2  C   UNL     1       2.311   7.608  19.022  0.00  0.00    +0.000 C 
ATOM      3  O   UNL     1       2.182   7.760  20.235  0.00  0.00    +0.000 OA
ATOM      4  N   UNL     1       2.791   6.401  18.524  0.00  0.00    +0.000 N 
ATOM      5  C   UNL     1       2.869   5.269  19.451  0.00  0.00    +0.000 C 
ATOM      6  C   UNL     1       4.319   4.884  19.700  0.00  0.00    +0.000 C 
ATOM      7  C   UNL     1       5.001   4.539  18.378  0.00  0.00    +0.000 C 
ATOM      8  C   UNL     1       4.895   5.703  17.380  0.00  0.00    +0.000 C 
ATOM      9  C   UNL     1       3.438   6.190  17.221  0.00  0.00    +0.000 C 
ATOM     10  H   UNL     1       2.007   8.257  17.109  0.00  0.00    +0.000 HD
ENDROOT
BRANCH   8  11
ATOM     11  C   UNL     1       5.477   5.320  16.051  0.00  0.00    +0.000 A 
ATOM     12  N   UNL     1       6.579   5.790  15.499  0.00  0.00    +0.000 NA
ATOM     13  C   UNL     1       6.719   5.117  14.308  0.00  0.00    +0.000 A 
ATOM     14  C   UNL     1       7.726   5.202  13.337  0.00  0.00    +0.000 A 
ATOM     15  C   UNL     1       7.640   4.381  12.203  0.00  0.00    +0.000 A 
ATOM     16  C   UNL     1       6.568   3.499  12.039  0.00  0.00    +0.000 A 
ATOM     17  C   UNL     1       5.552   3.402  12.997  0.00  0.00    +0.000 A 
ATOM     18  C   UNL     1       5.668   4.227  14.120  0.00  0.00    +0.000 A 
ATOM     19  N   UNL     1       4.889   4.383  15.236  0.00  0.00    +0.000 N 
ATOM     20  H   UNL     1       4.030   3.882  15.436  0.00  0.00    +0.000 HD
ENDBRANCH   8  11
BRANCH   1  26
ATOM     21  C   UNL     1       2.540  13.473  18.280  0.00  0.00    +0.000 C 
ATOM     22  C   UNL     1       1.676  12.251  18.393  0.00  0.00    +0.000 A 
ATOM     23  C   UNL     1       0.316  12.390  18.684  0.00  0.00    +0.000 A 
ATOM     24  C   UNL     1      -0.494  11.268  18.793  0.00  0.00    +0.000 A 
ATOM     25  C   UNL     1       0.043   9.994  18.612  0.00  0.00    +0.000 A 
ATOM     26  C   UNL     1       1.394   9.820  18.305  0.00  0.00    +0.000 A 
ATOM     27  C   UNL     1       2.208  10.960  18.200  0.00  0.00    +0.000 A 
ENDBRANCH   1  26
TORSDOF 2
ENDMDL
MODEL 6
REMARK VINA RESULT:      -7.8      1.992      8.410
REMARK  Name = 
REMARK  3 active torsions:
REMARK  status: ('A' for Active; 'I' for Inactive)
REMARK    1  A    between atoms: C_1  and  C_2
REMARK    2  A    between atoms: C_6  and  N_7
REMARK    3  A    between atoms: C_14  and  C_15
REMARK                            x       y       z     vdW  Elec       q    Type
REMARK                         _______ _______ _______ _____ _____    ______ ____
ROOT
ATOM      1  N   UNL     1       1.960   8.479  18.121  0.00  0.00    +0.000 N 
ATOM      2  C   UNL     1       2.271   7.543  19.086  0.00  0.00    +0.000 C 
ATOM      3  O   UNL     1       2.147   7.717  20.296  0.00  0.00    +0.000 OA
ATOM      4  N   UNL     1       2.720   6.317  18.605  0.00  0.00    +0.000 N 
ATOM      5  C   UNL     1       2.771   5.198  19.549  0.00  0.00    +0.000 C 
ATOM      6  C   UNL     1       4.211   4.780  19.802  0.00  0.00    +0.000 C 
ATOM      7  C   UNL     1       4.882   4.398  18.484  0.00  0.00    +0.000 C 
ATOM      8  C   UNL     1       4.803   5.550  17.469  0.00  0.00    +0.000 C 
ATOM      9  C   UNL     1       3.359   6.071  17.304  0.00  0.00    +0.000 C 
ATOM     10  H   UNL     1       1.980   8.171  17.163  0.00  0.00    +0.000 HD
ENDROOT
BRANCH   8  11
ATOM     11  C   UNL     1       5.373   5.132  16.145  0.00  0.00    +0.000 A 
ATOM     12  N   UNL     1       4.915   4.193  15.341  0.00  0.00    +0.000 NA
ATOM     13  C   UNL     1       5.742   4.202  14.242  0.00  0.00    +0.000 A 
ATOM     14  C   UNL     1       5.696   3.430  13.073  0.00  0.00    +0.000 A 
ATOM     15  C   UNL     1       6.664   3.652  12.082  0.00  0.00    +0.000 A 
ATOM     16  C   UNL     1       7.658   4.618  12.257  0.00  0.00    +0.000 A 
ATOM     17  C   UNL     1       7.720   5.397  13.419  0.00  0.00    +0.000 A 
ATOM     18  C   UNL     1       6.739   5.159  14.386  0.00  0.00    +0.000 A 
ATOM     19  N   UNL     1       6.488   5.729  15.607  0.00  0.00    +0.000 N 
ATOM     20  H   UNL     1       7.025   6.475  16.036  0.00  0.00    +0.000 HD
ENDBRANCH   8  11
BRANCH   1  26
ATOM     21  C   UNL     1       2.646  13.389  18.260  0.00  0.00    +0.000 C 
ATOM     22  C   UNL     1       1.752  12.191  18.390  0.00  0.00    +0.000 A 
ATOM     23  C   UNL     1       0.396  12.369  18.678  0.00  0.00    +0.000 A 
ATOM     24  C   UNL     1      -0.443  11.269  18.802  0.00  0.00    +0.000 A 
ATOM     25  C   UNL     1       0.063   9.980  18.639  0.00  0.00    +0.000 A 
ATOM     26  C   UNL     1       1.409   9.767  18.336  0.00  0.00    +0.000 A 
ATOM     27  C   UNL     1       2.251  10.884  18.215  0.00  0.00    +0.000 A 
ENDBRANCH   1  26
TORSDOF 2
ENDMDL
MODEL 7
REMARK VINA RESULT:      -7.8      2.037      8.408
REMARK  Name = 
REMARK  3 active torsions:
REMARK  status: ('A' for Active; 'I' for Inactive)
REMARK    1  A    between atoms: C_1  and  C_2
REMARK    2  A    between atoms: C_6  and  N_7
REMARK    3  A    between atoms: C_14  and  C_15
REMARK                            x       y       z     vdW  Elec       q    Type
REMARK                         _______ _______ _______ _____ _____    ______ ____
ROOT
ATOM      1  N   UNL     1       1.988   8.581  18.066  0.00  0.00    +0.000 N 
ATOM      2  C   UNL     1       2.285   7.656  19.045  0.00  0.00    +0.000 C 
ATOM      3  O   UNL     1       2.155   7.847  20.252  0.00  0.00    +0.000 OA
ATOM      4  N   UNL     1       2.729   6.420  18.585  0.00  0.00    +0.000 N 
ATOM      5  C   UNL     1       2.766   5.314  19.543  0.00  0.00    +0.000 C 
ATOM      6  C   UNL     1       4.202   4.889  19.812  0.00  0.00    +0.000 C 
ATOM      7  C   UNL     1       4.879   4.485  18.504  0.00  0.00    +0.000 C 
ATOM      8  C   UNL     1       4.815   5.624  17.473  0.00  0.00    +0.000 C 
ATOM      9  C   UNL     1       3.375   6.152  17.291  0.00  0.00    +0.000 C 
ATOM     10  H   UNL     1       2.012   8.259  17.112  0.00  0.00    +0.000 HD
ENDROOT
BRANCH   8  11
ATOM     11  C   UNL     1       5.391   5.184  16.158  0.00  0.00    +0.000 A 
ATOM     12  N   UNL     1       4.922   4.248  15.356  0.00  0.00    +0.000 NA
ATOM     13  C   UNL     1       5.761   4.232  14.267  0.00  0.00    +0.000 A 
ATOM     14  C   UNL     1       5.712   3.452  13.103  0.00  0.00    +0.000 A 
ATOM     15  C   UNL     1       6.695   3.646  12.121  0.00  0.00    +0.000 A 
ATOM     16  C   UNL     1       7.707   4.594  12.300  0.00  0.00    +0.000 A 
ATOM     17  C   UNL     1       7.772   5.380  13.457  0.00  0.00    +0.000 A 
ATOM     18  C   UNL     1       6.776   5.170  14.414  0.00  0.00    +0.000 A 
ATOM     19  N   UNL     1       6.523   5.754  15.628  0.00  0.00    +0.000 N 
ATOM     20  H   UNL     1       7.071   6.492  16.058  0.00  0.00    +0.000 HD
ENDBRANCH   8  11
BRANCH   1  26
ATOM     21  C   UNL     1      -2.023  11.396  18.832  0.00  0.00    +0.000 C 
ATOM     22  C   UNL     1      -0.540  11.257  18.652  0.00  0.00    +0.000 A 
ATOM     23  C   UNL     1       0.273  12.391  18.719  0.00  0.00    +0.000 A 
ATOM     24  C   UNL     1       1.648  12.278  18.554  0.00  0.00    +0.000 A 
ATOM     25  C   UNL     1       2.225  11.031  18.319  0.00  0.00    +0.000 A 
ATOM     26  C   UNL     1       1.444   9.875  18.260  0.00  0.00    +0.000 A 
ATOM     27  C   UNL     1       0.054   9.999  18.427  0.00  0.00    +0.000 A 
ENDBRANCH   1  26
TORSDOF 2
ENDMDL
MODEL 8
REMARK VINA RESULT:      -7.8      1.013      1.187
REMARK  Name = 
REMARK  3 active torsions:
REMARK  status: ('A' for Active; 'I' for Inactive)
REMARK    1  A    between atoms: C_1  and  C_2
REMARK    2  A    between atoms: C_6  and  N_7
REMARK    3  A    between atoms: C_14  and  C_15
REMARK                            x       y       z     vdW  Elec       q    Type
REMARK                         _______ _______ _______ _____ _____    ______ ____
ROOT
ATOM      1  N   UNL     1       5.087   4.951  17.001  0.00  0.00    +0.000 N 
ATOM      2  C   UNL     1       4.531   3.972  17.798  0.00  0.00    +0.000 C 
ATOM      3  O   UNL     1       4.502   2.775  17.520  0.00  0.00    +0.000 OA
ATOM      4  N   UNL     1       4.006   4.413  19.009  0.00  0.00    +0.000 N 
ATOM      5  C   UNL     1       3.686   3.401  20.017  0.00  0.00    +0.000 C 
ATOM      6  C   UNL     1       2.184   3.336  20.248  0.00  0.00    +0.000 C 
ATOM      7  C   UNL     1       1.664   4.704  20.682  0.00  0.00    +0.000 C 
ATOM      8  C   UNL     1       2.026   5.787  19.651  0.00  0.00    +0.000 C 
ATOM      9  C   UNL     1       3.532   5.772  19.310  0.00  0.00    +0.000 C 
ATOM     10  H   UNL     1       5.165   5.873  17.399  0.00  0.00    +0.000 HD
ENDROOT
BRANCH   8  11
ATOM     11  C   UNL     1       1.602   7.143  20.132  0.00  0.00    +0.000 A 
ATOM     12  N   UNL     1       1.674   8.281  19.470  0.00  0.00    +0.000 NA
ATOM     13  C   UNL     1       1.137   9.235  20.303  0.00  0.00    +0.000 A 
ATOM     14  C   UNL     1       0.939  10.607  20.093  0.00  0.00    +0.000 A 
ATOM     15  C   UNL     1       0.346  11.365  21.114  0.00  0.00    +0.000 A 
ATOM     16  C   UNL     1      -0.036  10.768  22.318  0.00  0.00    +0.000 A 
ATOM     17  C   UNL     1       0.156   9.400  22.545  0.00  0.00    +0.000 A 
ATOM     18  C   UNL     1       0.742   8.669  21.509  0.00  0.00    +0.000 A 
ATOM     19  N   UNL     1       1.057   7.341  21.379  0.00  0.00    +0.000 N 
ATOM     20  H   UNL     1       0.903   6.622  22.077  0.00  0.00    +0.000 HD
ENDBRANCH   8  11
BRANCH   1  26
ATOM     21  C   UNL     1       4.893   3.386  12.299  0.00  0.00    +0.000 C 
ATOM     22  C   UNL     1       5.649   3.998  13.442  0.00  0.00    +0.000 A 
ATOM     23  C   UNL     1       6.974   4.401  13.257  0.00  0.00    +0.000 A 
ATOM     24  C   UNL     1       7.686   4.968  14.306  0.00  0.00    +0.000 A 
ATOM     25  C   UNL     1       7.083   5.138  15.552  0.00  0.00    +0.000 A 
ATOM     26  C   UNL     1       5.756   4.760  15.767  0.00  0.00    +0.000 A 
ATOM     27  C   UNL     1       5.044   4.185  14.701  0.00  0.00    +0.000 A 
ENDBRANCH   1  26
TORSDOF 2
ENDMDL
MODEL 9
REMARK VINA RESULT:      -7.7      0.438      1.433
REMARK  Name = 
REMARK  3 active torsions:
REMARK  status: ('A' for Active; 'I' for Inactive)
REMARK    1  A    between atoms: C_1  and  C_2
REMARK    2  A    between atoms: C_6  and  N_7
REMARK    3  A    between atoms: C_14  and  C_15
REMARK                            x       y       z     vdW  Elec       q    Type
REMARK                         _______ _______ _______ _____ _____    ______ ____
ROOT
ATOM      1  N   UNL     1       5.360   4.934  16.060  0.00  0.00    +0.000 N 
ATOM      2  C   UNL     1       5.042   3.991  17.016  0.00  0.00    +0.000 C 
ATOM      3  O   UNL     1       5.119   2.776  16.854  0.00  0.00    +0.000 OA
ATOM      4  N   UNL     1       4.642   4.501  18.247  0.00  0.00    +0.000 N 
ATOM      5  C   UNL     1       4.589   3.573  19.379  0.00  0.00    +0.000 C 
ATOM      6  C   UNL     1       3.153   3.374  19.838  0.00  0.00    +0.000 C 
ATOM      7  C   UNL     1       2.538   4.719  20.221  0.00  0.00    +0.000 C 
ATOM      8  C   UNL     1       2.621   5.718  19.055  0.00  0.00    +0.000 C 
ATOM      9  C   UNL     1       4.055   5.826  18.494  0.00  0.00    +0.000 C 
ATOM     10  H   UNL     1       5.382   5.896  16.357  0.00  0.00    +0.000 HD
ENDROOT
BRANCH   8  11
ATOM     11  C   UNL     1       2.108   7.065  19.471  0.00  0.00    +0.000 A 
ATOM     12  N   UNL     1       1.954   8.129  18.707  0.00  0.00    +0.000 NA
ATOM     13  C   UNL     1       1.426   9.103  19.522  0.00  0.00    +0.000 A 
ATOM     14  C   UNL     1       1.041  10.418  19.222  0.00  0.00    +0.000 A 
ATOM     15  C   UNL     1       0.506  11.213  20.247  0.00  0.00    +0.000 A 
ATOM     16  C   UNL     1       0.365  10.708  21.543  0.00  0.00    +0.000 A 
ATOM     17  C   UNL     1       0.746   9.399  21.860  0.00  0.00    +0.000 A 
ATOM     18  C   UNL     1       1.269   8.628  20.818  0.00  0.00    +0.000 A 
ATOM     19  N   UNL     1       1.718   7.335  20.761  0.00  0.00    +0.000 N 
ATOM     20  H   UNL     1       1.747   6.681  21.536  0.00  0.00    +0.000 HD
ENDBRANCH   8  11
BRANCH   1  26
ATOM     21  C   UNL     1       8.820   5.883  12.635  0.00  0.00    +0.000 C 
ATOM     22  C   UNL     1       7.589   5.149  13.080  0.00  0.00    +0.000 A 
ATOM     23  C   UNL     1       6.998   4.212  12.228  0.00  0.00    +0.000 A 
ATOM     24  C   UNL     1       5.858   3.525  12.627  0.00  0.00    +0.000 A 
ATOM     25  C   UNL     1       5.296   3.767  13.880  0.00  0.00    +0.000 A 
ATOM     26  C   UNL     1       5.869   4.685  14.761  0.00  0.00    +0.000 A 
ATOM     27  C   UNL     1       7.021   5.377  14.350  0.00  0.00    +0.000 A 
ENDBRANCH   1  26
TORSDOF 2
ENDMDL
