MODEL 1
REMARK VINA RESULT:      -9.5      0.000      0.000
REMARK  Name = 
REMARK  5 active torsions:
REMARK  status: ('A' for Active; 'I' for Inactive)
REMARK    1  A    between atoms: C_1  and  C_2
REMARK    2  A    between atoms: C_5  and  C_6
REMARK    3  A    between atoms: C_8  and  C_9
REMARK    4  A    between atoms: C_15  and  C_16
REMARK    5  A    between atoms: C_27  and  C_28
REMARK                            x       y       z     vdW  Elec       q    Type
REMARK                         _______ _______ _______ _____ _____    ______ ____
ROOT
ATOM      1  C   UNL     1       4.485   5.117  17.400  0.00  0.00    +0.000 A 
ATOM      2  C   UNL     1       3.770   6.272  17.679  0.00  0.00    +0.000 A 
ATOM      3  C   UNL     1       2.967   6.341  18.831  0.00  0.00    +0.000 A 
ATOM      4  C   UNL     1       2.845   5.210  19.676  0.00  0.00    +0.000 A 
ATOM      5  C   UNL     1       2.005   5.088  20.817  0.00  0.00    +0.000 A 
ATOM      6  C   UNL     1       1.957   3.903  21.557  0.00  0.00    +0.000 A 
ATOM      7  C   UNL     1       2.719   2.812  21.165  0.00  0.00    +0.000 A 
ATOM      8  C   UNL     1       3.532   2.917  20.041  0.00  0.00    +0.000 A 
ATOM      9  C   UNL     1       3.612   4.087  19.301  0.00  0.00    +0.000 A 
ATOM     10  N   UNL     1       4.420   4.058  18.233  0.00  0.00    +0.000 NA
ENDROOT
BRANCH   3  11
ATOM     11  C   UNL     1       2.249   7.638  19.004  0.00  0.00    +0.000 C 
ATOM     12  O   UNL     1       2.446   8.492  18.143  0.00  0.00    +0.000 OA
ATOM     13  N   UNL     1       1.511   7.803  20.159  0.00  0.00    +0.000 N 
ATOM     14  C   UNL     1       0.909   9.006  20.446  0.00  0.00    +0.000 A 
ATOM     15  N   UNL     1       0.800  10.070  19.697  0.00  0.00    +0.000 NA
ATOM     16  C   UNL     1       0.189  11.082  20.407  0.00  0.00    +0.000 A 
ATOM     17  C   UNL     1      -0.171  10.775  21.705  0.00  0.00    +0.000 A 
ATOM     18  S   UNL     1       0.234   9.128  22.016  0.00  0.00    +0.000 S 
ATOM     19  H   UNL     1       1.499   7.098  20.879  0.00  0.00    +0.000 HD
BRANCH  17  20
ATOM     20  C   UNL     1      -0.787  11.659  22.669  0.00  0.00    +0.000 C 
ATOM     21  N   UNL     1      -1.896  11.205  23.321  0.00  0.00    +0.000 N 
ATOM     22  O   UNL     1      -0.350  12.778  22.944  0.00  0.00    +0.000 OA
ATOM     23  H   UNL     1      -2.277  10.281  23.181  0.00  0.00    +0.000 HD
ATOM     24  H   UNL     1      -2.298  11.802  24.029  0.00  0.00    +0.000 HD
ENDBRANCH  17  20
ENDBRANCH   3  11
BRANCH   1  29
ATOM     25  C   UNL     1       7.767   4.629  12.594  0.00  0.00    +0.000 C 
ATOM     26  C   UNL     1       6.943   4.724  13.843  0.00  0.00    +0.000 A 
ATOM     27  C   UNL     1       5.680   4.150  13.920  0.00  0.00    +0.000 A 
ATOM     28  C   UNL     1       4.914   4.283  15.083  0.00  0.00    +0.000 A 
ATOM     29  C   UNL     1       5.381   4.977  16.223  0.00  0.00    +0.000 A 
ATOM     30  C   UNL     1       6.689   5.520  16.152  0.00  0.00    +0.000 A 
ATOM     31  C   UNL     1       7.369   6.256  17.281  0.00  0.00    +0.000 C 
ATOM     32  C   UNL     1       7.436   5.405  14.959  0.00  0.00    +0.000 A 
ENDBRANCH   1  29
TORSDOF 3
ENDMDL
MODEL 2
REMARK VINA RESULT:      -9.3      1.717      2.017
REMARK  Name = 
REMARK  5 active torsions:
REMARK  status: ('A' for Active; 'I' for Inactive)
REMARK    1  A    between atoms: C_1  and  C_2
REMARK    2  A    between atoms: C_5  and  C_6
REMARK    3  A    between atoms: C_8  and  C_9
REMARK    4  A    between atoms: C_15  and  C_16
REMARK    5  A    between atoms: C_27  and  C_28
REMARK                            x       y       z     vdW  Elec       q    Type
REMARK                         _______ _______ _______ _____ _____    ______ ____
ROOT
ATOM      1  C   UNL     1       4.218   4.873  17.589  0.00  0.00    +0.000 A 
ATOM      2  C   UNL     1       3.672   6.017  18.150  0.00  0.00    +0.000 A 
ATOM      3  C   UNL     1       2.762   5.912  19.216  0.00  0.00    +0.000 A 
ATOM      4  C   UNL     1       2.362   4.634  19.681  0.00  0.00    +0.000 A 
ATOM      5  C   UNL     1       1.387   4.359  20.678  0.00  0.00    +0.000 A 
ATOM      6  C   UNL     1       1.063   3.045  21.031  0.00  0.00    +0.000 A 
ATOM      7  C   UNL     1       1.679   1.985  20.385  0.00  0.00    +0.000 A 
ATOM      8  C   UNL     1       2.623   2.244  19.396  0.00  0.00    +0.000 A 
ATOM      9  C   UNL     1       2.977   3.537  19.041  0.00  0.00    +0.000 A 
ATOM     10  N   UNL     1       3.888   3.655  18.067  0.00  0.00    +0.000 NA
ENDROOT
BRANCH   3  11
ATOM     11  C   UNL     1       2.247   7.221  19.718  0.00  0.00    +0.000 C 
ATOM     12  O   UNL     1       2.183   7.351  20.938  0.00  0.00    +0.000 OA
ATOM     13  N   UNL     1       1.797   8.124  18.778  0.00  0.00    +0.000 N 
ATOM     14  C   UNL     1       1.208   9.308  19.162  0.00  0.00    +0.000 A 
ATOM     15  N   UNL     1       1.104   9.823  20.358  0.00  0.00    +0.000 NA
ATOM     16  C   UNL     1       0.367  10.988  20.302  0.00  0.00    +0.000 A 
ATOM     17  C   UNL     1      -0.084  11.356  19.049  0.00  0.00    +0.000 A 
ATOM     18  S   UNL     1       0.491  10.210  17.896  0.00  0.00    +0.000 S 
ATOM     19  H   UNL     1       1.767   7.893  17.798  0.00  0.00    +0.000 HD
BRANCH  17  20
ATOM     20  C   UNL     1      -0.903  12.502  18.722  0.00  0.00    +0.000 C 
ATOM     21  N   UNL     1      -1.234  12.685  17.411  0.00  0.00    +0.000 N 
ATOM     22  O   UNL     1      -1.331  13.297  19.561  0.00  0.00    +0.000 OA
ATOM     23  H   UNL     1      -0.959  12.046  16.680  0.00  0.00    +0.000 HD
ATOM     24  H   UNL     1      -1.844  13.457  17.187  0.00  0.00    +0.000 HD
ENDBRANCH  17  20
ENDBRANCH   3  11
BRANCH   1  29
ATOM     25  C   UNL     1       7.893   5.068  13.054  0.00  0.00    +0.000 C 
ATOM     26  C   UNL     1       6.967   4.987  14.231  0.00  0.00    +0.000 A 
ATOM     27  C   UNL     1       5.709   4.407  14.120  0.00  0.00    +0.000 A 
ATOM     28  C   UNL     1       4.848   4.375  15.222  0.00  0.00    +0.000 A 
ATOM     29  C   UNL     1       5.210   4.901  16.484  0.00  0.00    +0.000 A 
ATOM     30  C   UNL     1       6.514   5.448  16.600  0.00  0.00    +0.000 A 
ATOM     31  C   UNL     1       7.089   6.017  17.874  0.00  0.00    +0.000 C 
ATOM     32  C   UNL     1       7.358   5.503  15.468  0.00  0.00    +0.000 A 
ENDBRANCH   1  29
TORSDOF 3
ENDMDL
MODEL 3
REMARK VINA RESULT:      -9.2      3.302      8.679
REMARK  Name = 
REMARK  5 active torsions:
REMARK  status: ('A' for Active; 'I' for Inactive)
REMARK    1  A    between atoms: C_1  and  C_2
REMARK    2  A    between atoms: C_5  and  C_6
REMARK    3  A    between atoms: C_8  and  C_9
REMARK    4  A    between atoms: C_15  and  C_16
REMARK    5  A    between atoms: C_27  and  C_28
REMARK                            x       y       z     vdW  Elec       q    Type
REMARK                         _______ _______ _______ _____ _____    ______ ____
ROOT
ATOM      1  C   UNL     1       2.116   7.111  20.045  0.00  0.00    +0.000 A 
ATOM      2  C   UNL     1       3.106   6.983  19.083  0.00  0.00    +0.000 A 
ATOM      3  C   UNL     1       3.721   5.738  18.867  0.00  0.00    +0.000 A 
ATOM      4  C   UNL     1       3.367   4.626  19.670  0.00  0.00    +0.000 A 
ATOM      5  C   UNL     1       3.958   3.333  19.642  0.00  0.00    +0.000 A 
ATOM      6  C   UNL     1       3.532   2.322  20.509  0.00  0.00    +0.000 A 
ATOM      7  C   UNL     1       2.533   2.583  21.434  0.00  0.00    +0.000 A 
ATOM      8  C   UNL     1       1.959   3.849  21.481  0.00  0.00    +0.000 A 
ATOM      9  C   UNL     1       2.350   4.863  20.620  0.00  0.00    +0.000 A 
ATOM     10  N   UNL     1       1.731   6.041  20.772  0.00  0.00    +0.000 NA
ENDROOT
BRANCH   3  11
ATOM     11  C   UNL     1       4.774   5.746  17.808  0.00  0.00    +0.000 C 
ATOM     12  O   UNL     1       5.554   6.695  17.820  0.00  0.00    +0.000 OA
ATOM     13  N   UNL     1       4.719   4.750  16.855  0.00  0.00    +0.000 N 
ATOM     14  C   UNL     1       5.584   4.748  15.785  0.00  0.00    +0.000 A 
ATOM     15  N   UNL     1       6.615   5.519  15.560  0.00  0.00    +0.000 NA
ATOM     16  C   UNL     1       7.157   5.226  14.327  0.00  0.00    +0.000 A 
ATOM     17  C   UNL     1       6.531   4.221  13.616  0.00  0.00    +0.000 A 
ATOM     18  S   UNL     1       5.240   3.591  14.570  0.00  0.00    +0.000 S 
ATOM     19  H   UNL     1       3.970   4.076  16.842  0.00  0.00    +0.000 HD
BRANCH  17  20
ATOM     20  C   UNL     1       6.872   3.749  12.292  0.00  0.00    +0.000 C 
ATOM     21  N   UNL     1       6.481   2.486  11.954  0.00  0.00    +0.000 N 
ATOM     22  O   UNL     1       7.469   4.432  11.457  0.00  0.00    +0.000 OA
ATOM     23  H   UNL     1       5.947   1.892  12.571  0.00  0.00    +0.000 HD
ATOM     24  H   UNL     1       6.677   2.173  11.014  0.00  0.00    +0.000 HD
ENDBRANCH  17  20
ENDBRANCH   3  11
BRANCH   1  29
ATOM     25  C   UNL     1      -0.552  12.140  21.347  0.00  0.00    +0.000 C 
ATOM     26  C   UNL     1       0.100  10.835  21.000  0.00  0.00    +0.000 A 
ATOM     27  C   UNL     1       0.319   9.859  21.966  0.00  0.00    +0.000 A 
ATOM     28  C   UNL     1       0.961   8.664  21.626  0.00  0.00    +0.000 A 
ATOM     29  C   UNL     1       1.395   8.382  20.310  0.00  0.00    +0.000 A 
ATOM     30  C   UNL     1       1.126   9.364  19.323  0.00  0.00    +0.000 A 
ATOM     31  C   UNL     1       1.478   9.223  17.862  0.00  0.00    +0.000 C 
ATOM     32  C   UNL     1       0.506  10.580  19.688  0.00  0.00    +0.000 A 
ENDBRANCH   1  29
TORSDOF 3
ENDMDL
MODEL 4
REMARK VINA RESULT:      -8.7      3.382      8.506
REMARK  Name = 
REMARK  5 active torsions:
REMARK  status: ('A' for Active; 'I' for Inactive)
REMARK    1  A    between atoms: C_1  and  C_2
REMARK    2  A    between atoms: C_5  and  C_6
REMARK    3  A    between atoms: C_8  and  C_9
REMARK    4  A    between atoms: C_15  and  C_16
REMARK    5  A    between atoms: C_27  and  C_28
REMARK                            x       y       z     vdW  Elec       q    Type
REMARK                         _______ _______ _______ _____ _____    ______ ____
ROOT
ATOM      1  C   UNL     1       2.087   6.891  20.155  0.00  0.00    +0.000 A 
ATOM      2  C   UNL     1       3.211   6.660  19.377  0.00  0.00    +0.000 A 
ATOM      3  C   UNL     1       3.723   5.358  19.247  0.00  0.00    +0.000 A 
ATOM      4  C   UNL     1       3.121   4.288  19.957  0.00  0.00    +0.000 A 
ATOM      5  C   UNL     1       3.571   2.941  20.007  0.00  0.00    +0.000 A 
ATOM      6  C   UNL     1       2.899   1.980  20.769  0.00  0.00    +0.000 A 
ATOM      7  C   UNL     1       1.786   2.344  21.512  0.00  0.00    +0.000 A 
ATOM      8  C   UNL     1       1.347   3.663  21.482  0.00  0.00    +0.000 A 
ATOM      9  C   UNL     1       1.984   4.631  20.720  0.00  0.00    +0.000 A 
ATOM     10  N   UNL     1       1.473   5.867  20.785  0.00  0.00    +0.000 NA
ENDROOT
BRANCH   3  11
ATOM     11  C   UNL     1       4.939   5.256  18.387  0.00  0.00    +0.000 C 
ATOM     12  O   UNL     1       6.006   5.569  18.910  0.00  0.00    +0.000 OA
ATOM     13  N   UNL     1       4.749   4.919  17.063  0.00  0.00    +0.000 N 
ATOM     14  C   UNL     1       5.804   4.910  16.178  0.00  0.00    +0.000 A 
ATOM     15  N   UNL     1       7.079   5.056  16.420  0.00  0.00    +0.000 NA
ATOM     16  C   UNL     1       7.782   5.059  15.233  0.00  0.00    +0.000 A 
ATOM     17  C   UNL     1       7.028   4.910  14.086  0.00  0.00    +0.000 A 
ATOM     18  S   UNL     1       5.375   4.707  14.533  0.00  0.00    +0.000 S 
ATOM     19  H   UNL     1       3.825   4.799  16.678  0.00  0.00    +0.000 HD
BRANCH  17  20
ATOM     20  C   UNL     1       7.508   4.919  12.722  0.00  0.00    +0.000 C 
ATOM     21  N   UNL     1       8.332   5.942  12.351  0.00  0.00    +0.000 N 
ATOM     22  O   UNL     1       7.234   4.046  11.897  0.00  0.00    +0.000 OA
ATOM     23  H   UNL     1       8.636   6.662  12.989  0.00  0.00    +0.000 HD
ATOM     24  H   UNL     1       8.705   5.924  11.413  0.00  0.00    +0.000 HD
ENDBRANCH  17  20
ENDBRANCH   3  11
BRANCH   1  29
ATOM     25  C   UNL     1      -0.200  12.190  21.048  0.00  0.00    +0.000 C 
ATOM     26  C   UNL     1       0.354  10.817  20.806  0.00  0.00    +0.000 A 
ATOM     27  C   UNL     1       0.439   9.882  21.831  0.00  0.00    +0.000 A 
ATOM     28  C   UNL     1       0.993   8.621  21.589  0.00  0.00    +0.000 A 
ATOM     29  C   UNL     1       1.466   8.231  20.315  0.00  0.00    +0.000 A 
ATOM     30  C   UNL     1       1.332   9.175  19.265  0.00  0.00    +0.000 A 
ATOM     31  C   UNL     1       1.743   8.923  17.835  0.00  0.00    +0.000 C 
ATOM     32  C   UNL     1       0.802  10.457  19.533  0.00  0.00    +0.000 A 
ENDBRANCH   1  29
TORSDOF 3
ENDMDL
MODEL 5
REMARK VINA RESULT:      -8.7      3.323      8.667
REMARK  Name = 
REMARK  5 active torsions:
REMARK  status: ('A' for Active; 'I' for Inactive)
REMARK    1  A    between atoms: C_1  and  C_2
REMARK    2  A    between atoms: C_5  and  C_6
REMARK    3  A    between atoms: C_8  and  C_9
REMARK    4  A    between atoms: C_15  and  C_16
REMARK    5  A    between atoms: C_27  and  C_28
REMARK                            x       y       z     vdW  Elec       q    Type
REMARK                         _______ _______ _______ _____ _____    ______ ____
ROOT
ATOM      1  C   UNL     1       2.068   7.423  19.517  0.00  0.00    +0.000 A 
ATOM      2  C   UNL     1       3.111   7.186  18.636  0.00  0.00    +0.000 A 
ATOM      3  C   UNL     1       3.721   5.921  18.591  0.00  0.00    +0.000 A 
ATOM      4  C   UNL     1       3.304   4.903  19.485  0.00  0.00    +0.000 A 
ATOM      5  C   UNL     1       3.879   3.611  19.630  0.00  0.00    +0.000 A 
ATOM      6  C   UNL     1       3.388   2.702  20.572  0.00  0.00    +0.000 A 
ATOM      7  C   UNL     1       2.339   3.067  21.402  0.00  0.00    +0.000 A 
ATOM      8  C   UNL     1       1.781   4.335  21.279  0.00  0.00    +0.000 A 
ATOM      9  C   UNL     1       2.236   5.248  20.340  0.00  0.00    +0.000 A 
ATOM     10  N   UNL     1       1.625   6.440  20.328  0.00  0.00    +0.000 NA
ENDROOT
BRANCH   3  11
ATOM     11  C   UNL     1       4.835   5.808  17.603  0.00  0.00    +0.000 C 
ATOM     12  O   UNL     1       5.760   6.608  17.729  0.00  0.00    +0.000 OA
ATOM     13  N   UNL     1       4.684   4.892  16.583  0.00  0.00    +0.000 N 
ATOM     14  C   UNL     1       5.613   4.802  15.571  0.00  0.00    +0.000 A 
ATOM     15  N   UNL     1       6.772   5.396  15.465  0.00  0.00    +0.000 NA
ATOM     16  C   UNL     1       7.347   5.085  14.251  0.00  0.00    +0.000 A 
ATOM     17  C   UNL     1       6.615   4.244  13.435  0.00  0.00    +0.000 A 
ATOM     18  S   UNL     1       5.171   3.791  14.262  0.00  0.00    +0.000 S 
ATOM     19  H   UNL     1       3.836   4.358  16.477  0.00  0.00    +0.000 HD
BRANCH  17  20
ATOM     20  C   UNL     1       6.969   3.796  12.106  0.00  0.00    +0.000 C 
ATOM     21  N   UNL     1       6.761   2.481  11.809  0.00  0.00    +0.000 N 
ATOM     22  O   UNL     1       7.420   4.540  11.234  0.00  0.00    +0.000 OA
ATOM     23  H   UNL     1       6.350   1.828  12.460  0.00  0.00    +0.000 HD
ATOM     24  H   UNL     1       6.963   2.177  10.868  0.00  0.00    +0.000 HD
ENDBRANCH  17  20
ENDBRANCH   3  11
BRANCH   1  29
ATOM     25  C   UNL     1      -0.944  12.426  19.624  0.00  0.00    +0.000 C 
ATOM     26  C   UNL     1      -0.138  11.161  19.602  0.00  0.00    +0.000 A 
ATOM     27  C   UNL     1       0.238  10.567  18.403  0.00  0.00    +0.000 A 
ATOM     28  C   UNL     1       0.958   9.368  18.406  0.00  0.00    +0.000 A 
ATOM     29  C   UNL     1       1.350   8.721  19.601  0.00  0.00    +0.000 A 
ATOM     30  C   UNL     1       1.001   9.359  20.819  0.00  0.00    +0.000 A 
ATOM     31  C   UNL     1       1.366   8.839  22.188  0.00  0.00    +0.000 C 
ATOM     32  C   UNL     1       0.245  10.552  20.798  0.00  0.00    +0.000 A 
ENDBRANCH   1  29
TORSDOF 3
ENDMDL
MODEL 6
REMARK VINA RESULT:      -8.7      4.479      7.587
REMARK  Name = 
REMARK  5 active torsions:
REMARK  status: ('A' for Active; 'I' for Inactive)
REMARK    1  A    between atoms: C_1  and  C_2
REMARK    2  A    between atoms: C_5  and  C_6
REMARK    3  A    between atoms: C_8  and  C_9
REMARK    4  A    between atoms: C_15  and  C_16
REMARK    5  A    between atoms: C_27  and  C_28
REMARK                            x       y       z     vdW  Elec       q    Type
REMARK                         _______ _______ _______ _____ _____    ______ ____
ROOT
ATOM      1  C   UNL     1       4.818   4.634  18.268  0.00  0.00    +0.000 A 
ATOM      2  C   UNL     1       5.759   5.602  18.583  0.00  0.00    +0.000 A 
ATOM      3  C   UNL     1       6.652   6.061  17.600  0.00  0.00    +0.000 A 
ATOM      4  C   UNL     1       6.626   5.495  16.301  0.00  0.00    +0.000 A 
ATOM      5  C   UNL     1       7.517   5.780  15.231  0.00  0.00    +0.000 A 
ATOM      6  C   UNL     1       7.400   5.132  13.998  0.00  0.00    +0.000 A 
ATOM      7  C   UNL     1       6.414   4.173  13.813  0.00  0.00    +0.000 A 
ATOM      8  C   UNL     1       5.548   3.875  14.860  0.00  0.00    +0.000 A 
ATOM      9  C   UNL     1       5.630   4.518  16.086  0.00  0.00    +0.000 A 
ATOM     10  N   UNL     1       4.747   4.135  17.017  0.00  0.00    +0.000 NA
ENDROOT
BRANCH   3  11
ATOM     11  C   UNL     1       7.616   7.097  18.079  0.00  0.00    +0.000 C 
ATOM     12  O   UNL     1       8.379   6.758  18.980  0.00  0.00    +0.000 OA
ATOM     13  N   UNL     1       7.499   8.363  17.543  0.00  0.00    +0.000 N 
ATOM     14  C   UNL     1       8.275   9.400  18.007  0.00  0.00    +0.000 A 
ATOM     15  N   UNL     1       9.272   9.366  18.851  0.00  0.00    +0.000 NA
ATOM     16  C   UNL     1       9.718  10.647  19.099  0.00  0.00    +0.000 A 
ATOM     17  C   UNL     1       9.052  11.657  18.432  0.00  0.00    +0.000 A 
ATOM     18  S   UNL     1       7.853  10.950  17.414  0.00  0.00    +0.000 S 
ATOM     19  H   UNL     1       6.763   8.594  16.895  0.00  0.00    +0.000 HD
BRANCH  17  20
ATOM     20  C   UNL     1       9.293  13.079  18.543  0.00  0.00    +0.000 C 
ATOM     21  N   UNL     1       9.588  13.758  17.397  0.00  0.00    +0.000 N 
ATOM     22  O   UNL     1       9.221  13.702  19.604  0.00  0.00    +0.000 OA
ATOM     23  H   UNL     1       9.616  13.319  16.489  0.00  0.00    +0.000 HD
ATOM     24  H   UNL     1       9.710  14.758  17.466  0.00  0.00    +0.000 HD
ENDBRANCH  17  20
ENDBRANCH   3  11
BRANCH   1  29
ATOM     25  C   UNL     1       1.119   2.498  22.251  0.00  0.00    +0.000 C 
ATOM     26  C   UNL     1       2.044   3.037  21.201  0.00  0.00    +0.000 A 
ATOM     27  C   UNL     1       3.096   2.275  20.707  0.00  0.00    +0.000 A 
ATOM     28  C   UNL     1       3.968   2.812  19.753  0.00  0.00    +0.000 A 
ATOM     29  C   UNL     1       3.818   4.121  19.240  0.00  0.00    +0.000 A 
ATOM     30  C   UNL     1       2.714   4.874  19.716  0.00  0.00    +0.000 A 
ATOM     31  C   UNL     1       2.372   6.270  19.255  0.00  0.00    +0.000 C 
ATOM     32  C   UNL     1       1.863   4.329  20.703  0.00  0.00    +0.000 A 
ENDBRANCH   1  29
TORSDOF 3
ENDMDL
MODEL 7
REMARK VINA RESULT:      -8.6      4.075      7.806
REMARK  Name = 
REMARK  5 active torsions:
REMARK  status: ('A' for Active; 'I' for Inactive)
REMARK    1  A    between atoms: C_1  and  C_2
REMARK    2  A    between atoms: C_5  and  C_6
REMARK    3  A    between atoms: C_8  and  C_9
REMARK    4  A    between atoms: C_15  and  C_16
REMARK    5  A    between atoms: C_27  and  C_28
REMARK                            x       y       z     vdW  Elec       q    Type
REMARK                         _______ _______ _______ _____ _____    ______ ____
ROOT
ATOM      1  C   UNL     1       0.804  10.615  19.118  0.00  0.00    +0.000 A 
ATOM      2  C   UNL     1      -0.533  10.813  19.424  0.00  0.00    +0.000 A 
ATOM      3  C   UNL     1      -1.065  12.114  19.447  0.00  0.00    +0.000 A 
ATOM      4  C   UNL     1      -0.220  13.227  19.209  0.00  0.00    +0.000 A 
ATOM      5  C   UNL     1      -0.580  14.600  19.289  0.00  0.00    +0.000 A 
ATOM      6  C   UNL     1       0.358  15.610  19.055  0.00  0.00    +0.000 A 
ATOM      7  C   UNL     1       1.672  15.276  18.763  0.00  0.00    +0.000 A 
ATOM      8  C   UNL     1       2.038  13.936  18.699  0.00  0.00    +0.000 A 
ATOM      9  C   UNL     1       1.123  12.915  18.908  0.00  0.00    +0.000 A 
ATOM     10  N   UNL     1       1.600  11.667  18.831  0.00  0.00    +0.000 NA
ENDROOT
BRANCH   3  11
ATOM     11  C   UNL     1      -2.515  12.182  19.799  0.00  0.00    +0.000 C 
ATOM     12  O   UNL     1      -3.308  12.114  18.863  0.00  0.00    +0.000 OA
ATOM     13  N   UNL     1      -2.833  12.414  21.121  0.00  0.00    +0.000 N 
ATOM     14  C   UNL     1      -4.140  12.598  21.510  0.00  0.00    +0.000 A 
ATOM     15  N   UNL     1      -5.234  12.457  20.810  0.00  0.00    +0.000 NA
ATOM     16  C   UNL     1      -6.326  12.819  21.570  0.00  0.00    +0.000 A 
ATOM     17  C   UNL     1      -6.053  13.234  22.859  0.00  0.00    +0.000 A 
ATOM     18  S   UNL     1      -4.354  13.109  23.130  0.00  0.00    +0.000 S 
ATOM     19  H   UNL     1      -2.119  12.583  21.812  0.00  0.00    +0.000 HD
BRANCH  17  20
ATOM     20  C   UNL     1      -7.004  13.700  23.843  0.00  0.00    +0.000 C 
ATOM     21  N   UNL     1      -6.888  14.992  24.267  0.00  0.00    +0.000 N 
ATOM     22  O   UNL     1      -7.917  13.005  24.292  0.00  0.00    +0.000 OA
ATOM     23  H   UNL     1      -6.195  15.630  23.904  0.00  0.00    +0.000 HD
ATOM     24  H   UNL     1      -7.579  15.333  24.918  0.00  0.00    +0.000 HD
ENDBRANCH  17  20
ENDBRANCH   3  11
BRANCH   1  29
ATOM     25  C   UNL     1       3.505   5.459  18.647  0.00  0.00    +0.000 C 
ATOM     26  C   UNL     1       2.778   6.765  18.764  0.00  0.00    +0.000 A 
ATOM     27  C   UNL     1       2.642   7.614  17.672  0.00  0.00    +0.000 A 
ATOM     28  C   UNL     1       1.991   8.845  17.813  0.00  0.00    +0.000 A 
ATOM     29  C   UNL     1       1.433   9.272  19.040  0.00  0.00    +0.000 A 
ATOM     30  C   UNL     1       1.537   8.378  20.137  0.00  0.00    +0.000 A 
ATOM     31  C   UNL     1       0.968   8.644  21.509  0.00  0.00    +0.000 C 
ATOM     32  C   UNL     1       2.226   7.154  19.986  0.00  0.00    +0.000 A 
ENDBRANCH   1  29
TORSDOF 3
ENDMDL
MODEL 8
REMARK VINA RESULT:      -8.6      3.219      9.978
REMARK  Name = 
REMARK  5 active torsions:
REMARK  status: ('A' for Active; 'I' for Inactive)
REMARK    1  A    between atoms: C_1  and  C_2
REMARK    2  A    between atoms: C_5  and  C_6
REMARK    3  A    between atoms: C_8  and  C_9
REMARK    4  A    between atoms: C_15  and  C_16
REMARK    5  A    between atoms: C_27  and  C_28
REMARK                            x       y       z     vdW  Elec       q    Type
REMARK                         _______ _______ _______ _____ _____    ______ ____
ROOT
ATOM      1  C   UNL     1      -0.813  12.214  20.133  0.00  0.00    +0.000 A 
ATOM      2  C   UNL     1       0.200  11.341  19.771  0.00  0.00    +0.000 A 
ATOM      3  C   UNL     1       0.032  10.486  18.667  0.00  0.00    +0.000 A 
ATOM      4  C   UNL     1      -1.196  10.480  17.959  0.00  0.00    +0.000 A 
ATOM      5  C   UNL     1      -1.556   9.616  16.889  0.00  0.00    +0.000 A 
ATOM      6  C   UNL     1      -2.815   9.694  16.287  0.00  0.00    +0.000 A 
ATOM      7  C   UNL     1      -3.746  10.612  16.751  0.00  0.00    +0.000 A 
ATOM      8  C   UNL     1      -3.409  11.451  17.808  0.00  0.00    +0.000 A 
ATOM      9  C   UNL     1      -2.160  11.406  18.410  0.00  0.00    +0.000 A 
ATOM     10  N   UNL     1      -1.961  12.256  19.425  0.00  0.00    +0.000 NA
ENDROOT
BRANCH   3  11
ATOM     11  C   UNL     1       1.198   9.594  18.395  0.00  0.00    +0.000 C 
ATOM     12  O   UNL     1       1.866   9.857  17.399  0.00  0.00    +0.000 OA
ATOM     13  N   UNL     1       1.363   8.501  19.221  0.00  0.00    +0.000 N 
ATOM     14  C   UNL     1       2.347   7.571  18.973  0.00  0.00    +0.000 A 
ATOM     15  N   UNL     1       3.311   7.610  18.092  0.00  0.00    +0.000 NA
ATOM     16  C   UNL     1       4.026   6.432  18.129  0.00  0.00    +0.000 A 
ATOM     17  C   UNL     1       3.599   5.497  19.052  0.00  0.00    +0.000 A 
ATOM     18  S   UNL     1       2.276   6.159  19.938  0.00  0.00    +0.000 S 
ATOM     19  H   UNL     1       0.697   8.284  19.945  0.00  0.00    +0.000 HD
BRANCH  17  20
ATOM     20  C   UNL     1       4.145   4.175  19.268  0.00  0.00    +0.000 C 
ATOM     21  N   UNL     1       5.467   3.987  18.987  0.00  0.00    +0.000 N 
ATOM     22  O   UNL     1       3.490   3.230  19.709  0.00  0.00    +0.000 OA
ATOM     23  H   UNL     1       6.073   4.729  18.669  0.00  0.00    +0.000 HD
ATOM     24  H   UNL     1       5.861   3.078  19.181  0.00  0.00    +0.000 HD
ENDBRANCH  17  20
ENDBRANCH   3  11
BRANCH   1  29
ATOM     25  C   UNL     1      -0.453  16.203  24.384  0.00  0.00    +0.000 C 
ATOM     26  C   UNL     1      -0.514  15.161  23.306  0.00  0.00    +0.000 A 
ATOM     27  C   UNL     1       0.004  15.403  22.039  0.00  0.00    +0.000 A 
ATOM     28  C   UNL     1      -0.097  14.430  21.039  0.00  0.00    +0.000 A 
ATOM     29  C   UNL     1      -0.700  13.171  21.263  0.00  0.00    +0.000 A 
ATOM     30  C   UNL     1      -1.184  12.916  22.572  0.00  0.00    +0.000 A 
ATOM     31  C   UNL     1      -1.821  11.619  23.008  0.00  0.00    +0.000 C 
ATOM     32  C   UNL     1      -1.104  13.922  23.561  0.00  0.00    +0.000 A 
ENDBRANCH   1  29
TORSDOF 3
ENDMDL
MODEL 9
REMARK VINA RESULT:      -8.4      3.837      9.833
REMARK  Name = 
REMARK  5 active torsions:
REMARK  status: ('A' for Active; 'I' for Inactive)
REMARK    1  A    between atoms: C_1  and  C_2
REMARK    2  A    between atoms: C_5  and  C_6
REMARK    3  A    between atoms: C_8  and  C_9
REMARK    4  A    between atoms: C_15  and  C_16
REMARK    5  A    between atoms: C_27  and  C_28
REMARK                            x       y       z     vdW  Elec       q    Type
REMARK                         _______ _______ _______ _____ _____    ______ ____
ROOT
ATOM      1  C   UNL     1      -1.459  11.949  18.545  0.00  0.00    +0.000 A 
ATOM      2  C   UNL     1      -0.626  10.844  18.468  0.00  0.00    +0.000 A 
ATOM      3  C   UNL     1       0.768  11.007  18.529  0.00  0.00    +0.000 A 
ATOM      4  C   UNL     1       1.324  12.308  18.615  0.00  0.00    +0.000 A 
ATOM      5  C   UNL     1       2.705  12.646  18.590  0.00  0.00    +0.000 A 
ATOM      6  C   UNL     1       3.126  13.978  18.657  0.00  0.00    +0.000 A 
ATOM      7  C   UNL     1       2.187  14.996  18.724  0.00  0.00    +0.000 A 
ATOM      8  C   UNL     1       0.833  14.676  18.732  0.00  0.00    +0.000 A 
ATOM      9  C   UNL     1       0.390  13.363  18.686  0.00  0.00    +0.000 A 
ATOM     10  N   UNL     1      -0.938  13.186  18.688  0.00  0.00    +0.000 NA
ENDROOT
BRANCH   3  11
ATOM     11  C   UNL     1       1.543   9.735  18.427  0.00  0.00    +0.000 C 
ATOM     12  O   UNL     1       2.120   9.530  17.362  0.00  0.00    +0.000 OA
ATOM     13  N   UNL     1       1.463   8.860  19.491  0.00  0.00    +0.000 N 
ATOM     14  C   UNL     1       2.058   7.620  19.431  0.00  0.00    +0.000 A 
ATOM     15  N   UNL     1       2.855   7.135  18.517  0.00  0.00    +0.000 NA
ATOM     16  C   UNL     1       3.158   5.822  18.811  0.00  0.00    +0.000 A 
ATOM     17  C   UNL     1       2.585   5.313  19.960  0.00  0.00    +0.000 A 
ATOM     18  S   UNL     1       1.673   6.563  20.722  0.00  0.00    +0.000 S 
ATOM     19  H   UNL     1       0.866   9.046  20.281  0.00  0.00    +0.000 HD
BRANCH  17  20
ATOM     20  C   UNL     1       2.707   3.966  20.471  0.00  0.00    +0.000 C 
ATOM     21  N   UNL     1       3.313   3.042  19.670  0.00  0.00    +0.000 N 
ATOM     22  O   UNL     1       2.318   3.622  21.588  0.00  0.00    +0.000 OA
ATOM     23  H   UNL     1       3.698   3.267  18.764  0.00  0.00    +0.000 HD
ATOM     24  H   UNL     1       3.441   2.113  20.043  0.00  0.00    +0.000 HD
ENDBRANCH  17  20
ENDBRANCH   3  11
BRANCH   1  29
ATOM     25  C   UNL     1      -7.298  11.868  18.585  0.00  0.00    +0.000 C 
ATOM     26  C   UNL     1      -5.799  11.851  18.584  0.00  0.00    +0.000 A 
ATOM     27  C   UNL     1      -5.072  12.282  19.688  0.00  0.00    +0.000 A 
ATOM     28  C   UNL     1      -3.674  12.292  19.651  0.00  0.00    +0.000 A 
ATOM     29  C   UNL     1      -2.941  11.857  18.522  0.00  0.00    +0.000 A 
ATOM     30  C   UNL     1      -3.691  11.377  17.418  0.00  0.00    +0.000 A 
ATOM     31  C   UNL     1      -3.084  10.837  16.146  0.00  0.00    +0.000 C 
ATOM     32  C   UNL     1      -5.103  11.405  17.459  0.00  0.00    +0.000 A 
ENDBRANCH   1  29
TORSDOF 3
ENDMDL
