MODEL 1
REMARK VINA RESULT:      -8.3      0.000      0.000
REMARK  Name = 
REMARK  5 active torsions:
REMARK  status: ('A' for Active; 'I' for Inactive)
REMARK    1  A    between atoms: C_2  and  C_3
REMARK    2  A    between atoms: C_6  and  N_7
REMARK    3  A    between atoms: C_8  and  C_10
REMARK    4  A    between atoms: C_12  and  C_13
REMARK    5  A    between atoms: N_19  and  C_20
REMARK                            x       y       z     vdW  Elec       q    Type
REMARK                         _______ _______ _______ _____ _____    ______ ____
ROOT
ATOM      1  C   UNL     1       2.686   7.930  18.098  0.00  0.00    +0.000 A 
ATOM      2  N   UNL     1       2.209   6.697  18.518  0.00  0.00    +0.000 NA
ATOM      3  C   UNL     1       3.133   5.820  18.169  0.00  0.00    +0.000 A 
ATOM      4  N   UNL     1       4.132   6.502  17.467  0.00  0.00    +0.000 N 
ATOM      5  N   UNL     1       3.917   7.860  17.542  0.00  0.00    +0.000 NA
ENDROOT
BRANCH   3   6
ATOM      6  C   UNL     1       3.066   4.367  18.451  0.00  0.00    +0.000 A 
ATOM      7  C   UNL     1       2.405   3.517  17.554  0.00  0.00    +0.000 A 
ATOM      8  C   UNL     1       2.487   2.126  17.691  0.00  0.00    +0.000 A 
ATOM      9  C   UNL     1       3.248   1.563  18.714  0.00  0.00    +0.000 A 
ATOM     10  C   UNL     1       3.855   2.389  19.649  0.00  0.00    +0.000 A 
ATOM     11  C   UNL     1       3.702   3.775  19.556  0.00  0.00    +0.000 A 
ENDBRANCH   3   6
BRANCH   4  12
ATOM     12  C   UNL     1       5.245   5.957  16.755  0.00  0.00    +0.000 A 
ATOM     13  C   UNL     1       5.205   5.822  15.355  0.00  0.00    +0.000 A 
ATOM     14  C   UNL     1       6.158   5.051  14.684  0.00  0.00    +0.000 A 
ATOM     15  C   UNL     1       7.205   4.478  15.395  0.00  0.00    +0.000 A 
ATOM     16  C   UNL     1       7.305   4.688  16.773  0.00  0.00    +0.000 A 
ATOM     17  C   UNL     1       6.334   5.432  17.458  0.00  0.00    +0.000 A 
ENDBRANCH   4  12
BRANCH   1  19
ATOM     18  N   UNL     1       0.922   9.175  19.266  0.00  0.00    +0.000 N 
ATOM     19  C   UNL     1       1.859   9.183  18.238  0.00  0.00    +0.000 C 
ATOM     20  O   UNL     1       2.052  10.134  17.478  0.00  0.00    +0.000 OA
ATOM     21  H   UNL     1       0.880   8.311  19.798  0.00  0.00    +0.000 HD
BRANCH  18  25
ATOM     22  C   UNL     1      -1.803  12.324  20.275  0.00  0.00    +0.000 A 
ATOM     23  C   UNL     1      -0.701  12.062  21.098  0.00  0.00    +0.000 A 
ATOM     24  C   UNL     1       0.198  11.030  20.788  0.00  0.00    +0.000 A 
ATOM     25  C   UNL     1       0.046  10.229  19.641  0.00  0.00    +0.000 A 
ATOM     26  C   UNL     1      -1.071  10.502  18.825  0.00  0.00    +0.000 A 
ATOM     27  C   UNL     1      -1.978  11.533  19.133  0.00  0.00    +0.000 A 
BRANCH  22  29
ATOM     28  N   UNL     1      -3.489  14.230  20.853  0.00  0.00    +0.000 NA
ATOM     29  C   UNL     1      -2.742  13.374  20.591  0.00  0.00    +0.000 C 
ENDBRANCH  22  29
ENDBRANCH  18  25
ENDBRANCH   1  19
TORSDOF 5
ENDMDL
MODEL 2
REMARK VINA RESULT:      -8.2      1.298      3.706
REMARK  Name = 
REMARK  5 active torsions:
REMARK  status: ('A' for Active; 'I' for Inactive)
REMARK    1  A    between atoms: C_2  and  C_3
REMARK    2  A    between atoms: C_6  and  N_7
REMARK    3  A    between atoms: C_8  and  C_10
REMARK    4  A    between atoms: C_12  and  C_13
REMARK    5  A    between atoms: N_19  and  C_20
REMARK                            x       y       z     vdW  Elec       q    Type
REMARK                         _______ _______ _______ _____ _____    ______ ____
ROOT
ATOM      1  C   UNL     1       2.438   7.646  18.425  0.00  0.00    +0.000 A 
ATOM      2  N   UNL     1       3.621   7.654  17.701  0.00  0.00    +0.000 NA
ATOM      3  C   UNL     1       3.948   6.385  17.538  0.00  0.00    +0.000 A 
ATOM      4  N   UNL     1       3.014   5.607  18.230  0.00  0.00    +0.000 N 
ATOM      5  N   UNL     1       1.980   6.399  18.676  0.00  0.00    +0.000 NA
ENDROOT
BRANCH   3   6
ATOM      6  C   UNL     1       5.132   5.909  16.785  0.00  0.00    +0.000 A 
ATOM      7  C   UNL     1       6.241   5.410  17.480  0.00  0.00    +0.000 A 
ATOM      8  C   UNL     1       7.291   4.780  16.800  0.00  0.00    +0.000 A 
ATOM      9  C   UNL     1       7.238   4.621  15.416  0.00  0.00    +0.000 A 
ATOM     10  C   UNL     1       6.178   5.166  14.705  0.00  0.00    +0.000 A 
ATOM     11  C   UNL     1       5.174   5.865  15.380  0.00  0.00    +0.000 A 
ENDBRANCH   3   6
BRANCH   4  12
ATOM     12  C   UNL     1       3.045   4.200  18.481  0.00  0.00    +0.000 A 
ATOM     13  C   UNL     1       3.776   3.679  19.565  0.00  0.00    +0.000 A 
ATOM     14  C   UNL     1       4.035   2.310  19.659  0.00  0.00    +0.000 A 
ATOM     15  C   UNL     1       3.498   1.440  18.719  0.00  0.00    +0.000 A 
ATOM     16  C   UNL     1       2.690   1.940  17.694  0.00  0.00    +0.000 A 
ATOM     17  C   UNL     1       2.453   3.316  17.572  0.00  0.00    +0.000 A 
ENDBRANCH   4  12
BRANCH   1  19
ATOM     18  N   UNL     1       1.241   8.893  20.169  0.00  0.00    +0.000 N 
ATOM     19  C   UNL     1       1.792   8.926  18.892  0.00  0.00    +0.000 C 
ATOM     20  O   UNL     1       1.795   9.917  18.160  0.00  0.00    +0.000 OA
ATOM     21  H   UNL     1       1.313   7.997  20.641  0.00  0.00    +0.000 HD
BRANCH  18  25
ATOM     22  C   UNL     1      -0.704  12.015  22.366  0.00  0.00    +0.000 A 
ATOM     23  C   UNL     1      -0.021  12.314  21.181  0.00  0.00    +0.000 A 
ATOM     24  C   UNL     1       0.628  11.307  20.451  0.00  0.00    +0.000 A 
ATOM     25  C   UNL     1       0.611   9.961  20.863  0.00  0.00    +0.000 A 
ATOM     26  C   UNL     1      -0.076   9.676  22.061  0.00  0.00    +0.000 A 
ATOM     27  C   UNL     1      -0.725  10.683  22.798  0.00  0.00    +0.000 A 
BRANCH  22  29
ATOM     28  N   UNL     1      -1.883  13.882  23.756  0.00  0.00    +0.000 NA
ATOM     29  C   UNL     1      -1.364  13.046  23.132  0.00  0.00    +0.000 C 
ENDBRANCH  22  29
ENDBRANCH  18  25
ENDBRANCH   1  19
TORSDOF 5
ENDMDL
MODEL 3
REMARK VINA RESULT:      -8.0      0.425      1.315
REMARK  Name = 
REMARK  5 active torsions:
REMARK  status: ('A' for Active; 'I' for Inactive)
REMARK    1  A    between atoms: C_2  and  C_3
REMARK    2  A    between atoms: C_6  and  N_7
REMARK    3  A    between atoms: C_8  and  C_10
REMARK    4  A    between atoms: C_12  and  C_13
REMARK    5  A    between atoms: N_19  and  C_20
REMARK                            x       y       z     vdW  Elec       q    Type
REMARK                         _______ _______ _______ _____ _____    ______ ____
ROOT
ATOM      1  C   UNL     1       2.631   8.058  18.085  0.00  0.00    +0.000 A 
ATOM      2  N   UNL     1       2.106   6.839  18.488  0.00  0.00    +0.000 NA
ATOM      3  C   UNL     1       3.021   5.938  18.179  0.00  0.00    +0.000 A 
ATOM      4  N   UNL     1       4.065   6.592  17.516  0.00  0.00    +0.000 N 
ATOM      5  N   UNL     1       3.881   7.955  17.580  0.00  0.00    +0.000 NA
ENDROOT
BRANCH   3   6
ATOM      6  C   UNL     1       2.905   4.488  18.461  0.00  0.00    +0.000 A 
ATOM      7  C   UNL     1       2.929   4.036  19.787  0.00  0.00    +0.000 A 
ATOM      8  C   UNL     1       2.633   2.703  20.096  0.00  0.00    +0.000 A 
ATOM      9  C   UNL     1       2.288   1.806  19.087  0.00  0.00    +0.000 A 
ATOM     10  C   UNL     1       2.322   2.220  17.763  0.00  0.00    +0.000 A 
ATOM     11  C   UNL     1       2.698   3.530  17.453  0.00  0.00    +0.000 A 
ENDBRANCH   3   6
BRANCH   4  12
ATOM     12  C   UNL     1       5.191   6.017  16.852  0.00  0.00    +0.000 A 
ATOM     13  C   UNL     1       5.197   5.859  15.454  0.00  0.00    +0.000 A 
ATOM     14  C   UNL     1       6.158   5.061  14.829  0.00  0.00    +0.000 A 
ATOM     15  C   UNL     1       7.170   4.483  15.583  0.00  0.00    +0.000 A 
ATOM     16  C   UNL     1       7.227   4.714  16.961  0.00  0.00    +0.000 A 
ATOM     17  C   UNL     1       6.247   5.485  17.600  0.00  0.00    +0.000 A 
ENDBRANCH   4  12
BRANCH   1  19
ATOM     18  N   UNL     1       0.827   9.338  19.151  0.00  0.00    +0.000 N 
ATOM     19  C   UNL     1       1.830   9.332  18.188  0.00  0.00    +0.000 C 
ATOM     20  O   UNL     1       2.099  10.287  17.456  0.00  0.00    +0.000 OA
ATOM     21  H   UNL     1       0.726   8.469  19.667  0.00  0.00    +0.000 HD
BRANCH  18  25
ATOM     22  C   UNL     1      -1.709  12.605  20.269  0.00  0.00    +0.000 A 
ATOM     23  C   UNL     1      -2.005  11.848  19.130  0.00  0.00    +0.000 A 
ATOM     24  C   UNL     1      -1.183  10.778  18.744  0.00  0.00    +0.000 A 
ATOM     25  C   UNL     1      -0.043  10.411  19.483  0.00  0.00    +0.000 A 
ATOM     26  C   UNL     1       0.246  11.187  20.624  0.00  0.00    +0.000 A 
ATOM     27  C   UNL     1      -0.573  12.262  21.014  0.00  0.00    +0.000 A 
BRANCH  22  29
ATOM     28  N   UNL     1      -3.199  14.622  20.991  0.00  0.00    +0.000 NA
ATOM     29  C   UNL     1      -2.540  13.716  20.669  0.00  0.00    +0.000 C 
ENDBRANCH  22  29
ENDBRANCH  18  25
ENDBRANCH   1  19
TORSDOF 5
ENDMDL
MODEL 4
REMARK VINA RESULT:      -8.0      0.615      3.442
REMARK  Name = 
REMARK  5 active torsions:
REMARK  status: ('A' for Active; 'I' for Inactive)
REMARK    1  A    between atoms: C_2  and  C_3
REMARK    2  A    between atoms: C_6  and  N_7
REMARK    3  A    between atoms: C_8  and  C_10
REMARK    4  A    between atoms: C_12  and  C_13
REMARK    5  A    between atoms: N_19  and  C_20
REMARK                            x       y       z     vdW  Elec       q    Type
REMARK                         _______ _______ _______ _____ _____    ______ ____
ROOT
ATOM      1  C   UNL     1       2.435   7.956  18.015  0.00  0.00    +0.000 A 
ATOM      2  N   UNL     1       3.690   7.843  17.436  0.00  0.00    +0.000 NA
ATOM      3  C   UNL     1       3.955   6.550  17.407  0.00  0.00    +0.000 A 
ATOM      4  N   UNL     1       2.902   5.880  18.041  0.00  0.00    +0.000 N 
ATOM      5  N   UNL     1       1.875   6.759  18.302  0.00  0.00    +0.000 NA
ENDROOT
BRANCH   3   6
ATOM      6  C   UNL     1       5.184   5.953  16.836  0.00  0.00    +0.000 A 
ATOM      7  C   UNL     1       6.211   5.530  17.690  0.00  0.00    +0.000 A 
ATOM      8  C   UNL     1       7.296   4.793  17.199  0.00  0.00    +0.000 A 
ATOM      9  C   UNL     1       7.360   4.449  15.850  0.00  0.00    +0.000 A 
ATOM     10  C   UNL     1       6.386   4.914  14.978  0.00  0.00    +0.000 A 
ATOM     11  C   UNL     1       5.349   5.718  15.459  0.00  0.00    +0.000 A 
ENDBRANCH   3   6
BRANCH   4  12
ATOM     12  C   UNL     1       2.817   4.499  18.397  0.00  0.00    +0.000 A 
ATOM     13  C   UNL     1       3.306   4.045  19.636  0.00  0.00    +0.000 A 
ATOM     14  C   UNL     1       3.477   2.681  19.881  0.00  0.00    +0.000 A 
ATOM     15  C   UNL     1       3.084   1.755  18.923  0.00  0.00    +0.000 A 
ATOM     16  C   UNL     1       2.508   2.194  17.728  0.00  0.00    +0.000 A 
ATOM     17  C   UNL     1       2.365   3.563  17.461  0.00  0.00    +0.000 A 
ENDBRANCH   4  12
BRANCH   1  19
ATOM     18  N   UNL     1       0.906   9.333  19.354  0.00  0.00    +0.000 N 
ATOM     19  C   UNL     1       1.820   9.302  18.306  0.00  0.00    +0.000 C 
ATOM     20  O   UNL     1       2.154  10.286  17.642  0.00  0.00    +0.000 OA
ATOM     21  H   UNL     1       0.732   8.436  19.795  0.00  0.00    +0.000 HD
BRANCH  18  25
ATOM     22  C   UNL     1      -1.283  12.732  20.772  0.00  0.00    +0.000 A 
ATOM     23  C   UNL     1      -0.097  12.349  21.409  0.00  0.00    +0.000 A 
ATOM     24  C   UNL     1       0.630  11.235  20.963  0.00  0.00    +0.000 A 
ATOM     25  C   UNL     1       0.214  10.467  19.859  0.00  0.00    +0.000 A 
ATOM     26  C   UNL     1      -0.985  10.862  19.232  0.00  0.00    +0.000 A 
ATOM     27  C   UNL     1      -1.720  11.976  19.677  0.00  0.00    +0.000 A 
BRANCH  22  29
ATOM     28  N   UNL     1      -2.673  14.777  21.607  0.00  0.00    +0.000 NA
ATOM     29  C   UNL     1      -2.047  13.869  21.230  0.00  0.00    +0.000 C 
ENDBRANCH  22  29
ENDBRANCH  18  25
ENDBRANCH   1  19
TORSDOF 5
ENDMDL
MODEL 5
REMARK VINA RESULT:      -7.9      0.747      3.557
REMARK  Name = 
REMARK  5 active torsions:
REMARK  status: ('A' for Active; 'I' for Inactive)
REMARK    1  A    between atoms: C_2  and  C_3
REMARK    2  A    between atoms: C_6  and  N_7
REMARK    3  A    between atoms: C_8  and  C_10
REMARK    4  A    between atoms: C_12  and  C_13
REMARK    5  A    between atoms: N_19  and  C_20
REMARK                            x       y       z     vdW  Elec       q    Type
REMARK                         _______ _______ _______ _____ _____    ______ ____
ROOT
ATOM      1  C   UNL     1       2.415   7.914  17.962  0.00  0.00    +0.000 A 
ATOM      2  N   UNL     1       3.697   7.794  17.446  0.00  0.00    +0.000 NA
ATOM      3  C   UNL     1       3.967   6.501  17.461  0.00  0.00    +0.000 A 
ATOM      4  N   UNL     1       2.888   5.842  18.060  0.00  0.00    +0.000 N 
ATOM      5  N   UNL     1       1.847   6.722  18.251  0.00  0.00    +0.000 NA
ENDROOT
BRANCH   3   6
ATOM      6  C   UNL     1       5.225   5.896  16.964  0.00  0.00    +0.000 A 
ATOM      7  C   UNL     1       6.233   5.549  17.872  0.00  0.00    +0.000 A 
ATOM      8  C   UNL     1       7.347   4.806  17.459  0.00  0.00    +0.000 A 
ATOM      9  C   UNL     1       7.458   4.382  16.137  0.00  0.00    +0.000 A 
ATOM     10  C   UNL     1       6.502   4.771  15.210  0.00  0.00    +0.000 A 
ATOM     11  C   UNL     1       5.436   5.582  15.610  0.00  0.00    +0.000 A 
ENDBRANCH   3   6
BRANCH   4  12
ATOM     12  C   UNL     1       2.791   4.469  18.445  0.00  0.00    +0.000 A 
ATOM     13  C   UNL     1       2.702   3.456  17.472  0.00  0.00    +0.000 A 
ATOM     14  C   UNL     1       2.337   2.155  17.827  0.00  0.00    +0.000 A 
ATOM     15  C   UNL     1       2.138   1.836  19.164  0.00  0.00    +0.000 A 
ATOM     16  C   UNL     1       2.319   2.815  20.146  0.00  0.00    +0.000 A 
ATOM     17  C   UNL     1       2.652   4.130  19.795  0.00  0.00    +0.000 A 
ENDBRANCH   4  12
BRANCH   1  19
ATOM     18  N   UNL     1       0.745   9.295  19.116  0.00  0.00    +0.000 N 
ATOM     19  C   UNL     1       1.783   9.264  18.191  0.00  0.00    +0.000 C 
ATOM     20  O   UNL     1       2.207  10.251  17.586  0.00  0.00    +0.000 OA
ATOM     21  H   UNL     1       0.508   8.394  19.522  0.00  0.00    +0.000 HD
BRANCH  18  25
ATOM     22  C   UNL     1      -1.377  12.743  20.518  0.00  0.00    +0.000 A 
ATOM     23  C   UNL     1      -1.870  12.012  19.431  0.00  0.00    +0.000 A 
ATOM     24  C   UNL     1      -1.186  10.884  18.953  0.00  0.00    +0.000 A 
ATOM     25  C   UNL     1       0.007  10.431  19.546  0.00  0.00    +0.000 A 
ATOM     26  C   UNL     1       0.495  11.180  20.636  0.00  0.00    +0.000 A 
ATOM     27  C   UNL     1      -0.185  12.314  21.117  0.00  0.00    +0.000 A 
BRANCH  22  29
ATOM     28  N   UNL     1      -2.628  14.859  21.394  0.00  0.00    +0.000 NA
ATOM     29  C   UNL     1      -2.065  13.913  21.010  0.00  0.00    +0.000 C 
ENDBRANCH  22  29
ENDBRANCH  18  25
ENDBRANCH   1  19
TORSDOF 5
ENDMDL
MODEL 6
REMARK VINA RESULT:      -7.9      1.796      3.900
REMARK  Name = 
REMARK  5 active torsions:
REMARK  status: ('A' for Active; 'I' for Inactive)
REMARK    1  A    between atoms: C_2  and  C_3
REMARK    2  A    between atoms: C_6  and  N_7
REMARK    3  A    between atoms: C_8  and  C_10
REMARK    4  A    between atoms: C_12  and  C_13
REMARK    5  A    between atoms: N_19  and  C_20
REMARK                            x       y       z     vdW  Elec       q    Type
REMARK                         _______ _______ _______ _____ _____    ______ ____
ROOT
ATOM      1  C   UNL     1       2.425   7.609  18.537  0.00  0.00    +0.000 A 
ATOM      2  N   UNL     1       3.606   7.638  17.810  0.00  0.00    +0.000 NA
ATOM      3  C   UNL     1       3.940   6.374  17.622  0.00  0.00    +0.000 A 
ATOM      4  N   UNL     1       3.012   5.577  18.302  0.00  0.00    +0.000 N 
ATOM      5  N   UNL     1       1.975   6.355  18.765  0.00  0.00    +0.000 NA
ENDROOT
BRANCH   3   6
ATOM      6  C   UNL     1       5.124   5.919  16.857  0.00  0.00    +0.000 A 
ATOM      7  C   UNL     1       6.254   5.453  17.542  0.00  0.00    +0.000 A 
ATOM      8  C   UNL     1       7.309   4.841  16.853  0.00  0.00    +0.000 A 
ATOM      9  C   UNL     1       7.241   4.667  15.472  0.00  0.00    +0.000 A 
ATOM     10  C   UNL     1       6.159   5.180  14.770  0.00  0.00    +0.000 A 
ATOM     11  C   UNL     1       5.148   5.862  15.452  0.00  0.00    +0.000 A 
ENDBRANCH   3   6
BRANCH   4  12
ATOM     12  C   UNL     1       3.050   4.166  18.525  0.00  0.00    +0.000 A 
ATOM     13  C   UNL     1       3.809   3.627  19.581  0.00  0.00    +0.000 A 
ATOM     14  C   UNL     1       4.072   2.257  19.644  0.00  0.00    +0.000 A 
ATOM     15  C   UNL     1       3.513   1.403  18.702  0.00  0.00    +0.000 A 
ATOM     16  C   UNL     1       2.680   1.920  17.706  0.00  0.00    +0.000 A 
ATOM     17  C   UNL     1       2.438   3.298  17.615  0.00  0.00    +0.000 A 
ENDBRANCH   4  12
BRANCH   1  19
ATOM     18  N   UNL     1       1.853   9.968  18.171  0.00  0.00    +0.000 N 
ATOM     19  C   UNL     1       1.773   8.877  19.029  0.00  0.00    +0.000 C 
ATOM     20  O   UNL     1       1.203   8.889  20.122  0.00  0.00    +0.000 OA
ATOM     21  H   UNL     1       2.365   9.798  17.311  0.00  0.00    +0.000 HD
BRANCH  18  25
ATOM     22  C   UNL     1       0.313  13.924  18.752  0.00  0.00    +0.000 A 
ATOM     23  C   UNL     1      -0.556  12.827  18.764  0.00  0.00    +0.000 A 
ATOM     24  C   UNL     1      -0.072  11.524  18.569  0.00  0.00    +0.000 A 
ATOM     25  C   UNL     1       1.296  11.261  18.368  0.00  0.00    +0.000 A 
ATOM     26  C   UNL     1       2.158  12.377  18.353  0.00  0.00    +0.000 A 
ATOM     27  C   UNL     1       1.678  13.685  18.545  0.00  0.00    +0.000 A 
BRANCH  22  29
ATOM     28  N   UNL     1      -0.576  16.352  19.103  0.00  0.00    +0.000 NA
ATOM     29  C   UNL     1      -0.175  15.270  18.939  0.00  0.00    +0.000 C 
ENDBRANCH  22  29
ENDBRANCH  18  25
ENDBRANCH   1  19
TORSDOF 5
ENDMDL
MODEL 7
REMARK VINA RESULT:      -7.8      1.054      3.507
REMARK  Name = 
REMARK  5 active torsions:
REMARK  status: ('A' for Active; 'I' for Inactive)
REMARK    1  A    between atoms: C_2  and  C_3
REMARK    2  A    between atoms: C_6  and  N_7
REMARK    3  A    between atoms: C_8  and  C_10
REMARK    4  A    between atoms: C_12  and  C_13
REMARK    5  A    between atoms: N_19  and  C_20
REMARK                            x       y       z     vdW  Elec       q    Type
REMARK                         _______ _______ _______ _____ _____    ______ ____
ROOT
ATOM      1  C   UNL     1       2.372   8.002  18.063  0.00  0.00    +0.000 A 
ATOM      2  N   UNL     1       3.626   7.727  17.539  0.00  0.00    +0.000 NA
ATOM      3  C   UNL     1       3.781   6.420  17.652  0.00  0.00    +0.000 A 
ATOM      4  N   UNL     1       2.661   5.909  18.317  0.00  0.00    +0.000 N 
ATOM      5  N   UNL     1       1.707   6.892  18.455  0.00  0.00    +0.000 NA
ENDROOT
BRANCH   3   6
ATOM      6  C   UNL     1       4.967   5.667  17.184  0.00  0.00    +0.000 A 
ATOM      7  C   UNL     1       5.178   5.489  15.810  0.00  0.00    +0.000 A 
ATOM      8  C   UNL     1       6.379   4.952  15.331  0.00  0.00    +0.000 A 
ATOM      9  C   UNL     1       7.397   4.604  16.217  0.00  0.00    +0.000 A 
ATOM     10  C   UNL     1       7.182   4.714  17.584  0.00  0.00    +0.000 A 
ATOM     11  C   UNL     1       5.950   5.173  18.059  0.00  0.00    +0.000 A 
ENDBRANCH   3   6
BRANCH   4  12
ATOM     12  C   UNL     1       2.451   4.585  18.811  0.00  0.00    +0.000 A 
ATOM     13  C   UNL     1       1.728   3.643  18.054  0.00  0.00    +0.000 A 
ATOM     14  C   UNL     1       1.286   2.451  18.631  0.00  0.00    +0.000 A 
ATOM     15  C   UNL     1       1.632   2.150  19.942  0.00  0.00    +0.000 A 
ATOM     16  C   UNL     1       2.431   3.037  20.670  0.00  0.00    +0.000 A 
ATOM     17  C   UNL     1       2.850   4.251  20.109  0.00  0.00    +0.000 A 
ENDBRANCH   4  12
BRANCH   1  19
ATOM     18  N   UNL     1       0.932   9.633  19.202  0.00  0.00    +0.000 N 
ATOM     19  C   UNL     1       1.868   9.418  18.196  0.00  0.00    +0.000 C 
ATOM     20  O   UNL     1       2.303  10.296  17.448  0.00  0.00    +0.000 OA
ATOM     21  H   UNL     1       0.671   8.803  19.725  0.00  0.00    +0.000 HD
BRANCH  18  25
ATOM     22  C   UNL     1      -1.012  13.313  20.218  0.00  0.00    +0.000 A 
ATOM     23  C   UNL     1       0.267  13.037  20.716  0.00  0.00    +0.000 A 
ATOM     24  C   UNL     1       0.917  11.835  20.400  0.00  0.00    +0.000 A 
ATOM     25  C   UNL     1       0.328  10.866  19.566  0.00  0.00    +0.000 A 
ATOM     26  C   UNL     1      -0.963  11.156  19.077  0.00  0.00    +0.000 A 
ATOM     27  C   UNL     1      -1.620  12.359  19.393  0.00  0.00    +0.000 A 
BRANCH  22  29
ATOM     28  N   UNL     1      -2.243  15.539  20.800  0.00  0.00    +0.000 NA
ATOM     29  C   UNL     1      -1.696  14.542  20.547  0.00  0.00    +0.000 C 
ENDBRANCH  22  29
ENDBRANCH  18  25
ENDBRANCH   1  19
TORSDOF 5
ENDMDL
MODEL 8
REMARK VINA RESULT:      -7.8      0.783      1.499
REMARK  Name = 
REMARK  5 active torsions:
REMARK  status: ('A' for Active; 'I' for Inactive)
REMARK    1  A    between atoms: C_2  and  C_3
REMARK    2  A    between atoms: C_6  and  N_7
REMARK    3  A    between atoms: C_8  and  C_10
REMARK    4  A    between atoms: C_12  and  C_13
REMARK    5  A    between atoms: N_19  and  C_20
REMARK                            x       y       z     vdW  Elec       q    Type
REMARK                         _______ _______ _______ _____ _____    ______ ____
ROOT
ATOM      1  C   UNL     1       2.639   7.961  18.211  0.00  0.00    +0.000 A 
ATOM      2  N   UNL     1       2.001   6.814  18.658  0.00  0.00    +0.000 NA
ATOM      3  C   UNL     1       2.815   5.816  18.366  0.00  0.00    +0.000 A 
ATOM      4  N   UNL     1       3.909   6.341  17.669  0.00  0.00    +0.000 N 
ATOM      5  N   UNL     1       3.864   7.717  17.692  0.00  0.00    +0.000 NA
ENDROOT
BRANCH   3   6
ATOM      6  C   UNL     1       2.559   4.394  18.694  0.00  0.00    +0.000 A 
ATOM      7  C   UNL     1       3.290   3.777  19.718  0.00  0.00    +0.000 A 
ATOM      8  C   UNL     1       2.942   2.501  20.179  0.00  0.00    +0.000 A 
ATOM      9  C   UNL     1       1.847   1.831  19.637  0.00  0.00    +0.000 A 
ATOM     10  C   UNL     1       1.152   2.399  18.579  0.00  0.00    +0.000 A 
ATOM     11  C   UNL     1       1.554   3.636  18.068  0.00  0.00    +0.000 A 
ENDBRANCH   3   6
BRANCH   4  12
ATOM     12  C   UNL     1       4.960   5.636  17.007  0.00  0.00    +0.000 A 
ATOM     13  C   UNL     1       6.052   5.127  17.735  0.00  0.00    +0.000 A 
ATOM     14  C   UNL     1       7.203   4.682  17.080  0.00  0.00    +0.000 A 
ATOM     15  C   UNL     1       7.242   4.665  15.692  0.00  0.00    +0.000 A 
ATOM     16  C   UNL     1       6.125   5.078  14.961  0.00  0.00    +0.000 A 
ATOM     17  C   UNL     1       4.979   5.558  15.611  0.00  0.00    +0.000 A 
ENDBRANCH   4  12
BRANCH   1  19
ATOM     18  N   UNL     1       1.129   9.509  19.373  0.00  0.00    +0.000 N 
ATOM     19  C   UNL     1       1.973   9.312  18.285  0.00  0.00    +0.000 C 
ATOM     20  O   UNL     1       2.209  10.161  17.423  0.00  0.00    +0.000 OA
ATOM     21  H   UNL     1       1.033   8.707  19.989  0.00  0.00    +0.000 HD
BRANCH  18  25
ATOM     22  C   UNL     1      -1.151  13.019  20.290  0.00  0.00    +0.000 A 
ATOM     23  C   UNL     1       0.145  12.874  20.799  0.00  0.00    +0.000 A 
ATOM     24  C   UNL     1       0.904  11.728  20.515  0.00  0.00    +0.000 A 
ATOM     25  C   UNL     1       0.411  10.690  19.704  0.00  0.00    +0.000 A 
ATOM     26  C   UNL     1      -0.897  10.848  19.203  0.00  0.00    +0.000 A 
ATOM     27  C   UNL     1      -1.665  11.992  19.487  0.00  0.00    +0.000 A 
BRANCH  22  29
ATOM     28  N   UNL     1      -2.600  15.125  20.813  0.00  0.00    +0.000 NA
ATOM     29  C   UNL     1      -1.947  14.187  20.585  0.00  0.00    +0.000 C 
ENDBRANCH  22  29
ENDBRANCH  18  25
ENDBRANCH   1  19
TORSDOF 5
ENDMDL
MODEL 9
REMARK VINA RESULT:      -7.8      0.860      1.721
REMARK  Name = 
REMARK  5 active torsions:
REMARK  status: ('A' for Active; 'I' for Inactive)
REMARK    1  A    between atoms: C_2  and  C_3
REMARK    2  A    between atoms: C_6  and  N_7
REMARK    3  A    between atoms: C_8  and  C_10
REMARK    4  A    between atoms: C_12  and  C_13
REMARK    5  A    between atoms: N_19  and  C_20
REMARK                            x       y       z     vdW  Elec       q    Type
REMARK                         _______ _______ _______ _____ _____    ______ ____
ROOT
ATOM      1  C   UNL     1       2.609   7.982  18.160  0.00  0.00    +0.000 A 
ATOM      2  N   UNL     1       1.974   6.836  18.614  0.00  0.00    +0.000 NA
ATOM      3  C   UNL     1       2.800   5.840  18.347  0.00  0.00    +0.000 A 
ATOM      4  N   UNL     1       3.899   6.365  17.659  0.00  0.00    +0.000 N 
ATOM      5  N   UNL     1       3.843   7.740  17.662  0.00  0.00    +0.000 NA
ENDROOT
BRANCH   3   6
ATOM      6  C   UNL     1       2.550   4.422  18.692  0.00  0.00    +0.000 A 
ATOM      7  C   UNL     1       2.206   4.078  20.006  0.00  0.00    +0.000 A 
ATOM      8  C   UNL     1       1.780   2.781  20.321  0.00  0.00    +0.000 A 
ATOM      9  C   UNL     1       1.672   1.814  19.324  0.00  0.00    +0.000 A 
ATOM     10  C   UNL     1       2.069   2.119  18.029  0.00  0.00    +0.000 A 
ATOM     11  C   UNL     1       2.571   3.390  17.737  0.00  0.00    +0.000 A 
ENDBRANCH   3   6
BRANCH   4  12
ATOM     12  C   UNL     1       4.966   5.658  17.023  0.00  0.00    +0.000 A 
ATOM     13  C   UNL     1       6.029   5.131  17.779  0.00  0.00    +0.000 A 
ATOM     14  C   UNL     1       7.197   4.685  17.156  0.00  0.00    +0.000 A 
ATOM     15  C   UNL     1       7.280   4.684  15.769  0.00  0.00    +0.000 A 
ATOM     16  C   UNL     1       6.191   5.116  15.008  0.00  0.00    +0.000 A 
ATOM     17  C   UNL     1       5.028   5.597  15.627  0.00  0.00    +0.000 A 
ENDBRANCH   4  12
BRANCH   1  19
ATOM     18  N   UNL     1       0.997   9.499  19.221  0.00  0.00    +0.000 N 
ATOM     19  C   UNL     1       1.932   9.328  18.205  0.00  0.00    +0.000 C 
ATOM     20  O   UNL     1       2.235  10.196  17.384  0.00  0.00    +0.000 OA
ATOM     21  H   UNL     1       0.854   8.684  19.811  0.00  0.00    +0.000 HD
BRANCH  18  25
ATOM     22  C   UNL     1      -1.153  13.074  20.196  0.00  0.00    +0.000 A 
ATOM     23  C   UNL     1      -1.700  12.153  19.296  0.00  0.00    +0.000 A 
ATOM     24  C   UNL     1      -1.008  10.980  18.959  0.00  0.00    +0.000 A 
ATOM     25  C   UNL     1       0.248  10.670  19.514  0.00  0.00    +0.000 A 
ATOM     26  C   UNL     1       0.788  11.610  20.415  0.00  0.00    +0.000 A 
ATOM     27  C   UNL     1       0.100  12.790  20.754  0.00  0.00    +0.000 A 
BRANCH  22  29
ATOM     28  N   UNL     1      -2.421  15.266  20.827  0.00  0.00    +0.000 NA
ATOM     29  C   UNL     1      -1.850  14.292  20.540  0.00  0.00    +0.000 C 
ENDBRANCH  22  29
ENDBRANCH  18  25
ENDBRANCH   1  19
TORSDOF 5
ENDMDL
