MODEL 1
REMARK VINA RESULT:      -9.1      0.000      0.000
REMARK  Name = 
REMARK  6 active torsions:
REMARK  status: ('A' for Active; 'I' for Inactive)
REMARK    1  A    between atoms: C_1  and  C_2
REMARK    2  A    between atoms: C_3  and  C_4
REMARK    3  A    between atoms: N_6  and  C_7
REMARK    4  A    between atoms: C_10  and  O_11
REMARK    5  A    between atoms: O_11  and  C_12
REMARK    6  A    between atoms: C_16  and  C_17
REMARK                            x       y       z     vdW  Elec       q    Type
REMARK                         _______ _______ _______ _____ _____    ______ ____
ROOT
ATOM      1  C   UNL     1       8.450   9.529  18.336  0.00  0.00    +0.000 C 
ATOM      2  O   UNL     1       7.534   9.762  17.553  0.00  0.00    +0.000 OA
ATOM      3  N   UNL     1       8.700   8.265  18.840  0.00  0.00    +0.000 N 
ATOM      4  H   UNL     1       9.289   8.180  19.657  0.00  0.00    +0.000 HD
ENDROOT
BRANCH   1   7
ATOM      5  C   UNL     1       8.308  12.566  17.371  0.00  0.00    +0.000 C 
ATOM      6  C   UNL     1       9.204  11.937  18.388  0.00  0.00    +0.000 A 
ATOM      7  C   UNL     1       9.295  10.615  18.816  0.00  0.00    +0.000 A 
ATOM      8  C   UNL     1      10.358  10.635  19.739  0.00  0.00    +0.000 A 
ATOM      9  N   UNL     1      10.892  11.845  19.903  0.00  0.00    +0.000 NA
ATOM     10  N   UNL     1      10.152  12.663  19.098  0.00  0.00    +0.000 N 
ATOM     11  C   UNL     1      10.375  14.082  19.063  0.00  0.00    +0.000 A 
ATOM     12  C   UNL     1      11.438  14.626  19.776  0.00  0.00    +0.000 A 
ATOM     13  C   UNL     1      11.621  16.010  19.752  0.00  0.00    +0.000 A 
ATOM     14  C   UNL     1      10.743  16.809  19.028  0.00  0.00    +0.000 A 
ATOM     15  C   UNL     1       9.716  16.191  18.340  0.00  0.00    +0.000 A 
ATOM     16  N   UNL     1       9.520  14.858  18.342  0.00  0.00    +0.000 NA
ENDBRANCH   1   7
BRANCH   3  17
ATOM     17  C   UNL     1       7.968   7.121  18.437  0.00  0.00    +0.000 A 
ATOM     18  C   UNL     1       7.288   7.034  17.218  0.00  0.00    +0.000 A 
ATOM     19  C   UNL     1       6.517   5.919  16.915  0.00  0.00    +0.000 A 
ATOM     20  C   UNL     1       6.482   4.891  17.833  0.00  0.00    +0.000 A 
ATOM     21  N   UNL     1       7.146   4.915  19.015  0.00  0.00    +0.000 NA
ATOM     22  C   UNL     1       7.883   6.019  19.281  0.00  0.00    +0.000 A 
BRANCH  20  23
ATOM     23  O   UNL     1       5.703   3.794  17.499  0.00  0.00    +0.000 OA
BRANCH  23  24
ATOM     24  C   UNL     1       4.391   3.801  17.910  0.00  0.00    +0.000 A 
ATOM     25  C   UNL     1       3.331   4.196  17.088  0.00  0.00    +0.000 A 
ATOM     26  C   UNL     1       2.027   4.183  17.574  0.00  0.00    +0.000 A 
ATOM     27  C   UNL     1       1.784   3.811  18.895  0.00  0.00    +0.000 A 
ATOM     28  C   UNL     1       2.846   3.454  19.734  0.00  0.00    +0.000 A 
ATOM     29  C   UNL     1       4.154   3.455  19.241  0.00  0.00    +0.000 A 
BRANCH  28  30
ATOM     30  C   UNL     1       2.592   3.083  21.095  0.00  0.00    +0.000 C 
ATOM     31  N   UNL     1       2.387   2.785  22.198  0.00  0.00    +0.000 NA
ENDBRANCH  28  30
ENDBRANCH  23  24
ENDBRANCH  20  23
ENDBRANCH   3  17
TORSDOF 5
ENDMDL
MODEL 2
REMARK VINA RESULT:      -8.7      6.778      9.095
REMARK  Name = 
REMARK  6 active torsions:
REMARK  status: ('A' for Active; 'I' for Inactive)
REMARK    1  A    between atoms: C_1  and  C_2
REMARK    2  A    between atoms: C_3  and  C_4
REMARK    3  A    between atoms: N_6  and  C_7
REMARK    4  A    between atoms: C_10  and  O_11
REMARK    5  A    between atoms: O_11  and  C_12
REMARK    6  A    between atoms: C_16  and  C_17
REMARK                            x       y       z     vdW  Elec       q    Type
REMARK                         _______ _______ _______ _____ _____    ______ ____
ROOT
ATOM      1  C   UNL     1       1.096   8.672  20.477  0.00  0.00    +0.000 C 
ATOM      2  O   UNL     1       1.348   9.061  19.341  0.00  0.00    +0.000 OA
ATOM      3  N   UNL     1       1.419   7.403  20.923  0.00  0.00    +0.000 N 
ATOM      4  H   UNL     1       0.970   7.058  21.760  0.00  0.00    +0.000 HD
ENDROOT
BRANCH   1   7
ATOM      5  C   UNL     1      -0.896  11.028  19.666  0.00  0.00    +0.000 C 
ATOM      6  C   UNL     1      -0.494  10.554  21.025  0.00  0.00    +0.000 A 
ATOM      7  C   UNL     1       0.382   9.541  21.405  0.00  0.00    +0.000 A 
ATOM      8  C   UNL     1       0.391   9.614  22.811  0.00  0.00    +0.000 A 
ATOM      9  N   UNL     1      -0.406  10.567  23.294  0.00  0.00    +0.000 NA
ATOM     10  N   UNL     1      -0.989  11.124  22.191  0.00  0.00    +0.000 N 
ATOM     11  C   UNL     1      -1.989  12.150  22.308  0.00  0.00    +0.000 A 
ATOM     12  C   UNL     1      -2.295  12.669  23.563  0.00  0.00    +0.000 A 
ATOM     13  C   UNL     1      -3.289  13.643  23.658  0.00  0.00    +0.000 A 
ATOM     14  C   UNL     1      -3.951  14.068  22.512  0.00  0.00    +0.000 A 
ATOM     15  C   UNL     1      -3.585  13.509  21.302  0.00  0.00    +0.000 A 
ATOM     16  N   UNL     1      -2.625  12.571  21.180  0.00  0.00    +0.000 NA
ENDBRANCH   1   7
BRANCH   3  17
ATOM     17  C   UNL     1       2.133   6.470  20.129  0.00  0.00    +0.000 A 
ATOM     18  C   UNL     1       2.528   6.728  18.813  0.00  0.00    +0.000 A 
ATOM     19  C   UNL     1       3.153   5.743  18.056  0.00  0.00    +0.000 A 
ATOM     20  C   UNL     1       3.404   4.530  18.660  0.00  0.00    +0.000 A 
ATOM     21  N   UNL     1       3.067   4.242  19.942  0.00  0.00    +0.000 NA
ATOM     22  C   UNL     1       2.456   5.221  20.648  0.00  0.00    +0.000 A 
BRANCH  20  23
ATOM     23  O   UNL     1       4.028   3.570  17.877  0.00  0.00    +0.000 OA
BRANCH  23  24
ATOM     24  C   UNL     1       5.145   3.956  17.174  0.00  0.00    +0.000 A 
ATOM     25  C   UNL     1       6.227   4.623  17.758  0.00  0.00    +0.000 A 
ATOM     26  C   UNL     1       7.323   4.989  16.983  0.00  0.00    +0.000 A 
ATOM     27  C   UNL     1       7.325   4.723  15.615  0.00  0.00    +0.000 A 
ATOM     28  C   UNL     1       6.227   4.092  15.018  0.00  0.00    +0.000 A 
ATOM     29  C   UNL     1       5.131   3.713  15.800  0.00  0.00    +0.000 A 
BRANCH  28  30
ATOM     30  C   UNL     1       6.229   3.830  13.609  0.00  0.00    +0.000 C 
ATOM     31  N   UNL     1       6.232   3.616  12.469  0.00  0.00    +0.000 NA
ENDBRANCH  28  30
ENDBRANCH  23  24
ENDBRANCH  20  23
ENDBRANCH   3  17
TORSDOF 5
ENDMDL
MODEL 3
REMARK VINA RESULT:      -8.5      9.228     11.834
REMARK  Name = 
REMARK  6 active torsions:
REMARK  status: ('A' for Active; 'I' for Inactive)
REMARK    1  A    between atoms: C_1  and  C_2
REMARK    2  A    between atoms: C_3  and  C_4
REMARK    3  A    between atoms: N_6  and  C_7
REMARK    4  A    between atoms: C_10  and  O_11
REMARK    5  A    between atoms: O_11  and  C_12
REMARK    6  A    between atoms: C_16  and  C_17
REMARK                            x       y       z     vdW  Elec       q    Type
REMARK                         _______ _______ _______ _____ _____    ______ ____
ROOT
ATOM      1  C   UNL     1       0.314  10.154  19.787  0.00  0.00    +0.000 C 
ATOM      2  O   UNL     1      -0.875  10.170  19.486  0.00  0.00    +0.000 OA
ATOM      3  N   UNL     1       0.841  10.933  20.801  0.00  0.00    +0.000 N 
ATOM      4  H   UNL     1       1.841  11.069  20.835  0.00  0.00    +0.000 HD
ENDROOT
BRANCH   1   7
ATOM      5  C   UNL     1       1.620   7.420  20.787  0.00  0.00    +0.000 C 
ATOM      6  C   UNL     1       1.794   8.131  19.484  0.00  0.00    +0.000 A 
ATOM      7  C   UNL     1       1.248   9.329  19.030  0.00  0.00    +0.000 A 
ATOM      8  C   UNL     1       1.829   9.501  17.759  0.00  0.00    +0.000 A 
ATOM      9  N   UNL     1       2.655   8.512  17.418  0.00  0.00    +0.000 NA
ATOM     10  N   UNL     1       2.604   7.640  18.468  0.00  0.00    +0.000 N 
ATOM     11  C   UNL     1       3.309   6.388  18.439  0.00  0.00    +0.000 A 
ATOM     12  C   UNL     1       4.153   6.103  17.370  0.00  0.00    +0.000 A 
ATOM     13  C   UNL     1       4.807   4.870  17.346  0.00  0.00    +0.000 A 
ATOM     14  C   UNL     1       4.600   3.959  18.376  0.00  0.00    +0.000 A 
ATOM     15  C   UNL     1       3.753   4.321  19.406  0.00  0.00    +0.000 A 
ATOM     16  N   UNL     1       3.113   5.505  19.457  0.00  0.00    +0.000 NA
ENDBRANCH   1   7
BRANCH   3  17
ATOM     17  C   UNL     1       0.038  11.760  21.627  0.00  0.00    +0.000 A 
ATOM     18  C   UNL     1      -0.002  13.153  21.512  0.00  0.00    +0.000 A 
ATOM     19  C   UNL     1      -0.744  13.916  22.405  0.00  0.00    +0.000 A 
ATOM     20  C   UNL     1      -1.467  13.252  23.373  0.00  0.00    +0.000 A 
ATOM     21  N   UNL     1      -1.484  11.903  23.508  0.00  0.00    +0.000 NA
ATOM     22  C   UNL     1      -0.746  11.191  22.625  0.00  0.00    +0.000 A 
BRANCH  20  23
ATOM     23  O   UNL     1      -2.196  14.044  24.248  0.00  0.00    +0.000 OA
BRANCH  23  24
ATOM     24  C   UNL     1      -3.484  14.362  23.889  0.00  0.00    +0.000 A 
ATOM     25  C   UNL     1      -3.878  15.647  23.499  0.00  0.00    +0.000 A 
ATOM     26  C   UNL     1      -5.202  15.897  23.153  0.00  0.00    +0.000 A 
ATOM     27  C   UNL     1      -6.144  14.873  23.233  0.00  0.00    +0.000 A 
ATOM     28  C   UNL     1      -5.764  13.596  23.661  0.00  0.00    +0.000 A 
ATOM     29  C   UNL     1      -4.430  13.342  23.996  0.00  0.00    +0.000 A 
BRANCH  28  30
ATOM     30  C   UNL     1      -6.739  12.549  23.752  0.00  0.00    +0.000 C 
ATOM     31  N   UNL     1      -7.527  11.701  23.827  0.00  0.00    +0.000 NA
ENDBRANCH  28  30
ENDBRANCH  23  24
ENDBRANCH  20  23
ENDBRANCH   3  17
TORSDOF 5
ENDMDL
MODEL 4
REMARK VINA RESULT:      -8.4      1.201      1.249
REMARK  Name = 
REMARK  6 active torsions:
REMARK  status: ('A' for Active; 'I' for Inactive)
REMARK    1  A    between atoms: C_1  and  C_2
REMARK    2  A    between atoms: C_3  and  C_4
REMARK    3  A    between atoms: N_6  and  C_7
REMARK    4  A    between atoms: C_10  and  O_11
REMARK    5  A    between atoms: O_11  and  C_12
REMARK    6  A    between atoms: C_16  and  C_17
REMARK                            x       y       z     vdW  Elec       q    Type
REMARK                         _______ _______ _______ _____ _____    ______ ____
ROOT
ATOM      1  C   UNL     1       8.522   9.737  18.392  0.00  0.00    +0.000 C 
ATOM      2  O   UNL     1       7.525   9.957  17.712  0.00  0.00    +0.000 OA
ATOM      3  N   UNL     1       8.855   8.473  18.845  0.00  0.00    +0.000 N 
ATOM      4  H   UNL     1       9.526   8.391  19.594  0.00  0.00    +0.000 HD
ENDROOT
BRANCH   1   7
ATOM      5  C   UNL     1       8.300  12.754  17.379  0.00  0.00    +0.000 C 
ATOM      6  C   UNL     1       9.259  12.151  18.353  0.00  0.00    +0.000 A 
ATOM      7  C   UNL     1       9.386  10.838  18.800  0.00  0.00    +0.000 A 
ATOM      8  C   UNL     1      10.501  10.882  19.659  0.00  0.00    +0.000 A 
ATOM      9  N   UNL     1      11.035  12.098  19.768  0.00  0.00    +0.000 NA
ATOM     10  N   UNL     1      10.242  12.896  18.993  0.00  0.00    +0.000 N 
ATOM     11  C   UNL     1      10.452  14.315  18.917  0.00  0.00    +0.000 A 
ATOM     12  C   UNL     1      11.551  14.881  19.556  0.00  0.00    +0.000 A 
ATOM     13  C   UNL     1      11.721  16.264  19.496  0.00  0.00    +0.000 A 
ATOM     14  C   UNL     1      10.796  17.043  18.809  0.00  0.00    +0.000 A 
ATOM     15  C   UNL     1       9.735  16.406  18.195  0.00  0.00    +0.000 A 
ATOM     16  N   UNL     1       9.549  15.072  18.233  0.00  0.00    +0.000 NA
ENDBRANCH   1   7
BRANCH   3  17
ATOM     17  C   UNL     1       8.112   7.315  18.500  0.00  0.00    +0.000 A 
ATOM     18  C   UNL     1       7.410   7.184  17.298  0.00  0.00    +0.000 A 
ATOM     19  C   UNL     1       6.631   6.059  17.053  0.00  0.00    +0.000 A 
ATOM     20  C   UNL     1       6.611   5.068  18.011  0.00  0.00    +0.000 A 
ATOM     21  N   UNL     1       7.297   5.136  19.178  0.00  0.00    +0.000 NA
ATOM     22  C   UNL     1       8.041   6.247  19.387  0.00  0.00    +0.000 A 
BRANCH  20  23
ATOM     23  O   UNL     1       5.824   3.961  17.734  0.00  0.00    +0.000 OA
BRANCH  23  24
ATOM     24  C   UNL     1       4.464   4.101  17.877  0.00  0.00    +0.000 A 
ATOM     25  C   UNL     1       3.534   3.326  17.176  0.00  0.00    +0.000 A 
ATOM     26  C   UNL     1       2.170   3.526  17.368  0.00  0.00    +0.000 A 
ATOM     27  C   UNL     1       1.732   4.528  18.232  0.00  0.00    +0.000 A 
ATOM     28  C   UNL     1       2.658   5.333  18.906  0.00  0.00    +0.000 A 
ATOM     29  C   UNL     1       4.029   5.122  18.722  0.00  0.00    +0.000 A 
BRANCH  28  30
ATOM     30  C   UNL     1       2.203   6.369  19.785  0.00  0.00    +0.000 C 
ATOM     31  N   UNL     1       1.837   7.209  20.498  0.00  0.00    +0.000 NA
ENDBRANCH  28  30
ENDBRANCH  23  24
ENDBRANCH  20  23
ENDBRANCH   3  17
TORSDOF 5
ENDMDL
MODEL 5
REMARK VINA RESULT:      -8.4      6.848      8.173
REMARK  Name = 
REMARK  6 active torsions:
REMARK  status: ('A' for Active; 'I' for Inactive)
REMARK    1  A    between atoms: C_1  and  C_2
REMARK    2  A    between atoms: C_3  and  C_4
REMARK    3  A    between atoms: N_6  and  C_7
REMARK    4  A    between atoms: C_10  and  O_11
REMARK    5  A    between atoms: O_11  and  C_12
REMARK    6  A    between atoms: C_16  and  C_17
REMARK                            x       y       z     vdW  Elec       q    Type
REMARK                         _______ _______ _______ _____ _____    ______ ____
ROOT
ATOM      1  C   UNL     1       0.044  10.521  18.820  0.00  0.00    +0.000 C 
ATOM      2  O   UNL     1      -0.490   9.889  17.914  0.00  0.00    +0.000 OA
ATOM      3  N   UNL     1       1.105  10.024  19.556  0.00  0.00    +0.000 N 
ATOM      4  H   UNL     1       1.332  10.468  20.434  0.00  0.00    +0.000 HD
ENDROOT
BRANCH   1   7
ATOM      5  C   UNL     1       1.520  13.308  18.342  0.00  0.00    +0.000 C 
ATOM      6  C   UNL     1       0.189  13.037  18.965  0.00  0.00    +0.000 A 
ATOM      7  C   UNL     1      -0.470  11.832  19.197  0.00  0.00    +0.000 A 
ATOM      8  C   UNL     1      -1.650  12.218  19.861  0.00  0.00    +0.000 A 
ATOM      9  N   UNL     1      -1.752  13.536  20.030  0.00  0.00    +0.000 NA
ATOM     10  N   UNL     1      -0.634  14.051  19.439  0.00  0.00    +0.000 N 
ATOM     11  C   UNL     1      -0.420  15.468  19.342  0.00  0.00    +0.000 A 
ATOM     12  C   UNL     1      -1.313  16.339  19.961  0.00  0.00    +0.000 A 
ATOM     13  C   UNL     1      -1.104  17.713  19.832  0.00  0.00    +0.000 A 
ATOM     14  C   UNL     1      -0.023  18.179  19.091  0.00  0.00    +0.000 A 
ATOM     15  C   UNL     1       0.821  17.251  18.514  0.00  0.00    +0.000 A 
ATOM     16  N   UNL     1       0.647  15.920  18.626  0.00  0.00    +0.000 NA
ENDBRANCH   1   7
BRANCH   3  17
ATOM     17  C   UNL     1       1.712   8.774  19.276  0.00  0.00    +0.000 A 
ATOM     18  C   UNL     1       2.314   8.470  18.051  0.00  0.00    +0.000 A 
ATOM     19  C   UNL     1       2.818   7.199  17.806  0.00  0.00    +0.000 A 
ATOM     20  C   UNL     1       2.742   6.269  18.821  0.00  0.00    +0.000 A 
ATOM     21  N   UNL     1       2.194   6.524  20.035  0.00  0.00    +0.000 NA
ATOM     22  C   UNL     1       1.708   7.770  20.238  0.00  0.00    +0.000 A 
BRANCH  20  23
ATOM     23  O   UNL     1       3.254   5.011  18.542  0.00  0.00    +0.000 OA
BRANCH  23  24
ATOM     24  C   UNL     1       4.553   4.941  18.097  0.00  0.00    +0.000 A 
ATOM     25  C   UNL     1       5.656   5.274  18.891  0.00  0.00    +0.000 A 
ATOM     26  C   UNL     1       6.944   5.185  18.371  0.00  0.00    +0.000 A 
ATOM     27  C   UNL     1       7.130   4.799  17.045  0.00  0.00    +0.000 A 
ATOM     28  C   UNL     1       6.028   4.504  16.234  0.00  0.00    +0.000 A 
ATOM     29  C   UNL     1       4.735   4.582  16.761  0.00  0.00    +0.000 A 
BRANCH  28  30
ATOM     30  C   UNL     1       6.224   4.118  14.868  0.00  0.00    +0.000 C 
ATOM     31  N   UNL     1       6.384   3.803  13.763  0.00  0.00    +0.000 NA
ENDBRANCH  28  30
ENDBRANCH  23  24
ENDBRANCH  20  23
ENDBRANCH   3  17
TORSDOF 5
ENDMDL
MODEL 6
REMARK VINA RESULT:      -8.4      1.537      1.779
REMARK  Name = 
REMARK  6 active torsions:
REMARK  status: ('A' for Active; 'I' for Inactive)
REMARK    1  A    between atoms: C_1  and  C_2
REMARK    2  A    between atoms: C_3  and  C_4
REMARK    3  A    between atoms: N_6  and  C_7
REMARK    4  A    between atoms: C_10  and  O_11
REMARK    5  A    between atoms: O_11  and  C_12
REMARK    6  A    between atoms: C_16  and  C_17
REMARK                            x       y       z     vdW  Elec       q    Type
REMARK                         _______ _______ _______ _____ _____    ______ ____
ROOT
ATOM      1  C   UNL     1       9.351  10.353  19.176  0.00  0.00    +0.000 C 
ATOM      2  O   UNL     1       8.902  10.066  20.282  0.00  0.00    +0.000 OA
ATOM      3  N   UNL     1       9.106   9.590  18.049  0.00  0.00    +0.000 N 
ATOM      4  H   UNL     1       9.694   9.724  17.239  0.00  0.00    +0.000 HD
ENDROOT
BRANCH   1   7
ATOM      5  C   UNL     1       8.551  13.118  17.802  0.00  0.00    +0.000 C 
ATOM      6  C   UNL     1       9.845  12.712  18.427  0.00  0.00    +0.000 A 
ATOM      7  C   UNL     1      10.224  11.510  19.019  0.00  0.00    +0.000 A 
ATOM      8  C   UNL     1      11.574  11.716  19.364  0.00  0.00    +0.000 A 
ATOM      9  N   UNL     1      12.021  12.929  19.041  0.00  0.00    +0.000 NA
ATOM     10  N   UNL     1      10.940  13.564  18.498  0.00  0.00    +0.000 N 
ATOM     11  C   UNL     1      11.004  14.942  18.095  0.00  0.00    +0.000 A 
ATOM     12  C   UNL     1      12.220  15.617  18.153  0.00  0.00    +0.000 A 
ATOM     13  C   UNL     1      12.255  16.962  17.785  0.00  0.00    +0.000 A 
ATOM     14  C   UNL     1      11.087  17.597  17.376  0.00  0.00    +0.000 A 
ATOM     15  C   UNL     1       9.922  16.855  17.339  0.00  0.00    +0.000 A 
ATOM     16  N   UNL     1       9.860  15.555  17.684  0.00  0.00    +0.000 NA
ENDBRANCH   1   7
BRANCH   3  17
ATOM     17  C   UNL     1       8.256   8.455  18.061  0.00  0.00    +0.000 A 
ATOM     18  C   UNL     1       8.468   7.346  18.886  0.00  0.00    +0.000 A 
ATOM     19  C   UNL     1       7.649   6.227  18.793  0.00  0.00    +0.000 A 
ATOM     20  C   UNL     1       6.602   6.270  17.897  0.00  0.00    +0.000 A 
ATOM     21  N   UNL     1       6.337   7.332  17.097  0.00  0.00    +0.000 NA
ATOM     22  C   UNL     1       7.158   8.401  17.210  0.00  0.00    +0.000 A 
BRANCH  20  23
ATOM     23  O   UNL     1       5.804   5.137  17.830  0.00  0.00    +0.000 OA
BRANCH  23  24
ATOM     24  C   UNL     1       4.523   5.236  18.319  0.00  0.00    +0.000 A 
ATOM     25  C   UNL     1       3.579   6.139  17.819  0.00  0.00    +0.000 A 
ATOM     26  C   UNL     1       2.300   6.188  18.366  0.00  0.00    +0.000 A 
ATOM     27  C   UNL     1       1.974   5.361  19.439  0.00  0.00    +0.000 A 
ATOM     28  C   UNL     1       2.927   4.484  19.969  0.00  0.00    +0.000 A 
ATOM     29  C   UNL     1       4.208   4.426  19.410  0.00  0.00    +0.000 A 
BRANCH  28  30
ATOM     30  C   UNL     1       2.590   3.643  21.079  0.00  0.00    +0.000 C 
ATOM     31  N   UNL     1       2.314   2.961  21.977  0.00  0.00    +0.000 NA
ENDBRANCH  28  30
ENDBRANCH  23  24
ENDBRANCH  20  23
ENDBRANCH   3  17
TORSDOF 5
ENDMDL
MODEL 7
REMARK VINA RESULT:      -8.4      6.693      8.706
REMARK  Name = 
REMARK  6 active torsions:
REMARK  status: ('A' for Active; 'I' for Inactive)
REMARK    1  A    between atoms: C_1  and  C_2
REMARK    2  A    between atoms: C_3  and  C_4
REMARK    3  A    between atoms: N_6  and  C_7
REMARK    4  A    between atoms: C_10  and  O_11
REMARK    5  A    between atoms: O_11  and  C_12
REMARK    6  A    between atoms: C_16  and  C_17
REMARK                            x       y       z     vdW  Elec       q    Type
REMARK                         _______ _______ _______ _____ _____    ______ ____
ROOT
ATOM      1  C   UNL     1       1.111   8.597  20.612  0.00  0.00    +0.000 C 
ATOM      2  O   UNL     1       1.340   8.883  19.441  0.00  0.00    +0.000 OA
ATOM      3  N   UNL     1       1.386   7.351  21.147  0.00  0.00    +0.000 N 
ATOM      4  H   UNL     1       0.953   7.096  22.022  0.00  0.00    +0.000 HD
ENDROOT
BRANCH   1   7
ATOM      5  C   UNL     1       0.083  11.491  19.751  0.00  0.00    +0.000 C 
ATOM      6  C   UNL     1       0.022  10.824  21.087  0.00  0.00    +0.000 A 
ATOM      7  C   UNL     1       0.475   9.571  21.491  0.00  0.00    +0.000 A 
ATOM      8  C   UNL     1       0.188   9.539  22.869  0.00  0.00    +0.000 A 
ATOM      9  N   UNL     1      -0.402  10.649  23.311  0.00  0.00    +0.000 NA
ATOM     10  N   UNL     1      -0.545  11.432  22.200  0.00  0.00    +0.000 N 
ATOM     11  C   UNL     1      -1.222  12.698  22.256  0.00  0.00    +0.000 A 
ATOM     12  C   UNL     1      -1.646  13.194  23.485  0.00  0.00    +0.000 A 
ATOM     13  C   UNL     1      -2.328  14.411  23.515  0.00  0.00    +0.000 A 
ATOM     14  C   UNL     1      -2.571  15.095  22.329  0.00  0.00    +0.000 A 
ATOM     15  C   UNL     1      -2.111  14.539  21.150  0.00  0.00    +0.000 A 
ATOM     16  N   UNL     1      -1.447  13.369  21.093  0.00  0.00    +0.000 NA
ENDBRANCH   1   7
BRANCH   3  17
ATOM     17  C   UNL     1       2.024   6.324  20.407  0.00  0.00    +0.000 A 
ATOM     18  C   UNL     1       2.132   5.005  20.859  0.00  0.00    +0.000 A 
ATOM     19  C   UNL     1       2.843   4.061  20.127  0.00  0.00    +0.000 A 
ATOM     20  C   UNL     1       3.394   4.460  18.928  0.00  0.00    +0.000 A 
ATOM     21  N   UNL     1       3.293   5.718  18.433  0.00  0.00    +0.000 NA
ATOM     22  C   UNL     1       2.599   6.612  19.174  0.00  0.00    +0.000 A 
BRANCH  20  23
ATOM     23  O   UNL     1       4.097   3.493  18.223  0.00  0.00    +0.000 OA
BRANCH  23  24
ATOM     24  C   UNL     1       5.197   3.905  17.510  0.00  0.00    +0.000 A 
ATOM     25  C   UNL     1       6.284   4.567  18.090  0.00  0.00    +0.000 A 
ATOM     26  C   UNL     1       7.363   4.961  17.305  0.00  0.00    +0.000 A 
ATOM     27  C   UNL     1       7.342   4.728  15.931  0.00  0.00    +0.000 A 
ATOM     28  C   UNL     1       6.238   4.102  15.339  0.00  0.00    +0.000 A 
ATOM     29  C   UNL     1       5.160   3.695  16.131  0.00  0.00    +0.000 A 
BRANCH  28  30
ATOM     30  C   UNL     1       6.216   3.873  13.924  0.00  0.00    +0.000 C 
ATOM     31  N   UNL     1       6.201   3.687  12.779  0.00  0.00    +0.000 NA
ENDBRANCH  28  30
ENDBRANCH  23  24
ENDBRANCH  20  23
ENDBRANCH   3  17
TORSDOF 5
ENDMDL
MODEL 8
REMARK VINA RESULT:      -8.4      6.704      8.269
REMARK  Name = 
REMARK  6 active torsions:
REMARK  status: ('A' for Active; 'I' for Inactive)
REMARK    1  A    between atoms: C_1  and  C_2
REMARK    2  A    between atoms: C_3  and  C_4
REMARK    3  A    between atoms: N_6  and  C_7
REMARK    4  A    between atoms: C_10  and  O_11
REMARK    5  A    between atoms: O_11  and  C_12
REMARK    6  A    between atoms: C_16  and  C_17
REMARK                            x       y       z     vdW  Elec       q    Type
REMARK                         _______ _______ _______ _____ _____    ______ ____
ROOT
ATOM      1  C   UNL     1       0.643   9.348  20.463  0.00  0.00    +0.000 C 
ATOM      2  O   UNL     1       0.412   9.380  19.259  0.00  0.00    +0.000 OA
ATOM      3  N   UNL     1       1.272   8.280  21.078  0.00  0.00    +0.000 N 
ATOM      4  H   UNL     1       1.208   8.197  22.082  0.00  0.00    +0.000 HD
ENDROOT
BRANCH   1   7
ATOM      5  C   UNL     1       1.087  12.455  19.891  0.00  0.00    +0.000 C 
ATOM      6  C   UNL     1       0.398  11.794  21.040  0.00  0.00    +0.000 A 
ATOM      7  C   UNL     1       0.204  10.443  21.320  0.00  0.00    +0.000 A 
ATOM      8  C   UNL     1      -0.454  10.450  22.565  0.00  0.00    +0.000 A 
ATOM      9  N   UNL     1      -0.676  11.676  23.037  0.00  0.00    +0.000 NA
ATOM     10  N   UNL     1      -0.187  12.513  22.075  0.00  0.00    +0.000 N 
ATOM     11  C   UNL     1      -0.316  13.940  22.184  0.00  0.00    +0.000 A 
ATOM     12  C   UNL     1      -0.851  14.492  23.344  0.00  0.00    +0.000 A 
ATOM     13  C   UNL     1      -0.995  15.878  23.420  0.00  0.00    +0.000 A 
ATOM     14  C   UNL     1      -0.611  16.671  22.344  0.00  0.00    +0.000 A 
ATOM     15  C   UNL     1      -0.081  16.047  21.231  0.00  0.00    +0.000 A 
ATOM     16  N   UNL     1       0.074  14.713  21.133  0.00  0.00    +0.000 NA
ENDBRANCH   1   7
BRANCH   3  17
ATOM     17  C   UNL     1       1.768   7.165  20.357  0.00  0.00    +0.000 A 
ATOM     18  C   UNL     1       1.666   5.848  20.814  0.00  0.00    +0.000 A 
ATOM     19  C   UNL     1       2.247   4.805  20.102  0.00  0.00    +0.000 A 
ATOM     20  C   UNL     1       2.883   5.109  18.918  0.00  0.00    +0.000 A 
ATOM     21  N   UNL     1       2.983   6.365  18.418  0.00  0.00    +0.000 NA
ATOM     22  C   UNL     1       2.412   7.358  19.139  0.00  0.00    +0.000 A 
BRANCH  20  23
ATOM     23  O   UNL     1       3.451   4.044  18.234  0.00  0.00    +0.000 OA
BRANCH  23  24
ATOM     24  C   UNL     1       4.719   4.220  17.732  0.00  0.00    +0.000 A 
ATOM     25  C   UNL     1       5.804   4.630  18.513  0.00  0.00    +0.000 A 
ATOM     26  C   UNL     1       7.060   4.792  17.936  0.00  0.00    +0.000 A 
ATOM     27  C   UNL     1       7.225   4.582  16.568  0.00  0.00    +0.000 A 
ATOM     28  C   UNL     1       6.134   4.210  15.774  0.00  0.00    +0.000 A 
ATOM     29  C   UNL     1       4.875   4.035  16.358  0.00  0.00    +0.000 A 
BRANCH  28  30
ATOM     30  C   UNL     1       6.308   4.005  14.366  0.00  0.00    +0.000 C 
ATOM     31  N   UNL     1       6.446   3.837  13.226  0.00  0.00    +0.000 NA
ENDBRANCH  28  30
ENDBRANCH  23  24
ENDBRANCH  20  23
ENDBRANCH   3  17
TORSDOF 5
ENDMDL
MODEL 9
REMARK VINA RESULT:      -8.4      1.743      2.054
REMARK  Name = 
REMARK  6 active torsions:
REMARK  status: ('A' for Active; 'I' for Inactive)
REMARK    1  A    between atoms: C_1  and  C_2
REMARK    2  A    between atoms: C_3  and  C_4
REMARK    3  A    between atoms: N_6  and  C_7
REMARK    4  A    between atoms: C_10  and  O_11
REMARK    5  A    between atoms: O_11  and  C_12
REMARK    6  A    between atoms: C_16  and  C_17
REMARK                            x       y       z     vdW  Elec       q    Type
REMARK                         _______ _______ _______ _____ _____    ______ ____
ROOT
ATOM      1  C   UNL     1       9.109  10.072  18.727  0.00  0.00    +0.000 C 
ATOM      2  O   UNL     1       8.830   9.803  19.891  0.00  0.00    +0.000 OA
ATOM      3  N   UNL     1       8.715   9.283  17.661  0.00  0.00    +0.000 N 
ATOM      4  H   UNL     1       9.178   9.409  16.772  0.00  0.00    +0.000 HD
ENDROOT
BRANCH   1   7
ATOM      5  C   UNL     1       8.026  12.990  18.028  0.00  0.00    +0.000 C 
ATOM      6  C   UNL     1       9.435  12.504  18.135  0.00  0.00    +0.000 A 
ATOM      7  C   UNL     1       9.933  11.236  18.424  0.00  0.00    +0.000 A 
ATOM      8  C   UNL     1      11.329  11.392  18.321  0.00  0.00    +0.000 A 
ATOM      9  N   UNL     1      11.699  12.635  18.011  0.00  0.00    +0.000 NA
ATOM     10  N   UNL     1      10.530  13.337  17.936  0.00  0.00    +0.000 N 
ATOM     11  C   UNL     1      10.519  14.753  17.697  0.00  0.00    +0.000 A 
ATOM     12  C   UNL     1      11.715  15.411  17.426  0.00  0.00    +0.000 A 
ATOM     13  C   UNL     1      11.687  16.792  17.226  0.00  0.00    +0.000 A 
ATOM     14  C   UNL     1      10.480  17.477  17.305  0.00  0.00    +0.000 A 
ATOM     15  C   UNL     1       9.335  16.750  17.572  0.00  0.00    +0.000 A 
ATOM     16  N   UNL     1       9.332  15.417  17.764  0.00  0.00    +0.000 NA
ENDBRANCH   1   7
BRANCH   3  17
ATOM     17  C   UNL     1       7.893   8.139  17.817  0.00  0.00    +0.000 A 
ATOM     18  C   UNL     1       8.229   7.059  18.640  0.00  0.00    +0.000 A 
ATOM     19  C   UNL     1       7.423   5.928  18.687  0.00  0.00    +0.000 A 
ATOM     20  C   UNL     1       6.268   5.928  17.934  0.00  0.00    +0.000 A 
ATOM     21  N   UNL     1       5.885   6.962  17.145  0.00  0.00    +0.000 NA
ATOM     22  C   UNL     1       6.696   8.045  17.117  0.00  0.00    +0.000 A 
BRANCH  20  23
ATOM     23  O   UNL     1       5.488   4.784  18.005  0.00  0.00    +0.000 OA
BRANCH  23  24
ATOM     24  C   UNL     1       4.258   4.894  18.610  0.00  0.00    +0.000 A 
ATOM     25  C   UNL     1       3.929   5.924  19.497  0.00  0.00    +0.000 A 
ATOM     26  C   UNL     1       2.664   5.969  20.076  0.00  0.00    +0.000 A 
ATOM     27  C   UNL     1       1.739   4.965  19.800  0.00  0.00    +0.000 A 
ATOM     28  C   UNL     1       2.078   3.909  18.944  0.00  0.00    +0.000 A 
ATOM     29  C   UNL     1       3.344   3.872  18.352  0.00  0.00    +0.000 A 
BRANCH  28  30
ATOM     30  C   UNL     1       1.126   2.873  18.671  0.00  0.00    +0.000 C 
ATOM     31  N   UNL     1       0.358   2.032  18.448  0.00  0.00    +0.000 NA
ENDBRANCH  28  30
ENDBRANCH  23  24
ENDBRANCH  20  23
ENDBRANCH   3  17
TORSDOF 5
ENDMDL
