MODEL 1
REMARK VINA RESULT:      -9.2      0.000      0.000
REMARK  Name = 
REMARK  6 active torsions:
REMARK  status: ('A' for Active; 'I' for Inactive)
REMARK    1  A    between atoms: C_1  and  N_2
REMARK    2  A    between atoms: C_6  and  C_7
REMARK    3  A    between atoms: C_7  and  C_8
REMARK    4  A    between atoms: C_8  and  C_9
REMARK    5  A    between atoms: C_11  and  N_12
REMARK    6  A    between atoms: C_19  and  C_20
REMARK                            x       y       z     vdW  Elec       q    Type
REMARK                         _______ _______ _______ _____ _____    ______ ____
ROOT
ATOM      1  C   UNL     1       5.367   5.508  18.755  0.00  0.00    +0.000 A 
ATOM      2  C   UNL     1       4.389   6.497  18.734  0.00  0.00    +0.000 A 
ATOM      3  C   UNL     1       3.143   6.270  19.315  0.00  0.00    +0.000 A 
ATOM      4  C   UNL     1       2.862   5.007  19.820  0.00  0.00    +0.000 A 
ATOM      5  C   UNL     1       3.838   4.036  19.709  0.00  0.00    +0.000 A 
ATOM      6  N   UNL     1       5.071   4.265  19.216  0.00  0.00    +0.000 NA
ENDROOT
BRANCH   3   7
ATOM      7  N   UNL     1       2.218   7.327  19.432  0.00  0.00    +0.000 N 
ATOM      8  C   UNL     1       1.542   7.607  20.691  0.00  0.00    +0.000 C 
ATOM      9  C   UNL     1       0.898   8.933  20.439  0.00  0.00    +0.000 A 
ATOM     10  C   UNL     1       1.194   9.358  19.142  0.00  0.00    +0.000 A 
ATOM     11  C   UNL     1       0.736  10.548  18.614  0.00  0.00    +0.000 A 
ATOM     12  C   UNL     1      -0.060  11.347  19.435  0.00  0.00    +0.000 A 
ATOM     13  C   UNL     1      -0.359  10.942  20.749  0.00  0.00    +0.000 A 
ATOM     14  C   UNL     1       0.117   9.726  21.275  0.00  0.00    +0.000 A 
ATOM     15  C   UNL     1       2.055   8.359  18.506  0.00  0.00    +0.000 C 
ATOM     16  O   UNL     1       2.481   8.474  17.376  0.00  0.00    +0.000 OA
BRANCH  14  17
ATOM     17  C   UNL     1      -0.159   9.342  22.702  0.00  0.00    +0.000 C 
ATOM     18  F   UNL     1       0.950   9.400  23.491  0.00  0.00    +0.000 F 
ATOM     19  F   UNL     1      -1.080  10.146  23.303  0.00  0.00    +0.000 F 
ENDBRANCH  14  17
ENDBRANCH   3   7
BRANCH   1  20
ATOM     20  C   UNL     1       6.860   5.688  18.252  0.00  0.00    +0.000 C 
ATOM     21  C   UNL     1       7.293   7.077  17.724  0.00  0.00    +0.000 C 
ATOM     22  O   UNL     1       8.330   7.201  18.724  0.00  0.00    +0.000 OA
ATOM     23  C   UNL     1       7.874   5.999  19.385  0.00  0.00    +0.000 C 
BRANCH  20  24
ATOM     24  C   UNL     1       7.376   4.532  17.364  0.00  0.00    +0.000 C 
BRANCH  24  30
ATOM     25  C   UNL     1       4.704   3.459  15.985  0.00  0.00    +0.000 C 
ATOM     26  N   UNL     1       5.813   4.125  15.360  0.00  0.00    +0.000 N 
ATOM     27  C   UNL     1       5.852   4.496  14.048  0.00  0.00    +0.000 A 
ATOM     28  N   UNL     1       6.990   5.090  13.791  0.00  0.00    +0.000 NA
ATOM     29  N   UNL     1       7.701   5.136  14.962  0.00  0.00    +0.000 NA
ATOM     30  C   UNL     1       6.995   4.556  15.916  0.00  0.00    +0.000 A 
ENDBRANCH  24  30
ENDBRANCH  20  24
ENDBRANCH   1  20
TORSDOF 5
ENDMDL
MODEL 2
REMARK VINA RESULT:      -8.4      0.820      1.032
REMARK  Name = 
REMARK  6 active torsions:
REMARK  status: ('A' for Active; 'I' for Inactive)
REMARK    1  A    between atoms: C_1  and  N_2
REMARK    2  A    between atoms: C_6  and  C_7
REMARK    3  A    between atoms: C_7  and  C_8
REMARK    4  A    between atoms: C_8  and  C_9
REMARK    5  A    between atoms: C_11  and  N_12
REMARK    6  A    between atoms: C_19  and  C_20
REMARK                            x       y       z     vdW  Elec       q    Type
REMARK                         _______ _______ _______ _____ _____    ______ ____
ROOT
ATOM      1  C   UNL     1       4.944   5.618  18.689  0.00  0.00    +0.000 A 
ATOM      2  C   UNL     1       4.023   6.660  18.678  0.00  0.00    +0.000 A 
ATOM      3  C   UNL     1       2.817   6.543  19.369  0.00  0.00    +0.000 A 
ATOM      4  C   UNL     1       2.511   5.332  19.977  0.00  0.00    +0.000 A 
ATOM      5  C   UNL     1       3.421   4.301  19.855  0.00  0.00    +0.000 A 
ATOM      6  N   UNL     1       4.621   4.425  19.253  0.00  0.00    +0.000 NA
ENDROOT
BRANCH   3   7
ATOM      7  N   UNL     1       1.963   7.657  19.487  0.00  0.00    +0.000 N 
ATOM      8  C   UNL     1       1.342   8.006  20.757  0.00  0.00    +0.000 C 
ATOM      9  C   UNL     1       0.774   9.364  20.493  0.00  0.00    +0.000 A 
ATOM     10  C   UNL     1       1.058   9.742  19.180  0.00  0.00    +0.000 A 
ATOM     11  C   UNL     1       0.660  10.947  18.637  0.00  0.00    +0.000 A 
ATOM     12  C   UNL     1      -0.061  11.811  19.461  0.00  0.00    +0.000 A 
ATOM     13  C   UNL     1      -0.347  11.453  20.793  0.00  0.00    +0.000 A 
ATOM     14  C   UNL     1       0.069  10.221  21.332  0.00  0.00    +0.000 A 
ATOM     15  C   UNL     1       1.838   8.678  18.543  0.00  0.00    +0.000 C 
ATOM     16  O   UNL     1       2.237   8.743  17.399  0.00  0.00    +0.000 OA
BRANCH  14  17
ATOM     17  C   UNL     1      -0.189   9.885  22.774  0.00  0.00    +0.000 C 
ATOM     18  F   UNL     1      -0.879  10.859  23.431  0.00  0.00    +0.000 F 
ATOM     19  F   UNL     1      -0.919   8.746  22.937  0.00  0.00    +0.000 F 
ENDBRANCH  14  17
ENDBRANCH   3   7
BRANCH   1  20
ATOM     20  C   UNL     1       6.399   5.678  18.060  0.00  0.00    +0.000 C 
ATOM     21  C   UNL     1       7.571   6.120  18.968  0.00  0.00    +0.000 C 
ATOM     22  O   UNL     1       8.273   4.871  18.773  0.00  0.00    +0.000 OA
ATOM     23  C   UNL     1       7.144   4.317  18.062  0.00  0.00    +0.000 C 
BRANCH  20  24
ATOM     24  C   UNL     1       6.460   6.328  16.659  0.00  0.00    +0.000 C 
BRANCH  24  30
ATOM     25  C   UNL     1       4.407   4.094  15.666  0.00  0.00    +0.000 C 
ATOM     26  N   UNL     1       5.645   4.489  15.053  0.00  0.00    +0.000 N 
ATOM     27  C   UNL     1       6.101   4.015  13.858  0.00  0.00    +0.000 A 
ATOM     28  N   UNL     1       7.248   4.577  13.571  0.00  0.00    +0.000 NA
ATOM     29  N   UNL     1       7.538   5.457  14.581  0.00  0.00    +0.000 NA
ATOM     30  C   UNL     1       6.571   5.411  15.480  0.00  0.00    +0.000 A 
ENDBRANCH  24  30
ENDBRANCH  20  24
ENDBRANCH   1  20
TORSDOF 5
ENDMDL
MODEL 3
REMARK VINA RESULT:      -8.3      2.762      4.343
REMARK  Name = 
REMARK  6 active torsions:
REMARK  status: ('A' for Active; 'I' for Inactive)
REMARK    1  A    between atoms: C_1  and  N_2
REMARK    2  A    between atoms: C_6  and  C_7
REMARK    3  A    between atoms: C_7  and  C_8
REMARK    4  A    between atoms: C_8  and  C_9
REMARK    5  A    between atoms: C_11  and  N_12
REMARK    6  A    between atoms: C_19  and  C_20
REMARK                            x       y       z     vdW  Elec       q    Type
REMARK                         _______ _______ _______ _____ _____    ______ ____
ROOT
ATOM      1  C   UNL     1       2.625   6.022  18.929  0.00  0.00    +0.000 A 
ATOM      2  C   UNL     1       2.028   7.004  19.713  0.00  0.00    +0.000 A 
ATOM      3  C   UNL     1       1.908   8.310  19.240  0.00  0.00    +0.000 A 
ATOM      4  C   UNL     1       2.488   8.633  18.020  0.00  0.00    +0.000 A 
ATOM      5  C   UNL     1       3.163   7.638  17.342  0.00  0.00    +0.000 A 
ATOM      6  N   UNL     1       3.222   6.355  17.755  0.00  0.00    +0.000 NA
ENDROOT
BRANCH   3   7
ATOM      7  N   UNL     1       1.163   9.257  19.969  0.00  0.00    +0.000 N 
ATOM      8  C   UNL     1       0.261  10.188  19.305  0.00  0.00    +0.000 C 
ATOM      9  C   UNL     1      -0.502  10.788  20.443  0.00  0.00    +0.000 A 
ATOM     10  C   UNL     1      -0.061  10.234  21.645  0.00  0.00    +0.000 A 
ATOM     11  C   UNL     1      -0.574  10.591  22.876  0.00  0.00    +0.000 A 
ATOM     12  C   UNL     1      -1.581  11.556  22.891  0.00  0.00    +0.000 A 
ATOM     13  C   UNL     1      -2.048  12.117  21.688  0.00  0.00    +0.000 A 
ATOM     14  C   UNL     1      -1.516  11.741  20.440  0.00  0.00    +0.000 A 
ATOM     15  C   UNL     1       0.975   9.240  21.352  0.00  0.00    +0.000 C 
ATOM     16  O   UNL     1       1.530   8.589  22.212  0.00  0.00    +0.000 OA
BRANCH  14  17
ATOM     17  C   UNL     1      -2.073  12.304  19.163  0.00  0.00    +0.000 C 
ATOM     18  F   UNL     1      -1.131  12.931  18.403  0.00  0.00    +0.000 F 
ATOM     19  F   UNL     1      -2.623  11.355  18.355  0.00  0.00    +0.000 F 
ENDBRANCH  14  17
ENDBRANCH   3   7
BRANCH   1  20
ATOM     20  C   UNL     1       2.700   4.481  19.294  0.00  0.00    +0.000 C 
ATOM     21  C   UNL     1       2.514   4.069  20.774  0.00  0.00    +0.000 C 
ATOM     22  O   UNL     1       1.366   3.247  20.464  0.00  0.00    +0.000 OA
ATOM     23  C   UNL     1       1.361   3.721  19.100  0.00  0.00    +0.000 C 
BRANCH  20  24
ATOM     24  C   UNL     1       3.860   3.722  18.611  0.00  0.00    +0.000 C 
BRANCH  24  30
ATOM     25  C   UNL     1       6.086   4.191  16.373  0.00  0.00    +0.000 C 
ATOM     26  N   UNL     1       6.157   4.520  17.769  0.00  0.00    +0.000 N 
ATOM     27  C   UNL     1       7.190   5.193  18.354  0.00  0.00    +0.000 A 
ATOM     28  N   UNL     1       6.949   5.346  19.631  0.00  0.00    +0.000 NA
ATOM     29  N   UNL     1       5.724   4.788  19.887  0.00  0.00    +0.000 NA
ATOM     30  C   UNL     1       5.237   4.288  18.765  0.00  0.00    +0.000 A 
ENDBRANCH  24  30
ENDBRANCH  20  24
ENDBRANCH   1  20
TORSDOF 5
ENDMDL
MODEL 4
REMARK VINA RESULT:      -8.3      2.149      2.788
REMARK  Name = 
REMARK  6 active torsions:
REMARK  status: ('A' for Active; 'I' for Inactive)
REMARK    1  A    between atoms: C_1  and  N_2
REMARK    2  A    between atoms: C_6  and  C_7
REMARK    3  A    between atoms: C_7  and  C_8
REMARK    4  A    between atoms: C_8  and  C_9
REMARK    5  A    between atoms: C_11  and  N_12
REMARK    6  A    between atoms: C_19  and  C_20
REMARK                            x       y       z     vdW  Elec       q    Type
REMARK                         _______ _______ _______ _____ _____    ______ ____
ROOT
ATOM      1  C   UNL     1       4.501   5.080  17.218  0.00  0.00    +0.000 A 
ATOM      2  C   UNL     1       3.978   6.191  17.873  0.00  0.00    +0.000 A 
ATOM      3  C   UNL     1       2.680   6.165  18.381  0.00  0.00    +0.000 A 
ATOM      4  C   UNL     1       1.887   5.052  18.130  0.00  0.00    +0.000 A 
ATOM      5  C   UNL     1       2.430   4.030  17.378  0.00  0.00    +0.000 A 
ATOM      6  N   UNL     1       3.707   4.012  16.945  0.00  0.00    +0.000 NA
ENDROOT
BRANCH   3   7
ATOM      7  N   UNL     1       2.215   7.229  19.179  0.00  0.00    +0.000 N 
ATOM      8  C   UNL     1       1.998   8.557  18.623  0.00  0.00    +0.000 C 
ATOM      9  C   UNL     1       1.262   9.264  19.716  0.00  0.00    +0.000 A 
ATOM     10  C   UNL     1       1.082   8.397  20.795  0.00  0.00    +0.000 A 
ATOM     11  C   UNL     1       0.438   8.764  21.960  0.00  0.00    +0.000 A 
ATOM     12  C   UNL     1      -0.047  10.069  22.037  0.00  0.00    +0.000 A 
ATOM     13  C   UNL     1       0.113  10.954  20.954  0.00  0.00    +0.000 A 
ATOM     14  C   UNL     1       0.771  10.565  19.772  0.00  0.00    +0.000 A 
ATOM     15  C   UNL     1       1.658   7.095  20.452  0.00  0.00    +0.000 C 
ATOM     16  O   UNL     1       1.633   6.141  21.202  0.00  0.00    +0.000 OA
BRANCH  14  17
ATOM     17  C   UNL     1       0.875  11.504  18.603  0.00  0.00    +0.000 C 
ATOM     18  F   UNL     1       0.367  12.740  18.868  0.00  0.00    +0.000 F 
ATOM     19  F   UNL     1       2.159  11.715  18.198  0.00  0.00    +0.000 F 
ENDBRANCH  14  17
ENDBRANCH   3   7
BRANCH   1  20
ATOM     20  C   UNL     1       5.998   4.936  16.718  0.00  0.00    +0.000 C 
ATOM     21  C   UNL     1       6.859   6.216  16.602  0.00  0.00    +0.000 C 
ATOM     22  O   UNL     1       7.838   5.717  17.541  0.00  0.00    +0.000 OA
ATOM     23  C   UNL     1       7.007   4.574  17.841  0.00  0.00    +0.000 C 
BRANCH  20  24
ATOM     24  C   UNL     1       6.175   3.994  15.505  0.00  0.00    +0.000 C 
BRANCH  24  30
ATOM     25  C   UNL     1       5.820   3.313  12.407  0.00  0.00    +0.000 C 
ATOM     26  N   UNL     1       6.742   4.237  13.007  0.00  0.00    +0.000 N 
ATOM     27  C   UNL     1       7.574   5.062  12.308  0.00  0.00    +0.000 A 
ATOM     28  N   UNL     1       8.278   5.786  13.141  0.00  0.00    +0.000 NA
ATOM     29  N   UNL     1       7.882   5.452  14.410  0.00  0.00    +0.000 NA
ATOM     30  C   UNL     1       6.952   4.516  14.337  0.00  0.00    +0.000 A 
ENDBRANCH  24  30
ENDBRANCH  20  24
ENDBRANCH   1  20
TORSDOF 5
ENDMDL
MODEL 5
REMARK VINA RESULT:      -8.3      2.551      3.666
REMARK  Name = 
REMARK  6 active torsions:
REMARK  status: ('A' for Active; 'I' for Inactive)
REMARK    1  A    between atoms: C_1  and  N_2
REMARK    2  A    between atoms: C_6  and  C_7
REMARK    3  A    between atoms: C_7  and  C_8
REMARK    4  A    between atoms: C_8  and  C_9
REMARK    5  A    between atoms: C_11  and  N_12
REMARK    6  A    between atoms: C_19  and  C_20
REMARK                            x       y       z     vdW  Elec       q    Type
REMARK                         _______ _______ _______ _____ _____    ______ ____
ROOT
ATOM      1  C   UNL     1       4.326   4.666  16.851  0.00  0.00    +0.000 A 
ATOM      2  C   UNL     1       3.882   5.802  17.520  0.00  0.00    +0.000 A 
ATOM      3  C   UNL     1       2.693   5.773  18.248  0.00  0.00    +0.000 A 
ATOM      4  C   UNL     1       1.913   4.624  18.206  0.00  0.00    +0.000 A 
ATOM      5  C   UNL     1       2.357   3.570  17.432  0.00  0.00    +0.000 A 
ATOM      6  N   UNL     1       3.539   3.561  16.784  0.00  0.00    +0.000 NA
ENDROOT
BRANCH   3   7
ATOM      7  N   UNL     1       2.333   6.872  19.051  0.00  0.00    +0.000 N 
ATOM      8  C   UNL     1       2.103   8.190  18.476  0.00  0.00    +0.000 C 
ATOM      9  C   UNL     1       1.488   8.950  19.608  0.00  0.00    +0.000 A 
ATOM     10  C   UNL     1       1.384   8.120  20.725  0.00  0.00    +0.000 A 
ATOM     11  C   UNL     1       0.858   8.539  21.931  0.00  0.00    +0.000 A 
ATOM     12  C   UNL     1       0.418   9.860  22.011  0.00  0.00    +0.000 A 
ATOM     13  C   UNL     1       0.504  10.709  20.891  0.00  0.00    +0.000 A 
ATOM     14  C   UNL     1       1.041  10.266  19.667  0.00  0.00    +0.000 A 
ATOM     15  C   UNL     1       1.889   6.791  20.373  0.00  0.00    +0.000 C 
ATOM     16  O   UNL     1       1.906   5.861  21.151  0.00  0.00    +0.000 OA
BRANCH  14  17
ATOM     17  C   UNL     1       1.064  11.168  18.465  0.00  0.00    +0.000 C 
ATOM     18  F   UNL     1      -0.062  11.926  18.348  0.00  0.00    +0.000 F 
ATOM     19  F   UNL     1       2.101  12.051  18.478  0.00  0.00    +0.000 F 
ENDBRANCH  14  17
ENDBRANCH   3   7
BRANCH   1  20
ATOM     20  C   UNL     1       5.719   4.531  16.106  0.00  0.00    +0.000 C 
ATOM     21  C   UNL     1       5.891   3.389  15.076  0.00  0.00    +0.000 C 
ATOM     22  O   UNL     1       6.174   4.318  14.004  0.00  0.00    +0.000 OA
ATOM     23  C   UNL     1       5.857   5.440  14.856  0.00  0.00    +0.000 C 
BRANCH  20  24
ATOM     24  C   UNL     1       6.951   4.685  17.027  0.00  0.00    +0.000 C 
BRANCH  24  30
ATOM     25  C   UNL     1       8.115   5.662  19.834  0.00  0.00    +0.000 C 
ATOM     26  N   UNL     1       7.863   6.452  18.660  0.00  0.00    +0.000 N 
ATOM     27  C   UNL     1       8.184   7.772  18.534  0.00  0.00    +0.000 A 
ATOM     28  N   UNL     1       7.838   8.197  17.345  0.00  0.00    +0.000 NA
ATOM     29  N   UNL     1       7.306   7.131  16.667  0.00  0.00    +0.000 NA
ATOM     30  C   UNL     1       7.320   6.071  17.456  0.00  0.00    +0.000 A 
ENDBRANCH  24  30
ENDBRANCH  20  24
ENDBRANCH   1  20
TORSDOF 5
ENDMDL
MODEL 6
REMARK VINA RESULT:      -8.2      3.853      8.313
REMARK  Name = 
REMARK  6 active torsions:
REMARK  status: ('A' for Active; 'I' for Inactive)
REMARK    1  A    between atoms: C_1  and  N_2
REMARK    2  A    between atoms: C_6  and  C_7
REMARK    3  A    between atoms: C_7  and  C_8
REMARK    4  A    between atoms: C_8  and  C_9
REMARK    5  A    between atoms: C_11  and  N_12
REMARK    6  A    between atoms: C_19  and  C_20
REMARK                            x       y       z     vdW  Elec       q    Type
REMARK                         _______ _______ _______ _____ _____    ______ ____
ROOT
ATOM      1  C   UNL     1      -0.364  10.122  20.040  0.00  0.00    +0.000 A 
ATOM      2  C   UNL     1       0.453   9.106  19.556  0.00  0.00    +0.000 A 
ATOM      3  C   UNL     1       1.294   8.404  20.418  0.00  0.00    +0.000 A 
ATOM      4  C   UNL     1       1.378   8.808  21.744  0.00  0.00    +0.000 A 
ATOM      5  C   UNL     1       0.624   9.896  22.136  0.00  0.00    +0.000 A 
ATOM      6  N   UNL     1      -0.248  10.535  21.329  0.00  0.00    +0.000 NA
ENDROOT
BRANCH   3   7
ATOM      7  N   UNL     1       1.996   7.275  19.952  0.00  0.00    +0.000 N 
ATOM      8  C   UNL     1       1.830   5.968  20.574  0.00  0.00    +0.000 C 
ATOM      9  C   UNL     1       2.516   5.049  19.614  0.00  0.00    +0.000 A 
ATOM     10  C   UNL     1       3.023   5.786  18.542  0.00  0.00    +0.000 A 
ATOM     11  C   UNL     1       3.715   5.214  17.492  0.00  0.00    +0.000 A 
ATOM     12  C   UNL     1       3.904   3.833  17.529  0.00  0.00    +0.000 A 
ATOM     13  C   UNL     1       3.389   3.072  18.596  0.00  0.00    +0.000 A 
ATOM     14  C   UNL     1       2.684   3.668  19.658  0.00  0.00    +0.000 A 
ATOM     15  C   UNL     1       2.672   7.195  18.733  0.00  0.00    +0.000 C 
ATOM     16  O   UNL     1       2.974   8.065  17.944  0.00  0.00    +0.000 OA
BRANCH  14  17
ATOM     17  C   UNL     1       2.087   2.830  20.753  0.00  0.00    +0.000 C 
ATOM     18  F   UNL     1       2.530   3.182  21.993  0.00  0.00    +0.000 F 
ATOM     19  F   UNL     1       0.729   2.915  20.812  0.00  0.00    +0.000 F 
ENDBRANCH  14  17
ENDBRANCH   3   7
BRANCH   1  20
ATOM     20  C   UNL     1      -1.456  10.899  19.194  0.00  0.00    +0.000 C 
ATOM     21  C   UNL     1      -2.041  12.207  19.778  0.00  0.00    +0.000 C 
ATOM     22  O   UNL     1      -1.589  12.986  18.646  0.00  0.00    +0.000 OA
ATOM     23  C   UNL     1      -0.864  11.852  18.121  0.00  0.00    +0.000 C 
BRANCH  20  24
ATOM     24  C   UNL     1      -2.543   9.992  18.574  0.00  0.00    +0.000 C 
BRANCH  24  30
ATOM     25  C   UNL     1      -4.887  11.771  17.337  0.00  0.00    +0.000 C 
ATOM     26  N   UNL     1      -3.878  11.029  16.633  0.00  0.00    +0.000 N 
ATOM     27  C   UNL     1      -3.707  11.048  15.280  0.00  0.00    +0.000 A 
ATOM     28  N   UNL     1      -2.700  10.279  14.952  0.00  0.00    +0.000 NA
ATOM     29  N   UNL     1      -2.181   9.767  16.113  0.00  0.00    +0.000 NA
ATOM     30  C   UNL     1      -2.887  10.217  17.134  0.00  0.00    +0.000 A 
ENDBRANCH  24  30
ENDBRANCH  20  24
ENDBRANCH   1  20
TORSDOF 5
ENDMDL
MODEL 7
REMARK VINA RESULT:      -8.1      4.333      8.312
REMARK  Name = 
REMARK  6 active torsions:
REMARK  status: ('A' for Active; 'I' for Inactive)
REMARK    1  A    between atoms: C_1  and  N_2
REMARK    2  A    between atoms: C_6  and  C_7
REMARK    3  A    between atoms: C_7  and  C_8
REMARK    4  A    between atoms: C_8  and  C_9
REMARK    5  A    between atoms: C_11  and  N_12
REMARK    6  A    between atoms: C_19  and  C_20
REMARK                            x       y       z     vdW  Elec       q    Type
REMARK                         _______ _______ _______ _____ _____    ______ ____
ROOT
ATOM      1  C   UNL     1       3.792   5.825  18.570  0.00  0.00    +0.000 A 
ATOM      2  C   UNL     1       4.430   5.726  17.338  0.00  0.00    +0.000 A 
ATOM      3  C   UNL     1       5.629   5.025  17.218  0.00  0.00    +0.000 A 
ATOM      4  C   UNL     1       6.224   4.519  18.367  0.00  0.00    +0.000 A 
ATOM      5  C   UNL     1       5.594   4.748  19.574  0.00  0.00    +0.000 A 
ATOM      6  N   UNL     1       4.399   5.361  19.693  0.00  0.00    +0.000 NA
ENDROOT
BRANCH   3   7
ATOM      7  N   UNL     1       6.184   4.792  15.944  0.00  0.00    +0.000 N 
ATOM      8  C   UNL     1       5.548   3.894  14.991  0.00  0.00    +0.000 C 
ATOM      9  C   UNL     1       6.295   4.162  13.724  0.00  0.00    +0.000 A 
ATOM     10  C   UNL     1       7.270   5.135  13.953  0.00  0.00    +0.000 A 
ATOM     11  C   UNL     1       8.126   5.593  12.972  0.00  0.00    +0.000 A 
ATOM     12  C   UNL     1       7.992   5.040  11.699  0.00  0.00    +0.000 A 
ATOM     13  C   UNL     1       7.006   4.067  11.445  0.00  0.00    +0.000 A 
ATOM     14  C   UNL     1       6.138   3.612  12.455  0.00  0.00    +0.000 A 
ATOM     15  C   UNL     1       7.187   5.562  15.352  0.00  0.00    +0.000 C 
ATOM     16  O   UNL     1       7.909   6.412  15.829  0.00  0.00    +0.000 OA
BRANCH  14  17
ATOM     17  C   UNL     1       5.051   2.621  12.149  0.00  0.00    +0.000 C 
ATOM     18  F   UNL     1       4.002   3.174  11.477  0.00  0.00    +0.000 F 
ATOM     19  F   UNL     1       5.475   1.583  11.375  0.00  0.00    +0.000 F 
ENDBRANCH  14  17
ENDBRANCH   3   7
BRANCH   1  20
ATOM     20  C   UNL     1       2.366   6.474  18.811  0.00  0.00    +0.000 C 
ATOM     21  C   UNL     1       2.190   7.430  20.016  0.00  0.00    +0.000 C 
ATOM     22  O   UNL     1       1.798   8.530  19.163  0.00  0.00    +0.000 OA
ATOM     23  C   UNL     1       2.109   7.761  17.981  0.00  0.00    +0.000 C 
BRANCH  20  24
ATOM     24  C   UNL     1       1.185   5.488  18.663  0.00  0.00    +0.000 C 
BRANCH  24  30
ATOM     25  C   UNL     1       1.283   3.284  20.969  0.00  0.00    +0.000 C 
ATOM     26  N   UNL     1       1.503   3.098  19.562  0.00  0.00    +0.000 N 
ATOM     27  C   UNL     1       1.703   1.888  18.964  0.00  0.00    +0.000 A 
ATOM     28  N   UNL     1       1.861   2.054  17.675  0.00  0.00    +0.000 NA
ATOM     29  N   UNL     1       1.733   3.394  17.416  0.00  0.00    +0.000 NA
ATOM     30  C   UNL     1       1.515   4.032  18.552  0.00  0.00    +0.000 A 
ENDBRANCH  24  30
ENDBRANCH  20  24
ENDBRANCH   1  20
TORSDOF 5
ENDMDL
MODEL 8
REMARK VINA RESULT:      -8.1      3.973      8.583
REMARK  Name = 
REMARK  6 active torsions:
REMARK  status: ('A' for Active; 'I' for Inactive)
REMARK    1  A    between atoms: C_1  and  N_2
REMARK    2  A    between atoms: C_6  and  C_7
REMARK    3  A    between atoms: C_7  and  C_8
REMARK    4  A    between atoms: C_8  and  C_9
REMARK    5  A    between atoms: C_11  and  N_12
REMARK    6  A    between atoms: C_19  and  C_20
REMARK                            x       y       z     vdW  Elec       q    Type
REMARK                         _______ _______ _______ _____ _____    ______ ____
ROOT
ATOM      1  C   UNL     1      -0.623  10.939  19.786  0.00  0.00    +0.000 A 
ATOM      2  C   UNL     1       0.248   9.925  19.400  0.00  0.00    +0.000 A 
ATOM      3  C   UNL     1       0.946   9.192  20.358  0.00  0.00    +0.000 A 
ATOM      4  C   UNL     1       0.836   9.561  21.693  0.00  0.00    +0.000 A 
ATOM      5  C   UNL     1       0.041  10.649  21.997  0.00  0.00    +0.000 A 
ATOM      6  N   UNL     1      -0.696  11.319  21.088  0.00  0.00    +0.000 NA
ENDROOT
BRANCH   3   7
ATOM      7  N   UNL     1       1.699   8.066  19.971  0.00  0.00    +0.000 N 
ATOM      8  C   UNL     1       1.612   6.808  20.699  0.00  0.00    +0.000 C 
ATOM      9  C   UNL     1       2.332   5.850  19.804  0.00  0.00    +0.000 A 
ATOM     10  C   UNL     1       2.783   6.522  18.667  0.00  0.00    +0.000 A 
ATOM     11  C   UNL     1       3.488   5.903  17.653  0.00  0.00    +0.000 A 
ATOM     12  C   UNL     1       3.750   4.542  17.797  0.00  0.00    +0.000 A 
ATOM     13  C   UNL     1       3.293   3.844  18.931  0.00  0.00    +0.000 A 
ATOM     14  C   UNL     1       2.573   4.488  19.956  0.00  0.00    +0.000 A 
ATOM     15  C   UNL     1       2.360   7.922  18.750  0.00  0.00    +0.000 C 
ATOM     16  O   UNL     1       2.604   8.740  17.888  0.00  0.00    +0.000 OA
BRANCH  14  17
ATOM     17  C   UNL     1       2.038   3.712  21.126  0.00  0.00    +0.000 C 
ATOM     18  F   UNL     1       0.705   3.448  21.024  0.00  0.00    +0.000 F 
ATOM     19  F   UNL     1       2.640   2.500  21.286  0.00  0.00    +0.000 F 
ENDBRANCH  14  17
ENDBRANCH   3   7
BRANCH   1  20
ATOM     20  C   UNL     1      -1.571  11.751  18.808  0.00  0.00    +0.000 C 
ATOM     21  C   UNL     1      -2.629  10.966  17.996  0.00  0.00    +0.000 C 
ATOM     22  O   UNL     1      -3.720  11.713  18.581  0.00  0.00    +0.000 OA
ATOM     23  C   UNL     1      -2.817  12.364  19.501  0.00  0.00    +0.000 C 
BRANCH  20  24
ATOM     24  C   UNL     1      -0.844  12.816  17.956  0.00  0.00    +0.000 C 
BRANCH  24  30
ATOM     25  C   UNL     1       2.341  12.694  18.130  0.00  0.00    +0.000 C 
ATOM     26  N   UNL     1       1.465  13.688  18.685  0.00  0.00    +0.000 N 
ATOM     27  C   UNL     1       1.885  14.824  19.313  0.00  0.00    +0.000 A 
ATOM     28  N   UNL     1       0.848  15.527  19.692  0.00  0.00    +0.000 NA
ATOM     29  N   UNL     1      -0.275  14.857  19.280  0.00  0.00    +0.000 NA
ATOM     30  C   UNL     1       0.091  13.744  18.668  0.00  0.00    +0.000 A 
ENDBRANCH  24  30
ENDBRANCH  20  24
ENDBRANCH   1  20
TORSDOF 5
ENDMDL
MODEL 9
REMARK VINA RESULT:      -8.1      4.076      8.496
REMARK  Name = 
REMARK  6 active torsions:
REMARK  status: ('A' for Active; 'I' for Inactive)
REMARK    1  A    between atoms: C_1  and  N_2
REMARK    2  A    between atoms: C_6  and  C_7
REMARK    3  A    between atoms: C_7  and  C_8
REMARK    4  A    between atoms: C_8  and  C_9
REMARK    5  A    between atoms: C_11  and  N_12
REMARK    6  A    between atoms: C_19  and  C_20
REMARK                            x       y       z     vdW  Elec       q    Type
REMARK                         _______ _______ _______ _____ _____    ______ ____
ROOT
ATOM      1  C   UNL     1      -0.616  10.880  19.956  0.00  0.00    +0.000 A 
ATOM      2  C   UNL     1       0.247   9.858  19.574  0.00  0.00    +0.000 A 
ATOM      3  C   UNL     1       0.905   9.093  20.537  0.00  0.00    +0.000 A 
ATOM      4  C   UNL     1       0.763   9.438  21.875  0.00  0.00    +0.000 A 
ATOM      5  C   UNL     1      -0.020  10.534  22.179  0.00  0.00    +0.000 A 
ATOM      6  N   UNL     1      -0.719  11.235  21.263  0.00  0.00    +0.000 NA
ENDROOT
BRANCH   3   7
ATOM      7  N   UNL     1       1.648   7.961  20.148  0.00  0.00    +0.000 N 
ATOM      8  C   UNL     1       1.595   6.720  20.909  0.00  0.00    +0.000 C 
ATOM      9  C   UNL     1       2.285   5.744  20.011  0.00  0.00    +0.000 A 
ATOM     10  C   UNL     1       2.688   6.390  18.841  0.00  0.00    +0.000 A 
ATOM     11  C   UNL     1       3.357   5.750  17.816  0.00  0.00    +0.000 A 
ATOM     12  C   UNL     1       3.632   4.393  17.983  0.00  0.00    +0.000 A 
ATOM     13  C   UNL     1       3.222   3.721  19.150  0.00  0.00    +0.000 A 
ATOM     14  C   UNL     1       2.538   4.387  20.185  0.00  0.00    +0.000 A 
ATOM     15  C   UNL     1       2.263   7.790  18.907  0.00  0.00    +0.000 C 
ATOM     16  O   UNL     1       2.469   8.588  18.016  0.00  0.00    +0.000 OA
BRANCH  14  17
ATOM     17  C   UNL     1       2.052   3.638  21.394  0.00  0.00    +0.000 C 
ATOM     18  F   UNL     1       0.840   3.047  21.200  0.00  0.00    +0.000 F 
ATOM     19  F   UNL     1       2.892   2.635  21.776  0.00  0.00    +0.000 F 
ENDBRANCH  14  17
ENDBRANCH   3   7
BRANCH   1  20
ATOM     20  C   UNL     1      -1.522  11.727  18.968  0.00  0.00    +0.000 C 
ATOM     21  C   UNL     1      -2.567  10.978  18.108  0.00  0.00    +0.000 C 
ATOM     22  O   UNL     1      -3.664  11.729  18.677  0.00  0.00    +0.000 OA
ATOM     23  C   UNL     1      -2.779  12.345  19.638  0.00  0.00    +0.000 C 
BRANCH  20  24
ATOM     24  C   UNL     1      -0.754  12.800  18.163  0.00  0.00    +0.000 C 
BRANCH  24  30
ATOM     25  C   UNL     1      -0.331  14.881  20.546  0.00  0.00    +0.000 C 
ATOM     26  N   UNL     1       0.676  14.173  19.804  0.00  0.00    +0.000 N 
ATOM     27  C   UNL     1       2.011  14.214  20.080  0.00  0.00    +0.000 A 
ATOM     28  N   UNL     1       2.659  13.454  19.234  0.00  0.00    +0.000 NA
ATOM     29  N   UNL     1       1.731  12.880  18.404  0.00  0.00    +0.000 NA
ATOM     30  C   UNL     1       0.529  13.309  18.745  0.00  0.00    +0.000 A 
ENDBRANCH  24  30
ENDBRANCH  20  24
ENDBRANCH   1  20
TORSDOF 5
ENDMDL
