MODEL 1
REMARK VINA RESULT:      -9.8      0.000      0.000
REMARK  Name = 
REMARK  5 active torsions:
REMARK  status: ('A' for Active; 'I' for Inactive)
REMARK    1  A    between atoms: C_2  and  C_3
REMARK    2  A    between atoms: C_17  and  C_18
REMARK    3  A    between atoms: C_17  and  C_20
REMARK    4  A    between atoms: C_18  and  O_19
REMARK    5  A    between atoms: C_20  and  C_21
REMARK                            x       y       z     vdW  Elec       q    Type
REMARK                         _______ _______ _______ _____ _____    ______ ____
ROOT
ATOM      1  O   UNL     1       4.928   2.154  19.904  0.00  0.00    +0.000 OA
ATOM      2  C   UNL     1       4.440   3.223  19.532  0.00  0.00    +0.000 C 
ATOM      3  N   UNL     1       3.185   3.635  20.027  0.00  0.00    +0.000 N 
ATOM      4  C   UNL     1       2.562   2.807  21.059  0.00  0.00    +0.000 C 
ATOM      5  C   UNL     1       1.072   2.945  20.820  0.00  0.00    +0.000 C 
ATOM      6  C   UNL     1       0.936   4.408  20.457  0.00  0.00    +0.000 C 
ATOM      7  C   UNL     1       2.240   4.765  19.666  0.00  0.00    +0.000 C 
ENDROOT
BRANCH   2   8
ATOM      8  C   UNL     1       5.248   3.987  18.516  0.00  0.00    +0.000 A 
ATOM      9  C   UNL     1       6.089   5.053  18.934  0.00  0.00    +0.000 A 
ATOM     10  C   UNL     1       6.889   5.786  18.023  0.00  0.00    +0.000 A 
ATOM     11  C   UNL     1       6.835   5.423  16.701  0.00  0.00    +0.000 A 
ATOM     12  N   UNL     1       7.502   5.869  15.566  0.00  0.00    +0.000 N 
ATOM     13  C   UNL     1       7.105   5.110  14.458  0.00  0.00    +0.000 A 
ATOM     14  O   UNL     1       7.506   5.195  13.309  0.00  0.00    +0.000 OA
ATOM     15  N   UNL     1       6.151   4.203  14.924  0.00  0.00    +0.000 N 
ATOM     16  C   UNL     1       6.004   4.405  16.287  0.00  0.00    +0.000 A 
ATOM     17  C   UNL     1       5.219   3.709  17.155  0.00  0.00    +0.000 A 
ATOM     18  H   UNL     1       8.200   6.591  15.524  0.00  0.00    +0.000 HD
ATOM     19  H   UNL     1       5.698   3.518  14.345  0.00  0.00    +0.000 HD
ENDBRANCH   2   8
BRANCH   7  20
ATOM     20  C   UNL     1       1.859   4.697  18.148  0.00  0.00    +0.000 C 
BRANCH  20  21
ATOM     21  O   UNL     1       1.472   3.373  17.762  0.00  0.00    +0.000 OA
ATOM     22  H   UNL     1       0.779   3.088  18.387  0.00  0.00    +0.000 HD
ENDBRANCH  20  21
ENDBRANCH   7  20
BRANCH   7  23
ATOM     23  C   UNL     1       2.723   6.136  20.276  0.00  0.00    +0.000 C 
BRANCH  23  24
ATOM     24  C   UNL     1       2.211   7.391  19.602  0.00  0.00    +0.000 A 
ATOM     25  C   UNL     1       1.383   8.260  20.319  0.00  0.00    +0.000 A 
ATOM     26  C   UNL     1       0.903   9.430  19.736  0.00  0.00    +0.000 A 
ATOM     27  C   UNL     1       1.255   9.757  18.429  0.00  0.00    +0.000 A 
ATOM     28  C   UNL     1       2.093   8.908  17.709  0.00  0.00    +0.000 A 
ATOM     29  C   UNL     1       2.565   7.730  18.288  0.00  0.00    +0.000 A 
ENDBRANCH  23  24
ENDBRANCH   7  23
TORSDOF 5
ENDMDL
MODEL 2
REMARK VINA RESULT:      -8.7      1.317      1.858
REMARK  Name = 
REMARK  5 active torsions:
REMARK  status: ('A' for Active; 'I' for Inactive)
REMARK    1  A    between atoms: C_2  and  C_3
REMARK    2  A    between atoms: C_17  and  C_18
REMARK    3  A    between atoms: C_17  and  C_20
REMARK    4  A    between atoms: C_18  and  O_19
REMARK    5  A    between atoms: C_20  and  C_21
REMARK                            x       y       z     vdW  Elec       q    Type
REMARK                         _______ _______ _______ _____ _____    ______ ____
ROOT
ATOM      1  O   UNL     1       4.947   2.104  20.010  0.00  0.00    +0.000 OA
ATOM      2  C   UNL     1       4.398   3.152  19.664  0.00  0.00    +0.000 C 
ATOM      3  N   UNL     1       3.094   3.447  20.112  0.00  0.00    +0.000 N 
ATOM      4  C   UNL     1       2.486   2.525  21.071  0.00  0.00    +0.000 C 
ATOM      5  C   UNL     1       1.003   2.565  20.763  0.00  0.00    +0.000 C 
ATOM      6  C   UNL     1       0.774   4.031  20.462  0.00  0.00    +0.000 C 
ATOM      7  C   UNL     1       2.085   4.521  19.756  0.00  0.00    +0.000 C 
ENDROOT
BRANCH   2   8
ATOM      8  C   UNL     1       5.194   4.023  18.727  0.00  0.00    +0.000 A 
ATOM      9  C   UNL     1       5.207   3.741  17.334  0.00  0.00    +0.000 A 
ATOM     10  C   UNL     1       5.917   4.542  16.408  0.00  0.00    +0.000 A 
ATOM     11  C   UNL     1       6.598   5.627  16.902  0.00  0.00    +0.000 A 
ATOM     12  N   UNL     1       7.338   6.638  16.300  0.00  0.00    +0.000 N 
ATOM     13  C   UNL     1       7.782   7.540  17.275  0.00  0.00    +0.000 A 
ATOM     14  O   UNL     1       8.425   8.563  17.110  0.00  0.00    +0.000 OA
ATOM     15  N   UNL     1       7.326   7.050  18.500  0.00  0.00    +0.000 N 
ATOM     16  C   UNL     1       6.607   5.892  18.254  0.00  0.00    +0.000 A 
ATOM     17  C   UNL     1       5.941   5.114  19.151  0.00  0.00    +0.000 A 
ATOM     18  H   UNL     1       7.509   6.754  15.317  0.00  0.00    +0.000 HD
ATOM     19  H   UNL     1       7.487   7.506  19.382  0.00  0.00    +0.000 HD
ENDBRANCH   2   8
BRANCH   7  20
ATOM     20  C   UNL     1       1.783   4.502  18.219  0.00  0.00    +0.000 C 
BRANCH  20  21
ATOM     21  O   UNL     1       1.485   3.179  17.758  0.00  0.00    +0.000 OA
ATOM     22  H   UNL     1       1.024   3.274  16.903  0.00  0.00    +0.000 HD
ENDBRANCH  20  21
ENDBRANCH   7  20
BRANCH   7  23
ATOM     23  C   UNL     1       2.433   5.892  20.453  0.00  0.00    +0.000 C 
BRANCH  23  24
ATOM     24  C   UNL     1       2.200   7.142  19.635  0.00  0.00    +0.000 A 
ATOM     25  C   UNL     1       1.404   8.164  20.162  0.00  0.00    +0.000 A 
ATOM     26  C   UNL     1       1.177   9.335  19.443  0.00  0.00    +0.000 A 
ATOM     27  C   UNL     1       1.755   9.509  18.188  0.00  0.00    +0.000 A 
ATOM     28  C   UNL     1       2.564   8.507  17.658  0.00  0.00    +0.000 A 
ATOM     29  C   UNL     1       2.782   7.328  18.372  0.00  0.00    +0.000 A 
ENDBRANCH  23  24
ENDBRANCH   7  23
TORSDOF 5
ENDMDL
MODEL 3
REMARK VINA RESULT:      -7.4      1.898      5.662
REMARK  Name = 
REMARK  5 active torsions:
REMARK  status: ('A' for Active; 'I' for Inactive)
REMARK    1  A    between atoms: C_2  and  C_3
REMARK    2  A    between atoms: C_17  and  C_18
REMARK    3  A    between atoms: C_17  and  C_20
REMARK    4  A    between atoms: C_18  and  O_19
REMARK    5  A    between atoms: C_20  and  C_21
REMARK                            x       y       z     vdW  Elec       q    Type
REMARK                         _______ _______ _______ _____ _____    ______ ____
ROOT
ATOM      1  O   UNL     1       5.080   2.650  16.249  0.00  0.00    +0.000 OA
ATOM      2  C   UNL     1       4.763   3.665  16.872  0.00  0.00    +0.000 C 
ATOM      3  N   UNL     1       5.503   4.854  16.706  0.00  0.00    +0.000 N 
ATOM      4  C   UNL     1       6.567   4.852  15.702  0.00  0.00    +0.000 C 
ATOM      5  C   UNL     1       7.619   5.793  16.250  0.00  0.00    +0.000 C 
ATOM      6  C   UNL     1       6.783   6.900  16.856  0.00  0.00    +0.000 C 
ATOM      7  C   UNL     1       5.503   6.192  17.419  0.00  0.00    +0.000 C 
ENDROOT
BRANCH   2   8
ATOM      8  C   UNL     1       3.598   3.511  17.814  0.00  0.00    +0.000 A 
ATOM      9  C   UNL     1       2.270   3.677  17.335  0.00  0.00    +0.000 A 
ATOM     10  C   UNL     1       1.139   3.518  18.172  0.00  0.00    +0.000 A 
ATOM     11  C   UNL     1       1.367   3.182  19.484  0.00  0.00    +0.000 A 
ATOM     12  N   UNL     1       0.522   2.900  20.551  0.00  0.00    +0.000 N 
ATOM     13  C   UNL     1       1.284   2.560  21.677  0.00  0.00    +0.000 A 
ATOM     14  O   UNL     1       0.882   2.221  22.777  0.00  0.00    +0.000 OA
ATOM     15  N   UNL     1       2.621   2.669  21.293  0.00  0.00    +0.000 N 
ATOM     16  C   UNL     1       2.652   3.043  19.959  0.00  0.00    +0.000 A 
ATOM     17  C   UNL     1       3.743   3.213  19.163  0.00  0.00    +0.000 A 
ATOM     18  H   UNL     1      -0.483   2.889  20.536  0.00  0.00    +0.000 HD
ATOM     19  H   UNL     1       3.397   2.470  21.900  0.00  0.00    +0.000 HD
ENDBRANCH   2   8
BRANCH   7  20
ATOM     20  C   UNL     1       5.754   5.997  18.953  0.00  0.00    +0.000 C 
BRANCH  20  21
ATOM     21  O   UNL     1       6.801   5.051  19.198  0.00  0.00    +0.000 OA
ATOM     22  H   UNL     1       7.483   5.514  19.721  0.00  0.00    +0.000 HD
ENDBRANCH  20  21
ENDBRANCH   7  20
BRANCH   7  23
ATOM     23  C   UNL     1       4.300   7.096  16.947  0.00  0.00    +0.000 C 
BRANCH  23  24
ATOM     24  C   UNL     1       3.295   7.489  18.008  0.00  0.00    +0.000 A 
ATOM     25  C   UNL     1       2.552   8.662  17.842  0.00  0.00    +0.000 A 
ATOM     26  C   UNL     1       1.610   9.049  18.791  0.00  0.00    +0.000 A 
ATOM     27  C   UNL     1       1.385   8.262  19.916  0.00  0.00    +0.000 A 
ATOM     28  C   UNL     1       2.106   7.081  20.086  0.00  0.00    +0.000 A 
ATOM     29  C   UNL     1       3.059   6.698  19.141  0.00  0.00    +0.000 A 
ENDBRANCH  23  24
ENDBRANCH   7  23
TORSDOF 5
ENDMDL
MODEL 4
REMARK VINA RESULT:      -7.4      0.875      1.448
REMARK  Name = 
REMARK  5 active torsions:
REMARK  status: ('A' for Active; 'I' for Inactive)
REMARK    1  A    between atoms: C_2  and  C_3
REMARK    2  A    between atoms: C_17  and  C_18
REMARK    3  A    between atoms: C_17  and  C_20
REMARK    4  A    between atoms: C_18  and  O_19
REMARK    5  A    between atoms: C_20  and  C_21
REMARK                            x       y       z     vdW  Elec       q    Type
REMARK                         _______ _______ _______ _____ _____    ______ ____
ROOT
ATOM      1  O   UNL     1       4.759   1.963  19.518  0.00  0.00    +0.000 OA
ATOM      2  C   UNL     1       4.265   2.997  19.063  0.00  0.00    +0.000 C 
ATOM      3  N   UNL     1       3.265   3.678  19.786  0.00  0.00    +0.000 N 
ATOM      4  C   UNL     1       2.930   3.171  21.117  0.00  0.00    +0.000 C 
ATOM      5  C   UNL     1       1.457   3.476  21.289  0.00  0.00    +0.000 C 
ATOM      6  C   UNL     1       1.330   4.842  20.650  0.00  0.00    +0.000 C 
ATOM      7  C   UNL     1       2.347   4.840  19.458  0.00  0.00    +0.000 C 
ENDROOT
BRANCH   2   8
ATOM      8  C   UNL     1       4.775   3.418  17.709  0.00  0.00    +0.000 A 
ATOM      9  C   UNL     1       3.945   3.279  16.564  0.00  0.00    +0.000 A 
ATOM     10  C   UNL     1       4.364   3.682  15.273  0.00  0.00    +0.000 A 
ATOM     11  C   UNL     1       5.617   4.232  15.159  0.00  0.00    +0.000 A 
ATOM     12  N   UNL     1       6.322   4.774  14.091  0.00  0.00    +0.000 N 
ATOM     13  C   UNL     1       7.562   5.248  14.538  0.00  0.00    +0.000 A 
ATOM     14  O   UNL     1       8.424   5.816  13.889  0.00  0.00    +0.000 OA
ATOM     15  N   UNL     1       7.624   4.960  15.903  0.00  0.00    +0.000 N 
ATOM     16  C   UNL     1       6.435   4.347  16.262  0.00  0.00    +0.000 A 
ATOM     17  C   UNL     1       6.043   3.944  17.502  0.00  0.00    +0.000 A 
ATOM     18  H   UNL     1       6.001   4.866  13.143  0.00  0.00    +0.000 HD
ATOM     19  H   UNL     1       8.401   5.201  16.492  0.00  0.00    +0.000 HD
ENDBRANCH   2   8
BRANCH   7  20
ATOM     20  C   UNL     1       1.507   4.529  18.172  0.00  0.00    +0.000 C 
BRANCH  20  21
ATOM     21  O   UNL     1       0.975   3.200  18.201  0.00  0.00    +0.000 OA
ATOM     22  H   UNL     1       1.713   2.595  17.999  0.00  0.00    +0.000 HD
ENDBRANCH  20  21
ENDBRANCH   7  20
BRANCH   7  23
ATOM     23  C   UNL     1       3.103   6.219  19.567  0.00  0.00    +0.000 C 
BRANCH  23  24
ATOM     24  C   UNL     1       2.280   7.461  19.301  0.00  0.00    +0.000 A 
ATOM     25  C   UNL     1       1.653   8.105  20.372  0.00  0.00    +0.000 A 
ATOM     26  C   UNL     1       0.899   9.257  20.168  0.00  0.00    +0.000 A 
ATOM     27  C   UNL     1       0.769   9.793  18.890  0.00  0.00    +0.000 A 
ATOM     28  C   UNL     1       1.403   9.171  17.816  0.00  0.00    +0.000 A 
ATOM     29  C   UNL     1       2.150   8.009  18.017  0.00  0.00    +0.000 A 
ENDBRANCH  23  24
ENDBRANCH   7  23
TORSDOF 5
ENDMDL
MODEL 5
REMARK VINA RESULT:      -7.3      2.975      6.136
REMARK  Name = 
REMARK  5 active torsions:
REMARK  status: ('A' for Active; 'I' for Inactive)
REMARK    1  A    between atoms: C_2  and  C_3
REMARK    2  A    between atoms: C_17  and  C_18
REMARK    3  A    between atoms: C_17  and  C_20
REMARK    4  A    between atoms: C_18  and  O_19
REMARK    5  A    between atoms: C_20  and  C_21
REMARK                            x       y       z     vdW  Elec       q    Type
REMARK                         _______ _______ _______ _____ _____    ______ ____
ROOT
ATOM      1  O   UNL     1       1.200   5.032  21.040  0.00  0.00    +0.000 OA
ATOM      2  C   UNL     1       2.024   5.235  20.145  0.00  0.00    +0.000 C 
ATOM      3  N   UNL     1       2.932   4.221  19.779  0.00  0.00    +0.000 N 
ATOM      4  C   UNL     1       2.779   2.915  20.420  0.00  0.00    +0.000 C 
ATOM      5  C   UNL     1       4.186   2.360  20.511  0.00  0.00    +0.000 C 
ATOM      6  C   UNL     1       4.792   2.792  19.193  0.00  0.00    +0.000 C 
ATOM      7  C   UNL     1       4.150   4.186  18.876  0.00  0.00    +0.000 C 
ENDROOT
BRANCH   2   8
ATOM      8  C   UNL     1       1.999   6.616  19.542  0.00  0.00    +0.000 A 
ATOM      9  C   UNL     1       2.418   6.811  18.198  0.00  0.00    +0.000 A 
ATOM     10  C   UNL     1       2.390   8.083  17.575  0.00  0.00    +0.000 A 
ATOM     11  C   UNL     1       1.928   9.140  18.318  0.00  0.00    +0.000 A 
ATOM     12  N   UNL     1       1.715  10.482  18.028  0.00  0.00    +0.000 N 
ATOM     13  C   UNL     1       1.173  11.126  19.148  0.00  0.00    +0.000 A 
ATOM     14  O   UNL     1       0.827  12.291  19.248  0.00  0.00    +0.000 OA
ATOM     15  N   UNL     1       1.084  10.159  20.151  0.00  0.00    +0.000 N 
ATOM     16  C   UNL     1       1.542   8.961  19.628  0.00  0.00    +0.000 A 
ATOM     17  C   UNL     1       1.584   7.744  20.238  0.00  0.00    +0.000 A 
ATOM     18  H   UNL     1       1.872  10.940  17.147  0.00  0.00    +0.000 HD
ATOM     19  H   UNL     1       0.716  10.335  21.069  0.00  0.00    +0.000 HD
ENDBRANCH   2   8
BRANCH   7  20
ATOM     20  C   UNL     1       5.199   5.259  19.328  0.00  0.00    +0.000 C 
BRANCH  20  21
ATOM     21  O   UNL     1       6.522   4.713  19.377  0.00  0.00    +0.000 OA
ATOM     22  H   UNL     1       6.425   3.746  19.472  0.00  0.00    +0.000 HD
ENDBRANCH  20  21
ENDBRANCH   7  20
BRANCH   7  23
ATOM     23  C   UNL     1       3.738   4.107  17.356  0.00  0.00    +0.000 C 
BRANCH  23  24
ATOM     24  C   UNL     1       4.802   4.485  16.349  0.00  0.00    +0.000 A 
ATOM     25  C   UNL     1       5.509   3.473  15.692  0.00  0.00    +0.000 A 
ATOM     26  C   UNL     1       6.486   3.783  14.750  0.00  0.00    +0.000 A 
ATOM     27  C   UNL     1       6.764   5.111  14.439  0.00  0.00    +0.000 A 
ATOM     28  C   UNL     1       6.056   6.129  15.074  0.00  0.00    +0.000 A 
ATOM     29  C   UNL     1       5.084   5.820  16.027  0.00  0.00    +0.000 A 
ENDBRANCH  23  24
ENDBRANCH   7  23
TORSDOF 5
ENDMDL
MODEL 6
REMARK VINA RESULT:      -7.3      1.454      2.164
REMARK  Name = 
REMARK  5 active torsions:
REMARK  status: ('A' for Active; 'I' for Inactive)
REMARK    1  A    between atoms: C_2  and  C_3
REMARK    2  A    between atoms: C_17  and  C_18
REMARK    3  A    between atoms: C_17  and  C_20
REMARK    4  A    between atoms: C_18  and  O_19
REMARK    5  A    between atoms: C_20  and  C_21
REMARK                            x       y       z     vdW  Elec       q    Type
REMARK                         _______ _______ _______ _____ _____    ______ ____
ROOT
ATOM      1  O   UNL     1       5.797   4.263  20.117  0.00  0.00    +0.000 OA
ATOM      2  C   UNL     1       5.012   4.073  19.185  0.00  0.00    +0.000 C 
ATOM      3  N   UNL     1       3.752   3.489  19.431  0.00  0.00    +0.000 N 
ATOM      4  C   UNL     1       3.390   3.230  20.825  0.00  0.00    +0.000 C 
ATOM      5  C   UNL     1       2.520   1.992  20.776  0.00  0.00    +0.000 C 
ATOM      6  C   UNL     1       1.696   2.222  19.527  0.00  0.00    +0.000 C 
ATOM      7  C   UNL     1       2.649   2.968  18.531  0.00  0.00    +0.000 C 
ENDROOT
BRANCH   2   8
ATOM      8  C   UNL     1       5.519   4.461  17.820  0.00  0.00    +0.000 A 
ATOM      9  C   UNL     1       6.151   5.719  17.629  0.00  0.00    +0.000 A 
ATOM     10  C   UNL     1       6.668   6.123  16.374  0.00  0.00    +0.000 A 
ATOM     11  C   UNL     1       6.548   5.241  15.329  0.00  0.00    +0.000 A 
ATOM     12  N   UNL     1       6.974   5.274  14.007  0.00  0.00    +0.000 N 
ATOM     13  C   UNL     1       6.630   4.073  13.371  0.00  0.00    +0.000 A 
ATOM     14  O   UNL     1       6.875   3.736  12.225  0.00  0.00    +0.000 OA
ATOM     15  N   UNL     1       5.952   3.307  14.321  0.00  0.00    +0.000 N 
ATOM     16  C   UNL     1       5.916   4.029  15.503  0.00  0.00    +0.000 A 
ATOM     17  C   UNL     1       5.400   3.644  16.703  0.00  0.00    +0.000 A 
ATOM     18  H   UNL     1       7.491   6.010  13.559  0.00  0.00    +0.000 HD
ATOM     19  H   UNL     1       5.596   2.384  14.147  0.00  0.00    +0.000 HD
ENDBRANCH   2   8
BRANCH   7  20
ATOM     20  C   UNL     1       3.205   1.873  17.559  0.00  0.00    +0.000 C 
BRANCH  20  21
ATOM     21  O   UNL     1       3.904   0.844  18.271  0.00  0.00    +0.000 OA
ATOM     22  H   UNL     1       4.719   1.249  18.623  0.00  0.00    +0.000 HD
ENDBRANCH  20  21
ENDBRANCH   7  20
BRANCH   7  23
ATOM     23  C   UNL     1       1.780   4.146  17.945  0.00  0.00    +0.000 C 
BRANCH  23  24
ATOM     24  C   UNL     1       1.883   5.478  18.655  0.00  0.00    +0.000 A 
ATOM     25  C   UNL     1       2.414   6.576  17.971  0.00  0.00    +0.000 A 
ATOM     26  C   UNL     1       2.513   7.820  18.588  0.00  0.00    +0.000 A 
ATOM     27  C   UNL     1       2.069   7.991  19.896  0.00  0.00    +0.000 A 
ATOM     28  C   UNL     1       1.522   6.909  20.584  0.00  0.00    +0.000 A 
ATOM     29  C   UNL     1       1.433   5.659  19.971  0.00  0.00    +0.000 A 
ENDBRANCH  23  24
ENDBRANCH   7  23
TORSDOF 5
ENDMDL
MODEL 7
REMARK VINA RESULT:      -7.2      1.187      1.692
REMARK  Name = 
REMARK  5 active torsions:
REMARK  status: ('A' for Active; 'I' for Inactive)
REMARK    1  A    between atoms: C_2  and  C_3
REMARK    2  A    between atoms: C_17  and  C_18
REMARK    3  A    between atoms: C_17  and  C_20
REMARK    4  A    between atoms: C_18  and  O_19
REMARK    5  A    between atoms: C_20  and  C_21
REMARK                            x       y       z     vdW  Elec       q    Type
REMARK                         _______ _______ _______ _____ _____    ______ ____
ROOT
ATOM      1  O   UNL     1       5.509   3.433  19.629  0.00  0.00    +0.000 OA
ATOM      2  C   UNL     1       4.878   4.186  18.884  0.00  0.00    +0.000 C 
ATOM      3  N   UNL     1       3.604   4.653  19.268  0.00  0.00    +0.000 N 
ATOM      4  C   UNL     1       3.130   4.298  20.605  0.00  0.00    +0.000 C 
ATOM      5  C   UNL     1       1.627   4.179  20.466  0.00  0.00    +0.000 C 
ATOM      6  C   UNL     1       1.296   5.321  19.530  0.00  0.00    +0.000 C 
ATOM      7  C   UNL     1       2.513   5.421  18.548  0.00  0.00    +0.000 C 
ENDROOT
BRANCH   2   8
ATOM      8  C   UNL     1       5.543   4.508  17.570  0.00  0.00    +0.000 A 
ATOM      9  C   UNL     1       6.482   5.571  17.492  0.00  0.00    +0.000 A 
ATOM     10  C   UNL     1       7.155   5.898  16.289  0.00  0.00    +0.000 A 
ATOM     11  C   UNL     1       6.875   5.136  15.182  0.00  0.00    +0.000 A 
ATOM     12  N   UNL     1       7.370   5.132  13.884  0.00  0.00    +0.000 N 
ATOM     13  C   UNL     1       6.770   4.097  13.154  0.00  0.00    +0.000 A 
ATOM     14  O   UNL     1       6.986   3.773  11.999  0.00  0.00    +0.000 OA
ATOM     15  N   UNL     1       5.868   3.478  14.021  0.00  0.00    +0.000 N 
ATOM     16  C   UNL     1       5.949   4.119  15.247  0.00  0.00    +0.000 A 
ATOM     17  C   UNL     1       5.285   3.812  16.396  0.00  0.00    +0.000 A 
ATOM     18  H   UNL     1       8.080   5.736  13.508  0.00  0.00    +0.000 HD
ATOM     19  H   UNL     1       5.301   2.688  13.770  0.00  0.00    +0.000 HD
ENDBRANCH   2   8
BRANCH   7  20
ATOM     20  C   UNL     1       2.080   4.668  17.244  0.00  0.00    +0.000 C 
BRANCH  20  21
ATOM     21  O   UNL     1       0.674   4.395  17.237  0.00  0.00    +0.000 OA
ATOM     22  H   UNL     1       0.231   5.183  17.604  0.00  0.00    +0.000 HD
ENDBRANCH  20  21
ENDBRANCH   7  20
BRANCH   7  23
ATOM     23  C   UNL     1       2.847   6.960  18.471  0.00  0.00    +0.000 C 
BRANCH  23  24
ATOM     24  C   UNL     1       1.952   7.884  19.267  0.00  0.00    +0.000 A 
ATOM     25  C   UNL     1       1.295   8.929  18.609  0.00  0.00    +0.000 A 
ATOM     26  C   UNL     1       0.453   9.792  19.306  0.00  0.00    +0.000 A 
ATOM     27  C   UNL     1       0.244   9.616  20.671  0.00  0.00    +0.000 A 
ATOM     28  C   UNL     1       0.879   8.569  21.336  0.00  0.00    +0.000 A 
ATOM     29  C   UNL     1       1.732   7.710  20.641  0.00  0.00    +0.000 A 
ENDBRANCH  23  24
ENDBRANCH   7  23
TORSDOF 5
ENDMDL
MODEL 8
REMARK VINA RESULT:      -7.2      0.900      1.767
REMARK  Name = 
REMARK  5 active torsions:
REMARK  status: ('A' for Active; 'I' for Inactive)
REMARK    1  A    between atoms: C_2  and  C_3
REMARK    2  A    between atoms: C_17  and  C_18
REMARK    3  A    between atoms: C_17  and  C_20
REMARK    4  A    between atoms: C_18  and  O_19
REMARK    5  A    between atoms: C_20  and  C_21
REMARK                            x       y       z     vdW  Elec       q    Type
REMARK                         _______ _______ _______ _____ _____    ______ ____
ROOT
ATOM      1  O   UNL     1       4.913   2.408  19.683  0.00  0.00    +0.000 OA
ATOM      2  C   UNL     1       4.392   3.353  19.087  0.00  0.00    +0.000 C 
ATOM      3  N   UNL     1       3.345   4.078  19.693  0.00  0.00    +0.000 N 
ATOM      4  C   UNL     1       2.994   3.732  21.070  0.00  0.00    +0.000 C 
ATOM      5  C   UNL     1       1.505   3.993  21.168  0.00  0.00    +0.000 C 
ATOM      6  C   UNL     1       1.342   5.259  20.355  0.00  0.00    +0.000 C 
ATOM      7  C   UNL     1       2.392   5.148  19.196  0.00  0.00    +0.000 C 
ENDROOT
BRANCH   2   8
ATOM      8  C   UNL     1       4.922   3.618  17.702  0.00  0.00    +0.000 A 
ATOM      9  C   UNL     1       4.185   3.191  16.566  0.00  0.00    +0.000 A 
ATOM     10  C   UNL     1       4.625   3.436  15.242  0.00  0.00    +0.000 A 
ATOM     11  C   UNL     1       5.803   4.123  15.086  0.00  0.00    +0.000 A 
ATOM     12  N   UNL     1       6.495   4.578  13.970  0.00  0.00    +0.000 N 
ATOM     13  C   UNL     1       7.638   5.279  14.379  0.00  0.00    +0.000 A 
ATOM     14  O   UNL     1       8.458   5.846  13.677  0.00  0.00    +0.000 OA
ATOM     15  N   UNL     1       7.656   5.221  15.773  0.00  0.00    +0.000 N 
ATOM     16  C   UNL     1       6.534   4.520  16.184  0.00  0.00    +0.000 A 
ATOM     17  C   UNL     1       6.125   4.270  17.459  0.00  0.00    +0.000 A 
ATOM     18  H   UNL     1       6.221   4.476  13.009  0.00  0.00    +0.000 HD
ATOM     19  H   UNL     1       8.361   5.654  16.344  0.00  0.00    +0.000 HD
ENDBRANCH   2   8
BRANCH   7  20
ATOM     20  C   UNL     1       1.602   4.639  17.942  0.00  0.00    +0.000 C 
BRANCH  20  21
ATOM     21  O   UNL     1       1.085   3.319  18.147  0.00  0.00    +0.000 OA
ATOM     22  H   UNL     1       0.201   3.295  17.734  0.00  0.00    +0.000 HD
ENDBRANCH  20  21
ENDBRANCH   7  20
BRANCH   7  23
ATOM     23  C   UNL     1       3.089   6.561  19.143  0.00  0.00    +0.000 C 
BRANCH  23  24
ATOM     24  C   UNL     1       2.173   7.765  19.152  0.00  0.00    +0.000 A 
ATOM     25  C   UNL     1       1.851   8.385  17.941  0.00  0.00    +0.000 A 
ATOM     26  C   UNL     1       1.001   9.488  17.909  0.00  0.00    +0.000 A 
ATOM     27  C   UNL     1       0.448   9.981  19.087  0.00  0.00    +0.000 A 
ATOM     28  C   UNL     1       0.748   9.362  20.300  0.00  0.00    +0.000 A 
ATOM     29  C   UNL     1       1.608   8.264  20.334  0.00  0.00    +0.000 A 
ENDBRANCH  23  24
ENDBRANCH   7  23
TORSDOF 5
ENDMDL
MODEL 9
REMARK VINA RESULT:      -7.2      2.646      6.062
REMARK  Name = 
REMARK  5 active torsions:
REMARK  status: ('A' for Active; 'I' for Inactive)
REMARK    1  A    between atoms: C_2  and  C_3
REMARK    2  A    between atoms: C_17  and  C_18
REMARK    3  A    between atoms: C_17  and  C_20
REMARK    4  A    between atoms: C_18  and  O_19
REMARK    5  A    between atoms: C_20  and  C_21
REMARK                            x       y       z     vdW  Elec       q    Type
REMARK                         _______ _______ _______ _____ _____    ______ ____
ROOT
ATOM      1  O   UNL     1       1.055   4.384  17.185  0.00  0.00    +0.000 OA
ATOM      2  C   UNL     1       1.922   4.637  18.025  0.00  0.00    +0.000 C 
ATOM      3  N   UNL     1       2.864   3.652  18.386  0.00  0.00    +0.000 N 
ATOM      4  C   UNL     1       2.830   2.386  17.654  0.00  0.00    +0.000 C 
ATOM      5  C   UNL     1       3.272   1.343  18.660  0.00  0.00    +0.000 C 
ATOM      6  C   UNL     1       4.369   2.064  19.414  0.00  0.00    +0.000 C 
ATOM      7  C   UNL     1       3.919   3.564  19.472  0.00  0.00    +0.000 C 
ENDROOT
BRANCH   2   8
ATOM      8  C   UNL     1       1.855   6.015  18.632  0.00  0.00    +0.000 A 
ATOM      9  C   UNL     1       2.015   7.162  17.808  0.00  0.00    +0.000 A 
ATOM     10  C   UNL     1       1.935   8.478  18.322  0.00  0.00    +0.000 A 
ATOM     11  C   UNL     1       1.683   8.618  19.665  0.00  0.00    +0.000 A 
ATOM     12  N   UNL     1       1.489   9.724  20.483  0.00  0.00    +0.000 N 
ATOM     13  C   UNL     1       1.209   9.300  21.789  0.00  0.00    +0.000 A 
ATOM     14  O   UNL     1       0.952   9.989  22.761  0.00  0.00    +0.000 OA
ATOM     15  N   UNL     1       1.265   7.905  21.769  0.00  0.00    +0.000 N 
ATOM     16  C   UNL     1       1.549   7.510  20.471  0.00  0.00    +0.000 A 
ATOM     17  C   UNL     1       1.643   6.241  19.986  0.00  0.00    +0.000 A 
ATOM     18  H   UNL     1       1.498  10.689  20.203  0.00  0.00    +0.000 HD
ATOM     19  H   UNL     1       1.091   7.325  22.570  0.00  0.00    +0.000 HD
ENDBRANCH   2   8
BRANCH   7  20
ATOM     20  C   UNL     1       3.273   3.770  20.884  0.00  0.00    +0.000 C 
BRANCH  20  21
ATOM     21  O   UNL     1       3.219   2.542  21.621  0.00  0.00    +0.000 OA
ATOM     22  H   UNL     1       2.962   2.772  22.533  0.00  0.00    +0.000 HD
ENDBRANCH  20  21
ENDBRANCH   7  20
BRANCH   7  23
ATOM     23  C   UNL     1       5.207   4.389  19.089  0.00  0.00    +0.000 C 
BRANCH  23  24
ATOM     24  C   UNL     1       5.386   4.719  17.624  0.00  0.00    +0.000 A 
ATOM     25  C   UNL     1       5.140   6.023  17.183  0.00  0.00    +0.000 A 
ATOM     26  C   UNL     1       5.306   6.366  15.844  0.00  0.00    +0.000 A 
ATOM     27  C   UNL     1       5.735   5.413  14.925  0.00  0.00    +0.000 A 
ATOM     28  C   UNL     1       6.001   4.114  15.352  0.00  0.00    +0.000 A 
ATOM     29  C   UNL     1       5.823   3.766  16.692  0.00  0.00    +0.000 A 
ENDBRANCH  23  24
ENDBRANCH   7  23
TORSDOF 5
ENDMDL
