MODEL 1
REMARK VINA RESULT:      -8.6      0.000      0.000
REMARK  Name = 
REMARK  3 active torsions:
REMARK  status: ('A' for Active; 'I' for Inactive)
REMARK    1  A    between atoms: C_2  and  C_19
REMARK    2  A    between atoms: N_3  and  C_4
REMARK    3  A    between atoms: C_9  and  C_10
REMARK                            x       y       z     vdW  Elec       q    Type
REMARK                         _______ _______ _______ _____ _____    ______ ____
ROOT
ATOM      1  C   UNL     1       3.252   3.702  19.512  0.00  0.00    +0.000 A 
ATOM      2  C   UNL     1       3.206   2.368  19.947  0.00  0.00    +0.000 A 
ATOM      3  C   UNL     1       2.555   2.030  21.137  0.00  0.00    +0.000 A 
ATOM      4  C   UNL     1       1.959   3.019  21.908  0.00  0.00    +0.000 A 
ATOM      5  C   UNL     1       1.991   4.344  21.474  0.00  0.00    +0.000 A 
ATOM      6  C   UNL     1       2.609   4.701  20.258  0.00  0.00    +0.000 A 
ENDROOT
BRANCH   6   7
ATOM      7  C   UNL     1       2.395   6.060  19.731  0.00  0.00    +0.000 A 
ATOM      8  N   UNL     1       2.648   6.549  18.524  0.00  0.00    +0.000 NA
ATOM      9  C   UNL     1       2.231   7.871  18.563  0.00  0.00    +0.000 A 
ATOM     10  C   UNL     1       2.282   8.885  17.593  0.00  0.00    +0.000 A 
ATOM     11  C   UNL     1       1.805  10.165  17.931  0.00  0.00    +0.000 A 
ATOM     12  C   UNL     1       1.274  10.432  19.197  0.00  0.00    +0.000 A 
ATOM     13  C   UNL     1       1.187   9.430  20.161  0.00  0.00    +0.000 A 
ATOM     14  C   UNL     1       1.682   8.178  19.801  0.00  0.00    +0.000 A 
ATOM     15  N   UNL     1       1.749   7.007  20.492  0.00  0.00    +0.000 N 
ATOM     16  H   UNL     1       1.374   6.848  21.414  0.00  0.00    +0.000 HD
ENDBRANCH   6   7
BRANCH   1  19
ATOM     17  O   UNL     1       6.095   4.100  19.232  0.00  0.00    +0.000 OA
ATOM     18  C   UNL     1       5.316   4.266  18.299  0.00  0.00    +0.000 C 
ATOM     19  N   UNL     1       3.954   4.055  18.342  0.00  0.00    +0.000 N 
ATOM     20  H   UNL     1       3.486   3.827  17.466  0.00  0.00    +0.000 HD
BRANCH  18  21
ATOM     21  C   UNL     1       5.866   4.580  16.958  0.00  0.00    +0.000 A 
ATOM     22  C   UNL     1       5.405   3.803  15.883  0.00  0.00    +0.000 A 
ATOM     23  C   UNL     1       5.881   4.028  14.590  0.00  0.00    +0.000 A 
ATOM     24  C   UNL     1       6.825   5.028  14.367  0.00  0.00    +0.000 A 
ATOM     25  C   UNL     1       7.300   5.795  15.433  0.00  0.00    +0.000 A 
ATOM     26  C   UNL     1       6.827   5.572  16.733  0.00  0.00    +0.000 A 
ATOM     27 CL   UNL     1       7.523   6.524  17.995  0.00  0.00    +0.000 Cl
ENDBRANCH  18  21
ENDBRANCH   1  19
TORSDOF 3
ENDMDL
MODEL 2
REMARK VINA RESULT:      -8.2      2.653      5.571
REMARK  Name = 
REMARK  3 active torsions:
REMARK  status: ('A' for Active; 'I' for Inactive)
REMARK    1  A    between atoms: C_2  and  C_19
REMARK    2  A    between atoms: N_3  and  C_4
REMARK    3  A    between atoms: C_9  and  C_10
REMARK                            x       y       z     vdW  Elec       q    Type
REMARK                         _______ _______ _______ _____ _____    ______ ____
ROOT
ATOM      1  C   UNL     1       1.981   4.332  18.561  0.00  0.00    +0.000 A 
ATOM      2  C   UNL     1       0.973   3.414  18.897  0.00  0.00    +0.000 A 
ATOM      3  C   UNL     1       1.223   2.039  18.860  0.00  0.00    +0.000 A 
ATOM      4  C   UNL     1       2.472   1.570  18.475  0.00  0.00    +0.000 A 
ATOM      5  C   UNL     1       3.480   2.478  18.152  0.00  0.00    +0.000 A 
ATOM      6  C   UNL     1       3.260   3.869  18.219  0.00  0.00    +0.000 A 
ENDROOT
BRANCH   6   7
ATOM      7  C   UNL     1       4.420   4.771  18.114  0.00  0.00    +0.000 A 
ATOM      8  N   UNL     1       4.641   5.770  17.269  0.00  0.00    +0.000 NA
ATOM      9  C   UNL     1       5.872   6.298  17.630  0.00  0.00    +0.000 A 
ATOM     10  C   UNL     1       6.630   7.341  17.074  0.00  0.00    +0.000 A 
ATOM     11  C   UNL     1       7.881   7.641  17.641  0.00  0.00    +0.000 A 
ATOM     12  C   UNL     1       8.367   6.935  18.746  0.00  0.00    +0.000 A 
ATOM     13  C   UNL     1       7.615   5.917  19.330  0.00  0.00    +0.000 A 
ATOM     14  C   UNL     1       6.387   5.633  18.736  0.00  0.00    +0.000 A 
ATOM     15  N   UNL     1       5.428   4.720  19.049  0.00  0.00    +0.000 N 
ATOM     16  H   UNL     1       5.443   4.105  19.848  0.00  0.00    +0.000 HD
ENDBRANCH   6   7
BRANCH   1  19
ATOM     17  O   UNL     1       2.803   6.294  20.509  0.00  0.00    +0.000 OA
ATOM     18  C   UNL     1       2.114   6.586  19.537  0.00  0.00    +0.000 C 
ATOM     19  N   UNL     1       1.718   5.716  18.543  0.00  0.00    +0.000 N 
ATOM     20  H   UNL     1       1.521   6.112  17.624  0.00  0.00    +0.000 HD
BRANCH  18  21
ATOM     21  C   UNL     1       1.780   8.012  19.302  0.00  0.00    +0.000 A 
ATOM     22  C   UNL     1       2.234   8.582  18.102  0.00  0.00    +0.000 A 
ATOM     23  C   UNL     1       1.971   9.921  17.810  0.00  0.00    +0.000 A 
ATOM     24  C   UNL     1       1.258  10.698  18.719  0.00  0.00    +0.000 A 
ATOM     25  C   UNL     1       0.816  10.143  19.921  0.00  0.00    +0.000 A 
ATOM     26  C   UNL     1       1.078   8.799  20.221  0.00  0.00    +0.000 A 
ATOM     27 CL   UNL     1       0.552   8.221  21.762  0.00  0.00    +0.000 Cl
ENDBRANCH  18  21
ENDBRANCH   1  19
TORSDOF 3
ENDMDL
MODEL 3
REMARK VINA RESULT:      -8.1      2.671      5.572
REMARK  Name = 
REMARK  3 active torsions:
REMARK  status: ('A' for Active; 'I' for Inactive)
REMARK    1  A    between atoms: C_2  and  C_19
REMARK    2  A    between atoms: N_3  and  C_4
REMARK    3  A    between atoms: C_9  and  C_10
REMARK                            x       y       z     vdW  Elec       q    Type
REMARK                         _______ _______ _______ _____ _____    ______ ____
ROOT
ATOM      1  C   UNL     1       2.084   4.276  18.764  0.00  0.00    +0.000 A 
ATOM      2  C   UNL     1       1.010   3.415  19.041  0.00  0.00    +0.000 A 
ATOM      3  C   UNL     1       1.205   2.032  19.101  0.00  0.00    +0.000 A 
ATOM      4  C   UNL     1       2.465   1.498  18.871  0.00  0.00    +0.000 A 
ATOM      5  C   UNL     1       3.538   2.350  18.607  0.00  0.00    +0.000 A 
ATOM      6  C   UNL     1       3.371   3.749  18.579  0.00  0.00    +0.000 A 
ENDROOT
BRANCH   6   7
ATOM      7  C   UNL     1       4.571   4.602  18.548  0.00  0.00    +0.000 A 
ATOM      8  N   UNL     1       5.674   4.538  19.282  0.00  0.00    +0.000 NA
ATOM      9  C   UNL     1       6.489   5.560  18.820  0.00  0.00    +0.000 A 
ATOM     10  C   UNL     1       7.757   5.994  19.239  0.00  0.00    +0.000 A 
ATOM     11  C   UNL     1       8.339   7.099  18.594  0.00  0.00    +0.000 A 
ATOM     12  C   UNL     1       7.689   7.753  17.543  0.00  0.00    +0.000 A 
ATOM     13  C   UNL     1       6.443   7.318  17.092  0.00  0.00    +0.000 A 
ATOM     14  C   UNL     1       5.887   6.230  17.763  0.00  0.00    +0.000 A 
ATOM     15  N   UNL     1       4.710   5.570  17.580  0.00  0.00    +0.000 N 
ATOM     16  H   UNL     1       4.044   5.751  16.845  0.00  0.00    +0.000 HD
ENDBRANCH   6   7
BRANCH   1  19
ATOM     17  O   UNL     1       2.284   6.253  20.854  0.00  0.00    +0.000 OA
ATOM     18  C   UNL     1       1.958   6.544  19.708  0.00  0.00    +0.000 C 
ATOM     19  N   UNL     1       1.882   5.666  18.648  0.00  0.00    +0.000 N 
ATOM     20  H   UNL     1       2.006   6.049  17.711  0.00  0.00    +0.000 HD
BRANCH  18  21
ATOM     21  C   UNL     1       1.762   7.973  19.363  0.00  0.00    +0.000 A 
ATOM     22  C   UNL     1       2.315   8.417  18.152  0.00  0.00    +0.000 A 
ATOM     23  C   UNL     1       2.183   9.750  17.760  0.00  0.00    +0.000 A 
ATOM     24  C   UNL     1       1.502  10.647  18.580  0.00  0.00    +0.000 A 
ATOM     25  C   UNL     1       0.962  10.216  19.793  0.00  0.00    +0.000 A 
ATOM     26  C   UNL     1       1.093   8.879  20.193  0.00  0.00    +0.000 A 
ATOM     27 CL   UNL     1       0.452   8.457  21.741  0.00  0.00    +0.000 Cl
ENDBRANCH  18  21
ENDBRANCH   1  19
TORSDOF 3
ENDMDL
MODEL 4
REMARK VINA RESULT:      -7.8      1.733      2.190
REMARK  Name = 
REMARK  3 active torsions:
REMARK  status: ('A' for Active; 'I' for Inactive)
REMARK    1  A    between atoms: C_2  and  C_19
REMARK    2  A    between atoms: N_3  and  C_4
REMARK    3  A    between atoms: C_9  and  C_10
REMARK                            x       y       z     vdW  Elec       q    Type
REMARK                         _______ _______ _______ _____ _____    ______ ____
ROOT
ATOM      1  C   UNL     1       3.318   4.243  19.910  0.00  0.00    +0.000 A 
ATOM      2  C   UNL     1       3.400   2.842  19.914  0.00  0.00    +0.000 A 
ATOM      3  C   UNL     1       2.307   2.068  20.312  0.00  0.00    +0.000 A 
ATOM      4  C   UNL     1       1.132   2.683  20.722  0.00  0.00    +0.000 A 
ATOM      5  C   UNL     1       1.042   4.075  20.708  0.00  0.00    +0.000 A 
ATOM      6  C   UNL     1       2.119   4.873  20.274  0.00  0.00    +0.000 A 
ENDROOT
BRANCH   6   7
ATOM      7  C   UNL     1       1.884   6.309  20.042  0.00  0.00    +0.000 A 
ATOM      8  N   UNL     1       2.021   7.020  18.931  0.00  0.00    +0.000 NA
ATOM      9  C   UNL     1       1.643   8.311  19.266  0.00  0.00    +0.000 A 
ATOM     10  C   UNL     1       1.616   9.493  18.508  0.00  0.00    +0.000 A 
ATOM     11  C   UNL     1       1.209  10.686  19.133  0.00  0.00    +0.000 A 
ATOM     12  C   UNL     1       0.819  10.706  20.476  0.00  0.00    +0.000 A 
ATOM     13  C   UNL     1       0.810   9.537  21.235  0.00  0.00    +0.000 A 
ATOM     14  C   UNL     1       1.234   8.376  20.592  0.00  0.00    +0.000 A 
ATOM     15  N   UNL     1       1.344   7.094  21.035  0.00  0.00    +0.000 N 
ATOM     16  H   UNL     1       1.064   6.762  21.945  0.00  0.00    +0.000 HD
ENDBRANCH   6   7
BRANCH   1  19
ATOM     17  O   UNL     1       4.727   4.264  17.392  0.00  0.00    +0.000 OA
ATOM     18  C   UNL     1       5.079   4.952  18.345  0.00  0.00    +0.000 C 
ATOM     19  N   UNL     1       4.436   5.029  19.562  0.00  0.00    +0.000 N 
ATOM     20  H   UNL     1       4.552   5.886  20.101  0.00  0.00    +0.000 HD
BRANCH  18  21
ATOM     21  C   UNL     1       6.203   5.902  18.162  0.00  0.00    +0.000 A 
ATOM     22  C   UNL     1       7.248   5.840  19.097  0.00  0.00    +0.000 A 
ATOM     23  C   UNL     1       8.338   6.706  19.001  0.00  0.00    +0.000 A 
ATOM     24  C   UNL     1       8.385   7.644  17.972  0.00  0.00    +0.000 A 
ATOM     25  C   UNL     1       7.343   7.722  17.046  0.00  0.00    +0.000 A 
ATOM     26  C   UNL     1       6.245   6.856  17.138  0.00  0.00    +0.000 A 
ATOM     27 CL   UNL     1       4.974   7.074  15.990  0.00  0.00    +0.000 Cl
ENDBRANCH  18  21
ENDBRANCH   1  19
TORSDOF 3
ENDMDL
MODEL 5
REMARK VINA RESULT:      -7.7      1.705      2.444
REMARK  Name = 
REMARK  3 active torsions:
REMARK  status: ('A' for Active; 'I' for Inactive)
REMARK    1  A    between atoms: C_2  and  C_19
REMARK    2  A    between atoms: N_3  and  C_4
REMARK    3  A    between atoms: C_9  and  C_10
REMARK                            x       y       z     vdW  Elec       q    Type
REMARK                         _______ _______ _______ _____ _____    ______ ____
ROOT
ATOM      1  C   UNL     1       3.315   4.245  19.926  0.00  0.00    +0.000 A 
ATOM      2  C   UNL     1       3.423   2.845  19.908  0.00  0.00    +0.000 A 
ATOM      3  C   UNL     1       2.343   2.044  20.288  0.00  0.00    +0.000 A 
ATOM      4  C   UNL     1       1.155   2.630  20.702  0.00  0.00    +0.000 A 
ATOM      5  C   UNL     1       1.038   4.020  20.710  0.00  0.00    +0.000 A 
ATOM      6  C   UNL     1       2.102   4.846  20.294  0.00  0.00    +0.000 A 
ENDROOT
BRANCH   6   7
ATOM      7  C   UNL     1       1.841   6.280  20.085  0.00  0.00    +0.000 A 
ATOM      8  N   UNL     1       1.344   7.181  20.922  0.00  0.00    +0.000 NA
ATOM      9  C   UNL     1       1.336   8.378  20.221  0.00  0.00    +0.000 A 
ATOM     10  C   UNL     1       0.891   9.659  20.583  0.00  0.00    +0.000 A 
ATOM     11  C   UNL     1       0.979  10.696  19.637  0.00  0.00    +0.000 A 
ATOM     12  C   UNL     1       1.512  10.474  18.363  0.00  0.00    +0.000 A 
ATOM     13  C   UNL     1       1.988   9.216  17.997  0.00  0.00    +0.000 A 
ATOM     14  C   UNL     1       1.872   8.207  18.951  0.00  0.00    +0.000 A 
ATOM     15  N   UNL     1       2.230   6.894  18.916  0.00  0.00    +0.000 N 
ATOM     16  H   UNL     1       2.715   6.438  18.159  0.00  0.00    +0.000 HD
ENDBRANCH   6   7
BRANCH   1  19
ATOM     17  O   UNL     1       4.954   4.093  17.557  0.00  0.00    +0.000 OA
ATOM     18  C   UNL     1       5.178   4.895  18.458  0.00  0.00    +0.000 C 
ATOM     19  N   UNL     1       4.419   5.058  19.597  0.00  0.00    +0.000 N 
ATOM     20  H   UNL     1       4.439   5.971  20.049  0.00  0.00    +0.000 HD
BRANCH  18  21
ATOM     21  C   UNL     1       6.265   5.888  18.274  0.00  0.00    +0.000 A 
ATOM     22  C   UNL     1       7.326   5.848  19.193  0.00  0.00    +0.000 A 
ATOM     23  C   UNL     1       8.382   6.754  19.095  0.00  0.00    +0.000 A 
ATOM     24  C   UNL     1       8.380   7.711  18.082  0.00  0.00    +0.000 A 
ATOM     25  C   UNL     1       7.321   7.767  17.174  0.00  0.00    +0.000 A 
ATOM     26  C   UNL     1       6.256   6.860  17.267  0.00  0.00    +0.000 A 
ATOM     27 CL   UNL     1       4.960   7.052  16.142  0.00  0.00    +0.000 Cl
ENDBRANCH  18  21
ENDBRANCH   1  19
TORSDOF 3
ENDMDL
MODEL 6
REMARK VINA RESULT:      -7.7      2.375      5.640
REMARK  Name = 
REMARK  3 active torsions:
REMARK  status: ('A' for Active; 'I' for Inactive)
REMARK    1  A    between atoms: C_2  and  C_19
REMARK    2  A    between atoms: N_3  and  C_4
REMARK    3  A    between atoms: C_9  and  C_10
REMARK                            x       y       z     vdW  Elec       q    Type
REMARK                         _______ _______ _______ _____ _____    ______ ____
ROOT
ATOM      1  C   UNL     1       1.995   4.178  18.841  0.00  0.00    +0.000 A 
ATOM      2  C   UNL     1       1.040   3.205  19.175  0.00  0.00    +0.000 A 
ATOM      3  C   UNL     1       1.291   1.851  18.937  0.00  0.00    +0.000 A 
ATOM      4  C   UNL     1       2.487   1.459  18.351  0.00  0.00    +0.000 A 
ATOM      5  C   UNL     1       3.444   2.420  18.028  0.00  0.00    +0.000 A 
ATOM      6  C   UNL     1       3.227   3.787  18.295  0.00  0.00    +0.000 A 
ENDROOT
BRANCH   6   7
ATOM      7  C   UNL     1       4.361   4.719  18.168  0.00  0.00    +0.000 A 
ATOM      8  N   UNL     1       4.528   5.740  17.338  0.00  0.00    +0.000 NA
ATOM      9  C   UNL     1       5.758   6.289  17.666  0.00  0.00    +0.000 A 
ATOM     10  C   UNL     1       6.471   7.362  17.106  0.00  0.00    +0.000 A 
ATOM     11  C   UNL     1       7.736   7.679  17.634  0.00  0.00    +0.000 A 
ATOM     12  C   UNL     1       8.278   6.961  18.704  0.00  0.00    +0.000 A 
ATOM     13  C   UNL     1       7.572   5.913  19.292  0.00  0.00    +0.000 A 
ATOM     14  C   UNL     1       6.329   5.613  18.736  0.00  0.00    +0.000 A 
ATOM     15  N   UNL     1       5.404   4.671  19.064  0.00  0.00    +0.000 N 
ATOM     16  H   UNL     1       5.462   4.039  19.847  0.00  0.00    +0.000 HD
ENDBRANCH   6   7
BRANCH   1  19
ATOM     17  O   UNL     1       2.430   5.736  21.229  0.00  0.00    +0.000 OA
ATOM     18  C   UNL     1       1.925   6.214  20.219  0.00  0.00    +0.000 C 
ATOM     19  N   UNL     1       1.724   5.549  19.028  0.00  0.00    +0.000 N 
ATOM     20  H   UNL     1       1.692   6.108  18.177  0.00  0.00    +0.000 HD
BRANCH  18  21
ATOM     21  C   UNL     1       1.624   7.666  20.191  0.00  0.00    +0.000 A 
ATOM     22  C   UNL     1       1.103   8.231  21.366  0.00  0.00    +0.000 A 
ATOM     23  C   UNL     1       0.785   9.589  21.419  0.00  0.00    +0.000 A 
ATOM     24  C   UNL     1       0.979  10.387  20.294  0.00  0.00    +0.000 A 
ATOM     25  C   UNL     1       1.482   9.830  19.117  0.00  0.00    +0.000 A 
ATOM     26  C   UNL     1       1.803   8.467  19.058  0.00  0.00    +0.000 A 
ATOM     27 CL   UNL     1       2.354   7.856  17.539  0.00  0.00    +0.000 Cl
ENDBRANCH  18  21
ENDBRANCH   1  19
TORSDOF 3
ENDMDL
MODEL 7
REMARK VINA RESULT:      -7.4      2.344      5.633
REMARK  Name = 
REMARK  3 active torsions:
REMARK  status: ('A' for Active; 'I' for Inactive)
REMARK    1  A    between atoms: C_2  and  C_19
REMARK    2  A    between atoms: N_3  and  C_4
REMARK    3  A    between atoms: C_9  and  C_10
REMARK                            x       y       z     vdW  Elec       q    Type
REMARK                         _______ _______ _______ _____ _____    ______ ____
ROOT
ATOM      1  C   UNL     1       2.150   4.079  18.813  0.00  0.00    +0.000 A 
ATOM      2  C   UNL     1       1.130   3.137  19.026  0.00  0.00    +0.000 A 
ATOM      3  C   UNL     1       1.365   1.776  18.816  0.00  0.00    +0.000 A 
ATOM      4  C   UNL     1       2.610   1.345  18.379  0.00  0.00    +0.000 A 
ATOM      5  C   UNL     1       3.630   2.275  18.178  0.00  0.00    +0.000 A 
ATOM      6  C   UNL     1       3.426   3.648  18.420  0.00  0.00    +0.000 A 
ENDROOT
BRANCH   6   7
ATOM      7  C   UNL     1       4.595   4.543  18.435  0.00  0.00    +0.000 A 
ATOM      8  N   UNL     1       5.657   4.535  19.229  0.00  0.00    +0.000 NA
ATOM      9  C   UNL     1       6.461   5.576  18.789  0.00  0.00    +0.000 A 
ATOM     10  C   UNL     1       7.687   6.064  19.268  0.00  0.00    +0.000 A 
ATOM     11  C   UNL     1       8.265   7.177  18.630  0.00  0.00    +0.000 A 
ATOM     12  C   UNL     1       7.651   7.785  17.530  0.00  0.00    +0.000 A 
ATOM     13  C   UNL     1       6.449   7.295  17.023  0.00  0.00    +0.000 A 
ATOM     14  C   UNL     1       5.894   6.202  17.686  0.00  0.00    +0.000 A 
ATOM     15  N   UNL     1       4.754   5.496  17.455  0.00  0.00    +0.000 N 
ATOM     16  H   UNL     1       4.124   5.637  16.680  0.00  0.00    +0.000 HD
ENDBRANCH   6   7
BRANCH   1  19
ATOM     17  O   UNL     1       2.295   5.616  21.250  0.00  0.00    +0.000 OA
ATOM     18  C   UNL     1       1.954   6.114  20.181  0.00  0.00    +0.000 C 
ATOM     19  N   UNL     1       1.902   5.458  18.970  0.00  0.00    +0.000 N 
ATOM     20  H   UNL     1       2.009   6.020  18.126  0.00  0.00    +0.000 HD
BRANCH  18  21
ATOM     21  C   UNL     1       1.710   7.575  20.121  0.00  0.00    +0.000 A 
ATOM     22  C   UNL     1       1.164   8.177  21.266  0.00  0.00    +0.000 A 
ATOM     23  C   UNL     1       0.895   9.546  21.287  0.00  0.00    +0.000 A 
ATOM     24  C   UNL     1       1.164  10.320  20.160  0.00  0.00    +0.000 A 
ATOM     25  C   UNL     1       1.693   9.726  19.012  0.00  0.00    +0.000 A 
ATOM     26  C   UNL     1       1.964   8.352  18.985  0.00  0.00    +0.000 A 
ATOM     27 CL   UNL     1       2.552   7.697  17.498  0.00  0.00    +0.000 Cl
ENDBRANCH  18  21
ENDBRANCH   1  19
TORSDOF 3
ENDMDL
MODEL 8
REMARK VINA RESULT:      -7.4      6.497      9.600
REMARK  Name = 
REMARK  3 active torsions:
REMARK  status: ('A' for Active; 'I' for Inactive)
REMARK    1  A    between atoms: C_2  and  C_19
REMARK    2  A    between atoms: N_3  and  C_4
REMARK    3  A    between atoms: C_9  and  C_10
REMARK                            x       y       z     vdW  Elec       q    Type
REMARK                         _______ _______ _______ _____ _____    ______ ____
ROOT
ATOM      1  C   UNL     1      -2.612  10.339  17.604  0.00  0.00    +0.000 A 
ATOM      2  C   UNL     1      -2.082   9.964  16.359  0.00  0.00    +0.000 A 
ATOM      3  C   UNL     1      -2.770  10.252  15.178  0.00  0.00    +0.000 A 
ATOM      4  C   UNL     1      -3.996  10.901  15.228  0.00  0.00    +0.000 A 
ATOM      5  C   UNL     1      -4.521  11.287  16.462  0.00  0.00    +0.000 A 
ATOM      6  C   UNL     1      -3.826  11.039  17.663  0.00  0.00    +0.000 A 
ENDROOT
BRANCH   6   7
ATOM      7  C   UNL     1      -4.301  11.685  18.898  0.00  0.00    +0.000 A 
ATOM      8  N   UNL     1      -3.660  12.494  19.731  0.00  0.00    +0.000 NA
ATOM      9  C   UNL     1      -4.582  12.829  20.711  0.00  0.00    +0.000 A 
ATOM     10  C   UNL     1      -4.462  13.622  21.862  0.00  0.00    +0.000 A 
ATOM     11  C   UNL     1      -5.578  13.760  22.706  0.00  0.00    +0.000 A 
ATOM     12  C   UNL     1      -6.795  13.139  22.409  0.00  0.00    +0.000 A 
ATOM     13  C   UNL     1      -6.943  12.372  21.254  0.00  0.00    +0.000 A 
ATOM     14  C   UNL     1      -5.814  12.243  20.447  0.00  0.00    +0.000 A 
ATOM     15  N   UNL     1      -5.620  11.578  19.275  0.00  0.00    +0.000 N 
ATOM     16  H   UNL     1      -6.331  11.090  18.753  0.00  0.00    +0.000 HD
ENDBRANCH   6   7
BRANCH   1  19
ATOM     17  O   UNL     1      -0.282  11.612  18.731  0.00  0.00    +0.000 OA
ATOM     18  C   UNL     1      -0.812  10.637  19.254  0.00  0.00    +0.000 C 
ATOM     19  N   UNL     1      -1.949  10.001  18.801  0.00  0.00    +0.000 N 
ATOM     20  H   UNL     1      -2.513   9.503  19.488  0.00  0.00    +0.000 HD
BRANCH  18  21
ATOM     21  C   UNL     1      -0.299  10.162  20.562  0.00  0.00    +0.000 A 
ATOM     22  C   UNL     1      -0.915  10.680  21.713  0.00  0.00    +0.000 A 
ATOM     23  C   UNL     1      -0.485  10.292  22.982  0.00  0.00    +0.000 A 
ATOM     24  C   UNL     1       0.568   9.389  23.108  0.00  0.00    +0.000 A 
ATOM     25  C   UNL     1       1.196   8.881  21.969  0.00  0.00    +0.000 A 
ATOM     26  C   UNL     1       0.769   9.268  20.691  0.00  0.00    +0.000 A 
ATOM     27 CL   UNL     1       1.651   8.640  19.345  0.00  0.00    +0.000 Cl
ENDBRANCH  18  21
ENDBRANCH   1  19
TORSDOF 3
ENDMDL
MODEL 9
REMARK VINA RESULT:      -7.2      1.809      2.256
REMARK  Name = 
REMARK  3 active torsions:
REMARK  status: ('A' for Active; 'I' for Inactive)
REMARK    1  A    between atoms: C_2  and  C_19
REMARK    2  A    between atoms: N_3  and  C_4
REMARK    3  A    between atoms: C_9  and  C_10
REMARK                            x       y       z     vdW  Elec       q    Type
REMARK                         _______ _______ _______ _____ _____    ______ ____
ROOT
ATOM      1  C   UNL     1       3.423   4.494  19.823  0.00  0.00    +0.000 A 
ATOM      2  C   UNL     1       3.568   3.101  19.725  0.00  0.00    +0.000 A 
ATOM      3  C   UNL     1       2.522   2.250  20.090  0.00  0.00    +0.000 A 
ATOM      4  C   UNL     1       1.330   2.780  20.567  0.00  0.00    +0.000 A 
ATOM      5  C   UNL     1       1.176   4.163  20.653  0.00  0.00    +0.000 A 
ATOM      6  C   UNL     1       2.206   5.040  20.256  0.00  0.00    +0.000 A 
ENDROOT
BRANCH   6   7
ATOM      7  C   UNL     1       1.901   6.475  20.131  0.00  0.00    +0.000 A 
ATOM      8  N   UNL     1       1.951   7.262  19.065  0.00  0.00    +0.000 NA
ATOM      9  C   UNL     1       1.537   8.511  19.502  0.00  0.00    +0.000 A 
ATOM     10  C   UNL     1       1.424   9.737  18.827  0.00  0.00    +0.000 A 
ATOM     11  C   UNL     1       1.000  10.867  19.549  0.00  0.00    +0.000 A 
ATOM     12  C   UNL     1       0.678  10.784  20.907  0.00  0.00    +0.000 A 
ATOM     13  C   UNL     1       0.756   9.569  21.586  0.00  0.00    +0.000 A 
ATOM     14  C   UNL     1       1.194   8.472  20.847  0.00  0.00    +0.000 A 
ATOM     15  N   UNL     1       1.379   7.170  21.198  0.00  0.00    +0.000 N 
ATOM     16  H   UNL     1       1.160   6.768  22.097  0.00  0.00    +0.000 HD
ENDBRANCH   6   7
BRANCH   1  19
ATOM     17  O   UNL     1       5.166   4.351  17.528  0.00  0.00    +0.000 OA
ATOM     18  C   UNL     1       5.310   5.195  18.407  0.00  0.00    +0.000 C 
ATOM     19  N   UNL     1       4.495   5.354  19.509  0.00  0.00    +0.000 N 
ATOM     20  H   UNL     1       4.448   6.282  19.928  0.00  0.00    +0.000 HD
BRANCH  18  21
ATOM     21  C   UNL     1       6.349   6.238  18.232  0.00  0.00    +0.000 A 
ATOM     22  C   UNL     1       6.122   7.201  17.235  0.00  0.00    +0.000 A 
ATOM     23  C   UNL     1       7.056   8.210  17.000  0.00  0.00    +0.000 A 
ATOM     24  C   UNL     1       8.225   8.259  17.756  0.00  0.00    +0.000 A 
ATOM     25  C   UNL     1       8.465   7.297  18.739  0.00  0.00    +0.000 A 
ATOM     26  C   UNL     1       7.531   6.280  18.979  0.00  0.00    +0.000 A 
ATOM     27 CL   UNL     1       7.947   5.096  20.166  0.00  0.00    +0.000 Cl
ENDBRANCH  18  21
ENDBRANCH   1  19
TORSDOF 3
ENDMDL
