MODEL 1
REMARK VINA RESULT:      -8.3      0.000      0.000
REMARK  Name = 
REMARK  6 active torsions:
REMARK  status: ('A' for Active; 'I' for Inactive)
REMARK    1  A    between atoms: C_2  and  C_3
REMARK    2  A    between atoms: C_3  and  C_4
REMARK    3  A    between atoms: C_4  and  C_5
REMARK    4  A    between atoms: C_10  and  O_11
REMARK    5  A    between atoms: N_12  and  C_13
REMARK    6  A    between atoms: C_16  and  C_17
REMARK                            x       y       z     vdW  Elec       q    Type
REMARK                         _______ _______ _______ _____ _____    ______ ____
ROOT
ATOM      1  C   UNL     1       1.049   9.857  18.899  0.00  0.00    +0.000 A 
ATOM      2  C   UNL     1       1.759   9.370  17.803  0.00  0.00    +0.000 A 
ATOM      3  C   UNL     1       2.451   8.157  17.891  0.00  0.00    +0.000 A 
ATOM      4  C   UNL     1       2.458   7.417  19.077  0.00  0.00    +0.000 A 
ATOM      5  C   UNL     1       1.826   7.965  20.200  0.00  0.00    +0.000 A 
ATOM      6  C   UNL     1       1.111   9.160  20.109  0.00  0.00    +0.000 A 
ENDROOT
BRANCH   4   7
ATOM      7  C   UNL     1       3.125   6.113  19.115  0.00  0.00    +0.000 A 
ATOM      8  N   UNL     1       4.225   5.805  18.453  0.00  0.00    +0.000 NA
ATOM      9  N   UNL     1       4.574   4.516  18.751  0.00  0.00    +0.000 NA
ATOM     10  C   UNL     1       3.674   4.025  19.576  0.00  0.00    +0.000 A 
ATOM     11  N   UNL     1       2.704   4.978  19.786  0.00  0.00    +0.000 N 
ATOM     12  C   UNL     1       1.469   4.817  20.524  0.00  0.00    +0.000 C 
ATOM     13  C   UNL     1       0.820   3.447  20.399  0.00  0.00    +0.000 C 
ATOM     14  C   UNL     1       1.449   2.386  21.296  0.00  0.00    +0.000 C 
ATOM     15  C   UNL     1       2.967   2.479  21.463  0.00  0.00    +0.000 C 
ATOM     16  C   UNL     1       3.710   2.647  20.144  0.00  0.00    +0.000 C 
ENDBRANCH   4   7
BRANCH   1  19
ATOM     17  O   UNL     1      -1.750  10.226  18.062  0.00  0.00    +0.000 OA
ATOM     18  C   UNL     1      -1.025  11.154  18.413  0.00  0.00    +0.000 C 
ATOM     19  N   UNL     1       0.268  11.028  18.878  0.00  0.00    +0.000 N 
ATOM     20  H   UNL     1       0.674  11.829  19.342  0.00  0.00    +0.000 HD
BRANCH  18  21
ATOM     21  C   UNL     1      -1.580  12.565  18.450  0.00  0.00    +0.000 C 
BRANCH  21  22
ATOM     22  C   UNL     1      -1.080  13.422  19.607  0.00  0.00    +0.000 C 
BRANCH  22  23
ATOM     23  C   UNL     1      -1.696  12.992  20.913  0.00  0.00    +0.000 A 
ATOM     24  C   UNL     1      -3.080  13.116  21.099  0.00  0.00    +0.000 A 
ATOM     25  C   UNL     1      -3.671  12.696  22.290  0.00  0.00    +0.000 A 
ATOM     26  C   UNL     1      -2.891  12.137  23.305  0.00  0.00    +0.000 A 
ATOM     27  C   UNL     1      -1.512  12.005  23.125  0.00  0.00    +0.000 A 
ATOM     28  C   UNL     1      -0.922  12.426  21.934  0.00  0.00    +0.000 A 
BRANCH  28  29
ATOM     29  O   UNL     1       0.422  12.278  21.742  0.00  0.00    +0.000 OA
ATOM     30  H   UNL     1       0.560  11.771  20.927  0.00  0.00    +0.000 HD
ENDBRANCH  28  29
ENDBRANCH  22  23
ENDBRANCH  21  22
ENDBRANCH  18  21
ENDBRANCH   1  19
TORSDOF 6
ENDMDL
MODEL 2
REMARK VINA RESULT:      -8.2      3.139      8.818
REMARK  Name = 
REMARK  6 active torsions:
REMARK  status: ('A' for Active; 'I' for Inactive)
REMARK    1  A    between atoms: C_2  and  C_3
REMARK    2  A    between atoms: C_3  and  C_4
REMARK    3  A    between atoms: C_4  and  C_5
REMARK    4  A    between atoms: C_10  and  O_11
REMARK    5  A    between atoms: N_12  and  C_13
REMARK    6  A    between atoms: C_16  and  C_17
REMARK                            x       y       z     vdW  Elec       q    Type
REMARK                         _______ _______ _______ _____ _____    ______ ____
ROOT
ATOM      1  C   UNL     1       2.438   7.134  18.722  0.00  0.00    +0.000 A 
ATOM      2  C   UNL     1       2.220   6.730  20.038  0.00  0.00    +0.000 A 
ATOM      3  C   UNL     1       1.574   7.582  20.942  0.00  0.00    +0.000 A 
ATOM      4  C   UNL     1       1.148   8.854  20.552  0.00  0.00    +0.000 A 
ATOM      5  C   UNL     1       1.462   9.288  19.257  0.00  0.00    +0.000 A 
ATOM      6  C   UNL     1       2.081   8.432  18.345  0.00  0.00    +0.000 A 
ENDROOT
BRANCH   4   7
ATOM      7  C   UNL     1       0.405   9.692  21.497  0.00  0.00    +0.000 A 
ATOM      8  N   UNL     1       0.310   9.469  22.795  0.00  0.00    +0.000 NA
ATOM      9  N   UNL     1      -0.433  10.469  23.361  0.00  0.00    +0.000 NA
ATOM     10  C   UNL     1      -0.816  11.290  22.407  0.00  0.00    +0.000 A 
ATOM     11  N   UNL     1      -0.362  10.805  21.203  0.00  0.00    +0.000 N 
ATOM     12  C   UNL     1      -0.661  11.328  19.885  0.00  0.00    +0.000 C 
ATOM     13  C   UNL     1      -2.068  11.879  19.716  0.00  0.00    +0.000 C 
ATOM     14  C   UNL     1      -2.245  13.288  20.272  0.00  0.00    +0.000 C 
ATOM     15  C   UNL     1      -1.475  13.591  21.559  0.00  0.00    +0.000 C 
ATOM     16  C   UNL     1      -1.636  12.516  22.626  0.00  0.00    +0.000 C 
ENDBRANCH   4   7
BRANCH   1  19
ATOM     17  O   UNL     1       5.235   6.274  18.395  0.00  0.00    +0.000 OA
ATOM     18  C   UNL     1       4.348   5.998  17.590  0.00  0.00    +0.000 C 
ATOM     19  N   UNL     1       3.013   6.318  17.730  0.00  0.00    +0.000 N 
ATOM     20  H   UNL     1       2.358   5.847  17.122  0.00  0.00    +0.000 HD
BRANCH  18  21
ATOM     21  C   UNL     1       4.677   5.155  16.374  0.00  0.00    +0.000 C 
BRANCH  21  22
ATOM     22  C   UNL     1       4.804   3.660  16.643  0.00  0.00    +0.000 C 
BRANCH  22  23
ATOM     23  C   UNL     1       3.833   3.211  17.705  0.00  0.00    +0.000 A 
ATOM     24  C   UNL     1       2.510   2.911  17.351  0.00  0.00    +0.000 A 
ATOM     25  C   UNL     1       1.607   2.468  18.314  0.00  0.00    +0.000 A 
ATOM     26  C   UNL     1       2.014   2.305  19.640  0.00  0.00    +0.000 A 
ATOM     27  C   UNL     1       3.332   2.594  20.001  0.00  0.00    +0.000 A 
ATOM     28  C   UNL     1       4.234   3.039  19.035  0.00  0.00    +0.000 A 
BRANCH  28  29
ATOM     29  O   UNL     1       5.531   3.302  19.376  0.00  0.00    +0.000 OA
ATOM     30  H   UNL     1       5.990   3.639  18.591  0.00  0.00    +0.000 HD
ENDBRANCH  28  29
ENDBRANCH  22  23
ENDBRANCH  21  22
ENDBRANCH  18  21
ENDBRANCH   1  19
TORSDOF 6
ENDMDL
MODEL 3
REMARK VINA RESULT:      -8.1      3.168      9.231
REMARK  Name = 
REMARK  6 active torsions:
REMARK  status: ('A' for Active; 'I' for Inactive)
REMARK    1  A    between atoms: C_2  and  C_3
REMARK    2  A    between atoms: C_3  and  C_4
REMARK    3  A    between atoms: C_4  and  C_5
REMARK    4  A    between atoms: C_10  and  O_11
REMARK    5  A    between atoms: N_12  and  C_13
REMARK    6  A    between atoms: C_16  and  C_17
REMARK                            x       y       z     vdW  Elec       q    Type
REMARK                         _______ _______ _______ _____ _____    ______ ____
ROOT
ATOM      1  C   UNL     1       2.268   7.450  19.474  0.00  0.00    +0.000 A 
ATOM      2  C   UNL     1       2.214   8.037  18.210  0.00  0.00    +0.000 A 
ATOM      3  C   UNL     1       1.510   9.231  18.015  0.00  0.00    +0.000 A 
ATOM      4  C   UNL     1       0.838   9.851  19.072  0.00  0.00    +0.000 A 
ATOM      5  C   UNL     1       0.815   9.201  20.312  0.00  0.00    +0.000 A 
ATOM      6  C   UNL     1       1.538   8.025  20.518  0.00  0.00    +0.000 A 
ENDROOT
BRANCH   4   7
ATOM      7  C   UNL     1       0.177  11.141  18.854  0.00  0.00    +0.000 A 
ATOM      8  N   UNL     1      -1.102  11.297  18.564  0.00  0.00    +0.000 NA
ATOM      9  N   UNL     1      -1.370  12.635  18.461  0.00  0.00    +0.000 NA
ATOM     10  C   UNL     1      -0.252  13.298  18.663  0.00  0.00    +0.000 A 
ATOM     11  N   UNL     1       0.766  12.392  18.853  0.00  0.00    +0.000 N 
ATOM     12  C   UNL     1       2.179  12.685  18.984  0.00  0.00    +0.000 C 
ATOM     13  C   UNL     1       2.677  13.842  18.133  0.00  0.00    +0.000 C 
ATOM     14  C   UNL     1       2.379  15.214  18.728  0.00  0.00    +0.000 C 
ATOM     15  C   UNL     1       1.034  15.343  19.446  0.00  0.00    +0.000 C 
ATOM     16  C   UNL     1      -0.135  14.784  18.645  0.00  0.00    +0.000 C 
ENDBRANCH   4   7
BRANCH   1  19
ATOM     17  O   UNL     1       1.729   4.644  18.764  0.00  0.00    +0.000 OA
ATOM     18  C   UNL     1       2.673   4.989  19.470  0.00  0.00    +0.000 C 
ATOM     19  N   UNL     1       3.009   6.293  19.776  0.00  0.00    +0.000 N 
ATOM     20  H   UNL     1       3.924   6.454  20.171  0.00  0.00    +0.000 HD
BRANCH  18  21
ATOM     21  C   UNL     1       3.638   3.944  19.994  0.00  0.00    +0.000 C 
BRANCH  21  22
ATOM     22  C   UNL     1       4.576   3.351  18.947  0.00  0.00    +0.000 C 
BRANCH  22  23
ATOM     23  C   UNL     1       5.197   4.429  18.097  0.00  0.00    +0.000 A 
ATOM     24  C   UNL     1       4.700   4.666  16.807  0.00  0.00    +0.000 A 
ATOM     25  C   UNL     1       5.243   5.677  16.018  0.00  0.00    +0.000 A 
ATOM     26  C   UNL     1       6.281   6.473  16.508  0.00  0.00    +0.000 A 
ATOM     27  C   UNL     1       6.779   6.248  17.794  0.00  0.00    +0.000 A 
ATOM     28  C   UNL     1       6.234   5.235  18.582  0.00  0.00    +0.000 A 
BRANCH  28  29
ATOM     29  O   UNL     1       6.699   5.024  19.849  0.00  0.00    +0.000 OA
ATOM     30  H   UNL     1       6.794   5.885  20.287  0.00  0.00    +0.000 HD
ENDBRANCH  28  29
ENDBRANCH  22  23
ENDBRANCH  21  22
ENDBRANCH  18  21
ENDBRANCH   1  19
TORSDOF 6
ENDMDL
MODEL 4
REMARK VINA RESULT:      -8.1      3.172      9.381
REMARK  Name = 
REMARK  6 active torsions:
REMARK  status: ('A' for Active; 'I' for Inactive)
REMARK    1  A    between atoms: C_2  and  C_3
REMARK    2  A    between atoms: C_3  and  C_4
REMARK    3  A    between atoms: C_4  and  C_5
REMARK    4  A    between atoms: C_10  and  O_11
REMARK    5  A    between atoms: N_12  and  C_13
REMARK    6  A    between atoms: C_16  and  C_17
REMARK                            x       y       z     vdW  Elec       q    Type
REMARK                         _______ _______ _______ _____ _____    ______ ____
ROOT
ATOM      1  C   UNL     1       2.250   7.522  19.509  0.00  0.00    +0.000 A 
ATOM      2  C   UNL     1       2.213   8.126  18.253  0.00  0.00    +0.000 A 
ATOM      3  C   UNL     1       1.510   9.321  18.063  0.00  0.00    +0.000 A 
ATOM      4  C   UNL     1       0.821   9.926  19.118  0.00  0.00    +0.000 A 
ATOM      5  C   UNL     1       0.780   9.258  20.349  0.00  0.00    +0.000 A 
ATOM      6  C   UNL     1       1.503   8.081  20.550  0.00  0.00    +0.000 A 
ENDROOT
BRANCH   4   7
ATOM      7  C   UNL     1       0.160  11.216  18.908  0.00  0.00    +0.000 A 
ATOM      8  N   UNL     1      -1.123  11.376  18.636  0.00  0.00    +0.000 NA
ATOM      9  N   UNL     1      -1.389  12.714  18.535  0.00  0.00    +0.000 NA
ATOM     10  C   UNL     1      -0.266  13.374  18.719  0.00  0.00    +0.000 A 
ATOM     11  N   UNL     1       0.752  12.466  18.897  0.00  0.00    +0.000 N 
ATOM     12  C   UNL     1       2.168  12.755  19.007  0.00  0.00    +0.000 C 
ATOM     13  C   UNL     1       2.657  13.910  18.146  0.00  0.00    +0.000 C 
ATOM     14  C   UNL     1       2.370  15.284  18.742  0.00  0.00    +0.000 C 
ATOM     15  C   UNL     1       1.037  15.417  19.481  0.00  0.00    +0.000 C 
ATOM     16  C   UNL     1      -0.145  14.860  18.698  0.00  0.00    +0.000 C 
ENDBRANCH   4   7
BRANCH   1  19
ATOM     17  O   UNL     1       2.197   4.883  18.205  0.00  0.00    +0.000 OA
ATOM     18  C   UNL     1       2.876   5.128  19.199  0.00  0.00    +0.000 C 
ATOM     19  N   UNL     1       2.988   6.362  19.807  0.00  0.00    +0.000 N 
ATOM     20  H   UNL     1       3.742   6.485  20.468  0.00  0.00    +0.000 HD
BRANCH  18  21
ATOM     21  C   UNL     1       3.758   4.045  19.789  0.00  0.00    +0.000 C 
BRANCH  21  22
ATOM     22  C   UNL     1       4.834   3.509  18.851  0.00  0.00    +0.000 C 
BRANCH  22  23
ATOM     23  C   UNL     1       5.695   4.623  18.314  0.00  0.00    +0.000 A 
ATOM     24  C   UNL     1       6.674   5.200  19.136  0.00  0.00    +0.000 A 
ATOM     25  C   UNL     1       7.498   6.211  18.647  0.00  0.00    +0.000 A 
ATOM     26  C   UNL     1       7.367   6.651  17.328  0.00  0.00    +0.000 A 
ATOM     27  C   UNL     1       6.399   6.078  16.500  0.00  0.00    +0.000 A 
ATOM     28  C   UNL     1       5.574   5.067  16.991  0.00  0.00    +0.000 A 
BRANCH  28  29
ATOM     29  O   UNL     1       4.642   4.486  16.180  0.00  0.00    +0.000 OA
ATOM     30  H   UNL     1       4.105   3.881  16.715  0.00  0.00    +0.000 HD
ENDBRANCH  28  29
ENDBRANCH  22  23
ENDBRANCH  21  22
ENDBRANCH  18  21
ENDBRANCH   1  19
TORSDOF 6
ENDMDL
MODEL 5
REMARK VINA RESULT:      -8.1      2.939      8.955
REMARK  Name = 
REMARK  6 active torsions:
REMARK  status: ('A' for Active; 'I' for Inactive)
REMARK    1  A    between atoms: C_2  and  C_3
REMARK    2  A    between atoms: C_3  and  C_4
REMARK    3  A    between atoms: C_4  and  C_5
REMARK    4  A    between atoms: C_10  and  O_11
REMARK    5  A    between atoms: N_12  and  C_13
REMARK    6  A    between atoms: C_16  and  C_17
REMARK                            x       y       z     vdW  Elec       q    Type
REMARK                         _______ _______ _______ _____ _____    ______ ____
ROOT
ATOM      1  C   UNL     1       2.537   7.434  18.870  0.00  0.00    +0.000 A 
ATOM      2  C   UNL     1       2.314   8.193  17.722  0.00  0.00    +0.000 A 
ATOM      3  C   UNL     1       1.535   9.354  17.781  0.00  0.00    +0.000 A 
ATOM      4  C   UNL     1       0.955   9.770  18.983  0.00  0.00    +0.000 A 
ATOM      5  C   UNL     1       1.102   8.947  20.107  0.00  0.00    +0.000 A 
ATOM      6  C   UNL     1       1.901   7.804  20.058  0.00  0.00    +0.000 A 
ENDROOT
BRANCH   4   7
ATOM      7  C   UNL     1       0.211  11.031  19.032  0.00  0.00    +0.000 A 
ATOM      8  N   UNL     1      -1.106  11.136  19.015  0.00  0.00    +0.000 NA
ATOM      9  N   UNL     1      -1.445  12.459  19.104  0.00  0.00    +0.000 NA
ATOM     10  C   UNL     1      -0.337  13.167  19.149  0.00  0.00    +0.000 A 
ATOM     11  N   UNL     1       0.735  12.311  19.043  0.00  0.00    +0.000 N 
ATOM     12  C   UNL     1       2.133  12.676  18.924  0.00  0.00    +0.000 C 
ATOM     13  C   UNL     1       2.401  13.934  18.114  0.00  0.00    +0.000 C 
ATOM     14  C   UNL     1       2.171  15.226  18.892  0.00  0.00    +0.000 C 
ATOM     15  C   UNL     1       0.994  15.206  19.869  0.00  0.00    +0.000 C 
ATOM     16  C   UNL     1      -0.288  14.653  19.260  0.00  0.00    +0.000 C 
ENDBRANCH   4   7
BRANCH   1  19
ATOM     17  O   UNL     1       4.396   6.387  16.841  0.00  0.00    +0.000 OA
ATOM     18  C   UNL     1       4.171   5.816  17.905  0.00  0.00    +0.000 C 
ATOM     19  N   UNL     1       3.363   6.297  18.916  0.00  0.00    +0.000 N 
ATOM     20  H   UNL     1       3.438   5.850  19.819  0.00  0.00    +0.000 HD
BRANCH  18  21
ATOM     21  C   UNL     1       4.890   4.520  18.226  0.00  0.00    +0.000 C 
BRANCH  21  22
ATOM     22  C   UNL     1       4.061   3.257  18.022  0.00  0.00    +0.000 C 
BRANCH  22  23
ATOM     23  C   UNL     1       3.050   3.081  19.125  0.00  0.00    +0.000 A 
ATOM     24  C   UNL     1       3.487   2.780  20.423  0.00  0.00    +0.000 A 
ATOM     25  C   UNL     1       2.568   2.643  21.461  0.00  0.00    +0.000 A 
ATOM     26  C   UNL     1       1.203   2.815  21.221  0.00  0.00    +0.000 A 
ATOM     27  C   UNL     1       0.759   3.121  19.933  0.00  0.00    +0.000 A 
ATOM     28  C   UNL     1       1.680   3.257  18.895  0.00  0.00    +0.000 A 
BRANCH  28  29
ATOM     29  O   UNL     1       1.256   3.580  17.637  0.00  0.00    +0.000 OA
ATOM     30  H   UNL     1       0.936   2.773  17.206  0.00  0.00    +0.000 HD
ENDBRANCH  28  29
ENDBRANCH  22  23
ENDBRANCH  21  22
ENDBRANCH  18  21
ENDBRANCH   1  19
TORSDOF 6
ENDMDL
MODEL 6
REMARK VINA RESULT:      -8.1      6.455      8.385
REMARK  Name = 
REMARK  6 active torsions:
REMARK  status: ('A' for Active; 'I' for Inactive)
REMARK    1  A    between atoms: C_2  and  C_3
REMARK    2  A    between atoms: C_3  and  C_4
REMARK    3  A    between atoms: C_4  and  C_5
REMARK    4  A    between atoms: C_10  and  O_11
REMARK    5  A    between atoms: N_12  and  C_13
REMARK    6  A    between atoms: C_16  and  C_17
REMARK                            x       y       z     vdW  Elec       q    Type
REMARK                         _______ _______ _______ _____ _____    ______ ____
ROOT
ATOM      1  C   UNL     1       7.656   7.955  17.807  0.00  0.00    +0.000 A 
ATOM      2  C   UNL     1       7.969   6.820  18.554  0.00  0.00    +0.000 A 
ATOM      3  C   UNL     1       7.077   5.744  18.612  0.00  0.00    +0.000 A 
ATOM      4  C   UNL     1       5.852   5.787  17.939  0.00  0.00    +0.000 A 
ATOM      5  C   UNL     1       5.505   6.970  17.276  0.00  0.00    +0.000 A 
ATOM      6  C   UNL     1       6.403   8.035  17.192  0.00  0.00    +0.000 A 
ENDROOT
BRANCH   4   7
ATOM      7  C   UNL     1       4.975   4.614  17.954  0.00  0.00    +0.000 A 
ATOM      8  N   UNL     1       5.007   3.630  17.073  0.00  0.00    +0.000 NA
ATOM      9  N   UNL     1       4.068   2.697  17.418  0.00  0.00    +0.000 NA
ATOM     10  C   UNL     1       3.442   3.119  18.495  0.00  0.00    +0.000 A 
ATOM     11  N   UNL     1       3.939   4.356  18.835  0.00  0.00    +0.000 N 
ATOM     12  C   UNL     1       3.450   5.236  19.877  0.00  0.00    +0.000 C 
ATOM     13  C   UNL     1       1.943   5.217  20.079  0.00  0.00    +0.000 C 
ATOM     14  C   UNL     1       1.448   4.031  20.901  0.00  0.00    +0.000 C 
ATOM     15  C   UNL     1       2.185   2.711  20.663  0.00  0.00    +0.000 C 
ATOM     16  C   UNL     1       2.354   2.371  19.189  0.00  0.00    +0.000 C 
ENDBRANCH   4   7
BRANCH   1  19
ATOM     17  O   UNL     1       8.805   9.768  19.823  0.00  0.00    +0.000 OA
ATOM     18  C   UNL     1       8.980   9.908  18.615  0.00  0.00    +0.000 C 
ATOM     19  N   UNL     1       8.521   9.051  17.635  0.00  0.00    +0.000 N 
ATOM     20  H   UNL     1       8.917   9.150  16.711  0.00  0.00    +0.000 HD
BRANCH  18  21
ATOM     21  C   UNL     1       9.845  11.047  18.110  0.00  0.00    +0.000 C 
BRANCH  21  22
ATOM     22  C   UNL     1      11.042  11.384  18.993  0.00  0.00    +0.000 C 
BRANCH  22  23
ATOM     23  C   UNL     1      10.871  12.726  19.656  0.00  0.00    +0.000 A 
ATOM     24  C   UNL     1      11.247  13.890  18.971  0.00  0.00    +0.000 A 
ATOM     25  C   UNL     1      11.070  15.141  19.558  0.00  0.00    +0.000 A 
ATOM     26  C   UNL     1      10.504  15.249  20.831  0.00  0.00    +0.000 A 
ATOM     27  C   UNL     1      10.121  14.095  21.518  0.00  0.00    +0.000 A 
ATOM     28  C   UNL     1      10.300  12.844  20.930  0.00  0.00    +0.000 A 
BRANCH  28  29
ATOM     29  O   UNL     1       9.906  11.712  21.586  0.00  0.00    +0.000 OA
ATOM     30  H   UNL     1      10.039  10.954  20.996  0.00  0.00    +0.000 HD
ENDBRANCH  28  29
ENDBRANCH  22  23
ENDBRANCH  21  22
ENDBRANCH  18  21
ENDBRANCH   1  19
TORSDOF 6
ENDMDL
MODEL 7
REMARK VINA RESULT:      -8.1      1.984      2.903
REMARK  Name = 
REMARK  6 active torsions:
REMARK  status: ('A' for Active; 'I' for Inactive)
REMARK    1  A    between atoms: C_2  and  C_3
REMARK    2  A    between atoms: C_3  and  C_4
REMARK    3  A    between atoms: C_4  and  C_5
REMARK    4  A    between atoms: C_10  and  O_11
REMARK    5  A    between atoms: N_12  and  C_13
REMARK    6  A    between atoms: C_16  and  C_17
REMARK                            x       y       z     vdW  Elec       q    Type
REMARK                         _______ _______ _______ _____ _____    ______ ____
ROOT
ATOM      1  C   UNL     1       0.559   9.548  20.298  0.00  0.00    +0.000 A 
ATOM      2  C   UNL     1       0.916   9.797  18.973  0.00  0.00    +0.000 A 
ATOM      3  C   UNL     1       1.754   8.912  18.288  0.00  0.00    +0.000 A 
ATOM      4  C   UNL     1       2.261   7.770  18.915  0.00  0.00    +0.000 A 
ATOM      5  C   UNL     1       1.978   7.583  20.274  0.00  0.00    +0.000 A 
ATOM      6  C   UNL     1       1.120   8.449  20.953  0.00  0.00    +0.000 A 
ENDROOT
BRANCH   4   7
ATOM      7  C   UNL     1       3.072   6.820  18.149  0.00  0.00    +0.000 A 
ATOM      8  N   UNL     1       4.049   7.151  17.323  0.00  0.00    +0.000 NA
ATOM      9  N   UNL     1       4.599   6.008  16.810  0.00  0.00    +0.000 NA
ATOM     10  C   UNL     1       3.944   4.977  17.301  0.00  0.00    +0.000 A 
ATOM     11  N   UNL     1       2.929   5.445  18.104  0.00  0.00    +0.000 N 
ATOM     12  C   UNL     1       1.891   4.661  18.742  0.00  0.00    +0.000 C 
ATOM     13  C   UNL     1       1.397   3.471  17.934  0.00  0.00    +0.000 C 
ATOM     14  C   UNL     1       2.311   2.253  18.013  0.00  0.00    +0.000 C 
ATOM     15  C   UNL     1       3.810   2.555  18.053  0.00  0.00    +0.000 C 
ATOM     16  C   UNL     1       4.254   3.552  16.990  0.00  0.00    +0.000 C 
ENDBRANCH   4   7
BRANCH   1  19
ATOM     17  O   UNL     1       0.955  12.229  21.449  0.00  0.00    +0.000 OA
ATOM     18  C   UNL     1      -0.071  11.573  21.610  0.00  0.00    +0.000 C 
ATOM     19  N   UNL     1      -0.334  10.344  21.038  0.00  0.00    +0.000 N 
ATOM     20  H   UNL     1      -1.289  10.016  21.065  0.00  0.00    +0.000 HD
BRANCH  18  21
ATOM     21  C   UNL     1      -1.215  12.158  22.416  0.00  0.00    +0.000 C 
BRANCH  21  22
ATOM     22  C   UNL     1      -2.441  12.553  21.599  0.00  0.00    +0.000 C 
BRANCH  22  23
ATOM     23  C   UNL     1      -3.677  12.606  22.459  0.00  0.00    +0.000 A 
ATOM     24  C   UNL     1      -3.567  12.413  23.844  0.00  0.00    +0.000 A 
ATOM     25  C   UNL     1      -4.695  12.487  24.657  0.00  0.00    +0.000 A 
ATOM     26  C   UNL     1      -5.947  12.766  24.103  0.00  0.00    +0.000 A 
ATOM     27  C   UNL     1      -6.065  12.966  22.725  0.00  0.00    +0.000 A 
ATOM     28  C   UNL     1      -4.935  12.890  21.913  0.00  0.00    +0.000 A 
BRANCH  28  29
ATOM     29  O   UNL     1      -5.039  13.108  20.568  0.00  0.00    +0.000 OA
ATOM     30  H   UNL     1      -5.674  13.826  20.423  0.00  0.00    +0.000 HD
ENDBRANCH  28  29
ENDBRANCH  22  23
ENDBRANCH  21  22
ENDBRANCH  18  21
ENDBRANCH   1  19
TORSDOF 6
ENDMDL
MODEL 8
REMARK VINA RESULT:      -8.0      3.244      9.519
REMARK  Name = 
REMARK  6 active torsions:
REMARK  status: ('A' for Active; 'I' for Inactive)
REMARK    1  A    between atoms: C_2  and  C_3
REMARK    2  A    between atoms: C_3  and  C_4
REMARK    3  A    between atoms: C_4  and  C_5
REMARK    4  A    between atoms: C_10  and  O_11
REMARK    5  A    between atoms: N_12  and  C_13
REMARK    6  A    between atoms: C_16  and  C_17
REMARK                            x       y       z     vdW  Elec       q    Type
REMARK                         _______ _______ _______ _____ _____    ______ ____
ROOT
ATOM      1  C   UNL     1       2.165   7.358  19.281  0.00  0.00    +0.000 A 
ATOM      2  C   UNL     1       1.564   8.004  20.361  0.00  0.00    +0.000 A 
ATOM      3  C   UNL     1       0.980   9.265  20.195  0.00  0.00    +0.000 A 
ATOM      4  C   UNL     1       0.997   9.908  18.954  0.00  0.00    +0.000 A 
ATOM      5  C   UNL     1       1.690   9.295  17.902  0.00  0.00    +0.000 A 
ATOM      6  C   UNL     1       2.250   8.026  18.056  0.00  0.00    +0.000 A 
ENDROOT
BRANCH   4   7
ATOM      7  C   UNL     1       0.309  11.191  18.792  0.00  0.00    +0.000 A 
ATOM      8  N   UNL     1      -0.976  11.334  18.523  0.00  0.00    +0.000 NA
ATOM      9  N   UNL     1      -1.271  12.669  18.473  0.00  0.00    +0.000 NA
ATOM     10  C   UNL     1      -0.163  13.345  18.686  0.00  0.00    +0.000 A 
ATOM     11  N   UNL     1       0.875  12.453  18.831  0.00  0.00    +0.000 N 
ATOM     12  C   UNL     1       2.283  12.767  18.956  0.00  0.00    +0.000 C 
ATOM     13  C   UNL     1       2.749  13.965  18.142  0.00  0.00    +0.000 C 
ATOM     14  C   UNL     1       2.432  15.308  18.791  0.00  0.00    +0.000 C 
ATOM     15  C   UNL     1       1.094  15.384  19.530  0.00  0.00    +0.000 C 
ATOM     16  C   UNL     1      -0.074  14.833  18.722  0.00  0.00    +0.000 C 
ENDBRANCH   4   7
BRANCH   1  19
ATOM     17  O   UNL     1       1.472   4.961  17.718  0.00  0.00    +0.000 OA
ATOM     18  C   UNL     1       2.301   4.956  18.624  0.00  0.00    +0.000 C 
ATOM     19  N   UNL     1       2.711   6.063  19.340  0.00  0.00    +0.000 N 
ATOM     20  H   UNL     1       3.550   5.970  19.896  0.00  0.00    +0.000 HD
BRANCH  18  21
ATOM     21  C   UNL     1       3.037   3.673  18.959  0.00  0.00    +0.000 C 
BRANCH  21  22
ATOM     22  C   UNL     1       4.477   3.861  19.426  0.00  0.00    +0.000 C 
BRANCH  22  23
ATOM     23  C   UNL     1       5.391   4.170  18.270  0.00  0.00    +0.000 A 
ATOM     24  C   UNL     1       5.022   3.786  16.973  0.00  0.00    +0.000 A 
ATOM     25  C   UNL     1       5.842   4.089  15.888  0.00  0.00    +0.000 A 
ATOM     26  C   UNL     1       7.034   4.790  16.080  0.00  0.00    +0.000 A 
ATOM     27  C   UNL     1       7.407   5.183  17.368  0.00  0.00    +0.000 A 
ATOM     28  C   UNL     1       6.586   4.877  18.452  0.00  0.00    +0.000 A 
BRANCH  28  29
ATOM     29  O   UNL     1       6.932   5.279  19.712  0.00  0.00    +0.000 OA
ATOM     30  H   UNL     1       7.511   6.054  19.637  0.00  0.00    +0.000 HD
ENDBRANCH  28  29
ENDBRANCH  22  23
ENDBRANCH  21  22
ENDBRANCH  18  21
ENDBRANCH   1  19
TORSDOF 6
ENDMDL
MODEL 9
REMARK VINA RESULT:      -8.0      2.323      3.397
REMARK  Name = 
REMARK  6 active torsions:
REMARK  status: ('A' for Active; 'I' for Inactive)
REMARK    1  A    between atoms: C_2  and  C_3
REMARK    2  A    between atoms: C_3  and  C_4
REMARK    3  A    between atoms: C_4  and  C_5
REMARK    4  A    between atoms: C_10  and  O_11
REMARK    5  A    between atoms: N_12  and  C_13
REMARK    6  A    between atoms: C_16  and  C_17
REMARK                            x       y       z     vdW  Elec       q    Type
REMARK                         _______ _______ _______ _____ _____    ______ ____
ROOT
ATOM      1  C   UNL     1       1.217   9.237  19.668  0.00  0.00    +0.000 A 
ATOM      2  C   UNL     1       1.598   9.232  18.327  0.00  0.00    +0.000 A 
ATOM      3  C   UNL     1       2.211   8.105  17.769  0.00  0.00    +0.000 A 
ATOM      4  C   UNL     1       2.467   6.969  18.543  0.00  0.00    +0.000 A 
ATOM      5  C   UNL     1       2.173   7.022  19.911  0.00  0.00    +0.000 A 
ATOM      6  C   UNL     1       1.536   8.133  20.465  0.00  0.00    +0.000 A 
ENDROOT
BRANCH   4   7
ATOM      7  C   UNL     1       3.038   5.775  17.913  0.00  0.00    +0.000 A 
ATOM      8  N   UNL     1       2.450   4.594  17.853  0.00  0.00    +0.000 NA
ATOM      9  N   UNL     1       3.261   3.731  17.168  0.00  0.00    +0.000 NA
ATOM     10  C   UNL     1       4.357   4.376  16.829  0.00  0.00    +0.000 A 
ATOM     11  N   UNL     1       4.288   5.654  17.333  0.00  0.00    +0.000 N 
ATOM     12  C   UNL     1       5.330   6.660  17.302  0.00  0.00    +0.000 C 
ATOM     13  C   UNL     1       6.745   6.124  17.459  0.00  0.00    +0.000 C 
ATOM     14  C   UNL     1       7.326   5.540  16.175  0.00  0.00    +0.000 C 
ATOM     15  C   UNL     1       6.335   4.782  15.289  0.00  0.00    +0.000 C 
ATOM     16  C   UNL     1       5.484   3.778  16.057  0.00  0.00    +0.000 C 
ENDBRANCH   4   7
BRANCH   1  19
ATOM     17  O   UNL     1      -1.381  10.444  18.988  0.00  0.00    +0.000 OA
ATOM     18  C   UNL     1      -0.658  10.865  19.889  0.00  0.00    +0.000 C 
ATOM     19  N   UNL     1       0.533  10.296  20.291  0.00  0.00    +0.000 N 
ATOM     20  H   UNL     1       0.914  10.598  21.177  0.00  0.00    +0.000 HD
BRANCH  18  21
ATOM     21  C   UNL     1      -1.113  12.047  20.723  0.00  0.00    +0.000 C 
BRANCH  21  22
ATOM     22  C   UNL     1      -0.728  11.980  22.197  0.00  0.00    +0.000 C 
BRANCH  22  23
ATOM     23  C   UNL     1      -1.718  12.725  23.055  0.00  0.00    +0.000 A 
ATOM     24  C   UNL     1      -2.936  12.118  23.393  0.00  0.00    +0.000 A 
ATOM     25  C   UNL     1      -3.850  12.781  24.209  0.00  0.00    +0.000 A 
ATOM     26  C   UNL     1      -3.556  14.052  24.709  0.00  0.00    +0.000 A 
ATOM     27  C   UNL     1      -2.342  14.662  24.383  0.00  0.00    +0.000 A 
ATOM     28  C   UNL     1      -1.429  13.997  23.565  0.00  0.00    +0.000 A 
BRANCH  28  29
ATOM     29  O   UNL     1      -0.230  14.577  23.260  0.00  0.00    +0.000 OA
ATOM     30  H   UNL     1      -0.383  15.516  23.074  0.00  0.00    +0.000 HD
ENDBRANCH  28  29
ENDBRANCH  22  23
ENDBRANCH  21  22
ENDBRANCH  18  21
ENDBRANCH   1  19
TORSDOF 6
ENDMDL
