MODEL 1
REMARK VINA RESULT:      -9.3      0.000      0.000
REMARK  Name = 
REMARK  5 active torsions:
REMARK  status: ('A' for Active; 'I' for Inactive)
REMARK    1  A    between atoms: C_1  and  C_2
REMARK    2  A    between atoms: C_5  and  N_6
REMARK    3  A    between atoms: C_10  and  N_11
REMARK    4  A    between atoms: N_11  and  C_12
REMARK    5  A    between atoms: C_14  and  C_15
REMARK                            x       y       z     vdW  Elec       q    Type
REMARK                         _______ _______ _______ _____ _____    ______ ____
ROOT
ATOM      1  N   UNL     1       4.605   3.082  18.701  0.00  0.00    +0.000 N 
ATOM      2  H   UNL     1       4.910   2.103  18.642  0.00  0.00    +0.000 HD
ENDROOT
BRANCH   1   3
ATOM      3  C   UNL     1       5.401   3.831  17.811  0.00  0.00    +0.000 A 
ATOM      4  C   UNL     1       5.330   3.748  16.476  0.00  0.00    +0.000 A 
ATOM      5  C   UNL     1       6.301   4.548  15.661  0.00  0.00    +0.000 A 
ATOM      6  N   UNL     1       7.172   5.376  16.174  0.00  0.00    +0.000 NA
ATOM      7  C   UNL     1       7.189   5.491  17.534  0.00  0.00    +0.000 A 
ATOM      8  N   UNL     1       7.951   6.247  18.292  0.00  0.00    +0.000 NA
ATOM      9  C   UNL     1       7.559   5.933  19.556  0.00  0.00    +0.000 A 
ATOM     10  N   UNL     1       6.596   5.018  19.662  0.00  0.00    +0.000 NA
ATOM     11  N   UNL     1       6.341   4.738  18.354  0.00  0.00    +0.000 N 
BRANCH   5  12
ATOM     12  C   UNL     1       6.247   4.334  14.144  0.00  0.00    +0.000 C 
ATOM     13  F   UNL     1       6.503   3.047  13.780  0.00  0.00    +0.000 F 
ATOM     14  F   UNL     1       5.026   4.634  13.626  0.00  0.00    +0.000 F 
ATOM     15  F   UNL     1       7.155   5.103  13.486  0.00  0.00    +0.000 F 
ENDBRANCH   5  12
ENDBRANCH   1   3
BRANCH   1  20
ATOM     16  N   UNL     1       2.352   5.270  19.828  0.00  0.00    +0.000 N 
ATOM     17  C   UNL     1       1.976   4.500  21.012  0.00  0.00    +0.000 C 
ATOM     18  C   UNL     1       2.694   3.165  21.121  0.00  0.00    +0.000 C 
ATOM     19  C   UNL     1       2.512   2.397  19.825  0.00  0.00    +0.000 C 
ATOM     20  C   UNL     1       3.119   3.171  18.659  0.00  0.00    +0.000 C 
ATOM     21  C   UNL     1       2.625   4.638  18.605  0.00  0.00    +0.000 C 
ATOM     22  O   UNL     1       2.530   5.203  17.506  0.00  0.00    +0.000 OA
BRANCH  16  27
ATOM     23  C   UNL     1       0.868  10.820  19.613  0.00  0.00    +0.000 C 
ATOM     24  C   UNL     1       1.300   9.388  19.706  0.00  0.00    +0.000 A 
ATOM     25  C   UNL     1       1.045   8.630  20.854  0.00  0.00    +0.000 A 
ATOM     26  C   UNL     1       1.420   7.284  20.915  0.00  0.00    +0.000 A 
ATOM     27  C   UNL     1       2.018   6.660  19.814  0.00  0.00    +0.000 A 
ATOM     28  C   UNL     1       2.287   7.426  18.673  0.00  0.00    +0.000 A 
ATOM     29  C   UNL     1       1.943   8.780  18.623  0.00  0.00    +0.000 A 
ENDBRANCH  16  27
ENDBRANCH   1  20
TORSDOF 4
ENDMDL
MODEL 2
REMARK VINA RESULT:      -9.2      0.937      1.233
REMARK  Name = 
REMARK  5 active torsions:
REMARK  status: ('A' for Active; 'I' for Inactive)
REMARK    1  A    between atoms: C_1  and  C_2
REMARK    2  A    between atoms: C_5  and  N_6
REMARK    3  A    between atoms: C_10  and  N_11
REMARK    4  A    between atoms: N_11  and  C_12
REMARK    5  A    between atoms: C_14  and  C_15
REMARK                            x       y       z     vdW  Elec       q    Type
REMARK                         _______ _______ _______ _____ _____    ______ ____
ROOT
ATOM      1  N   UNL     1       4.958   3.150  17.929  0.00  0.00    +0.000 N 
ATOM      2  H   UNL     1       5.365   2.207  17.944  0.00  0.00    +0.000 HD
ENDROOT
BRANCH   1   3
ATOM      3  C   UNL     1       5.539   3.850  16.853  0.00  0.00    +0.000 A 
ATOM      4  C   UNL     1       5.408   3.504  15.565  0.00  0.00    +0.000 A 
ATOM      5  C   UNL     1       6.154   4.299  14.536  0.00  0.00    +0.000 A 
ATOM      6  N   UNL     1       6.875   5.354  14.814  0.00  0.00    +0.000 NA
ATOM      7  C   UNL     1       6.948   5.724  16.125  0.00  0.00    +0.000 A 
ATOM      8  N   UNL     1       7.591   6.735  16.666  0.00  0.00    +0.000 NA
ATOM      9  C   UNL     1       7.342   6.600  17.996  0.00  0.00    +0.000 A 
ATOM     10  N   UNL     1       6.585   5.561  18.349  0.00  0.00    +0.000 NA
ATOM     11  N   UNL     1       6.313   4.998  17.139  0.00  0.00    +0.000 N 
BRANCH   5  12
ATOM     12  C   UNL     1       6.055   3.796  13.092  0.00  0.00    +0.000 C 
ATOM     13  F   UNL     1       4.811   3.949  12.561  0.00  0.00    +0.000 F 
ATOM     14  F   UNL     1       6.902   4.457  12.258  0.00  0.00    +0.000 F 
ATOM     15  F   UNL     1       6.352   2.473  12.988  0.00  0.00    +0.000 F 
ENDBRANCH   5  12
ENDBRANCH   1   3
BRANCH   1  20
ATOM     16  N   UNL     1       2.693   4.970  19.570  0.00  0.00    +0.000 N 
ATOM     17  C   UNL     1       2.559   4.056  20.703  0.00  0.00    +0.000 C 
ATOM     18  C   UNL     1       3.406   2.801  20.572  0.00  0.00    +0.000 C 
ATOM     19  C   UNL     1       3.116   2.144  19.236  0.00  0.00    +0.000 C 
ATOM     20  C   UNL     1       3.479   3.084  18.091  0.00  0.00    +0.000 C 
ATOM     21  C   UNL     1       2.849   4.489  18.261  0.00  0.00    +0.000 C 
ATOM     22  O   UNL     1       2.549   5.142  17.251  0.00  0.00    +0.000 OA
BRANCH  16  27
ATOM     23  C   UNL     1       0.713  10.339  20.126  0.00  0.00    +0.000 C 
ATOM     24  C   UNL     1       1.272   8.952  20.021  0.00  0.00    +0.000 A 
ATOM     25  C   UNL     1       1.060   8.011  21.034  0.00  0.00    +0.000 A 
ATOM     26  C   UNL     1       1.555   6.708  20.909  0.00  0.00    +0.000 A 
ATOM     27  C   UNL     1       2.233   6.312  19.750  0.00  0.00    +0.000 A 
ATOM     28  C   UNL     1       2.458   7.262  18.746  0.00  0.00    +0.000 A 
ATOM     29  C   UNL     1       1.992   8.572  18.885  0.00  0.00    +0.000 A 
ENDBRANCH  16  27
ENDBRANCH   1  20
TORSDOF 4
ENDMDL
MODEL 3
REMARK VINA RESULT:      -9.1      0.944      1.531
REMARK  Name = 
REMARK  5 active torsions:
REMARK  status: ('A' for Active; 'I' for Inactive)
REMARK    1  A    between atoms: C_1  and  C_2
REMARK    2  A    between atoms: C_5  and  N_6
REMARK    3  A    between atoms: C_10  and  N_11
REMARK    4  A    between atoms: N_11  and  C_12
REMARK    5  A    between atoms: C_14  and  C_15
REMARK                            x       y       z     vdW  Elec       q    Type
REMARK                         _______ _______ _______ _____ _____    ______ ____
ROOT
ATOM      1  N   UNL     1       5.039   3.236  17.984  0.00  0.00    +0.000 N 
ATOM      2  H   UNL     1       5.478   2.308  18.029  0.00  0.00    +0.000 HD
ENDROOT
BRANCH   1   3
ATOM      3  C   UNL     1       5.611   3.927  16.897  0.00  0.00    +0.000 A 
ATOM      4  C   UNL     1       5.476   3.565  15.613  0.00  0.00    +0.000 A 
ATOM      5  C   UNL     1       6.213   4.353  14.572  0.00  0.00    +0.000 A 
ATOM      6  N   UNL     1       6.927   5.416  14.834  0.00  0.00    +0.000 NA
ATOM      7  C   UNL     1       7.004   5.801  16.141  0.00  0.00    +0.000 A 
ATOM      8  N   UNL     1       7.642   6.823  16.667  0.00  0.00    +0.000 NA
ATOM      9  C   UNL     1       7.400   6.702  17.999  0.00  0.00    +0.000 A 
ATOM     10  N   UNL     1       6.652   5.663  18.368  0.00  0.00    +0.000 NA
ATOM     11  N   UNL     1       6.379   5.084  17.166  0.00  0.00    +0.000 N 
BRANCH   5  12
ATOM     12  C   UNL     1       6.110   3.833  13.134  0.00  0.00    +0.000 C 
ATOM     13  F   UNL     1       6.962   4.463  12.279  0.00  0.00    +0.000 F 
ATOM     14  F   UNL     1       6.401   2.508  13.044  0.00  0.00    +0.000 F 
ATOM     15  F   UNL     1       4.863   3.998  12.617  0.00  0.00    +0.000 F 
ENDBRANCH   5  12
ENDBRANCH   1   3
BRANCH   1  20
ATOM     16  N   UNL     1       2.696   4.995  19.581  0.00  0.00    +0.000 N 
ATOM     17  C   UNL     1       2.578   4.087  20.720  0.00  0.00    +0.000 C 
ATOM     18  C   UNL     1       3.467   2.859  20.611  0.00  0.00    +0.000 C 
ATOM     19  C   UNL     1       3.214   2.181  19.277  0.00  0.00    +0.000 C 
ATOM     20  C   UNL     1       3.561   3.123  18.128  0.00  0.00    +0.000 C 
ATOM     21  C   UNL     1       2.883   4.509  18.278  0.00  0.00    +0.000 C 
ATOM     22  O   UNL     1       2.575   5.142  17.258  0.00  0.00    +0.000 OA
BRANCH  16  27
ATOM     23  C   UNL     1       0.795  10.359  20.400  0.00  0.00    +0.000 C 
ATOM     24  C   UNL     1       1.247   8.952  20.147  0.00  0.00    +0.000 A 
ATOM     25  C   UNL     1       1.934   8.615  18.976  0.00  0.00    +0.000 A 
ATOM     26  C   UNL     1       2.383   7.307  18.766  0.00  0.00    +0.000 A 
ATOM     27  C   UNL     1       2.190   6.323  19.743  0.00  0.00    +0.000 A 
ATOM     28  C   UNL     1       1.486   6.660  20.906  0.00  0.00    +0.000 A 
ATOM     29  C   UNL     1       1.008   7.958  21.101  0.00  0.00    +0.000 A 
ENDBRANCH  16  27
ENDBRANCH   1  20
TORSDOF 4
ENDMDL
MODEL 4
REMARK VINA RESULT:      -8.8      2.239      3.182
REMARK  Name = 
REMARK  5 active torsions:
REMARK  status: ('A' for Active; 'I' for Inactive)
REMARK    1  A    between atoms: C_1  and  C_2
REMARK    2  A    between atoms: C_5  and  N_6
REMARK    3  A    between atoms: C_10  and  N_11
REMARK    4  A    between atoms: N_11  and  C_12
REMARK    5  A    between atoms: C_14  and  C_15
REMARK                            x       y       z     vdW  Elec       q    Type
REMARK                         _______ _______ _______ _____ _____    ______ ____
ROOT
ATOM      1  N   UNL     1       5.400   3.675  18.611  0.00  0.00    +0.000 N 
ATOM      2  H   UNL     1       5.866   2.763  18.528  0.00  0.00    +0.000 HD
ENDROOT
BRANCH   1   3
ATOM      3  C   UNL     1       6.113   4.592  17.812  0.00  0.00    +0.000 A 
ATOM      4  C   UNL     1       6.704   5.701  18.276  0.00  0.00    +0.000 A 
ATOM      5  C   UNL     1       7.356   6.624  17.290  0.00  0.00    +0.000 A 
ATOM      6  N   UNL     1       7.441   6.377  16.010  0.00  0.00    +0.000 NA
ATOM      7  C   UNL     1       6.883   5.214  15.566  0.00  0.00    +0.000 A 
ATOM      8  N   UNL     1       6.836   4.730  14.344  0.00  0.00    +0.000 NA
ATOM      9  C   UNL     1       6.139   3.571  14.484  0.00  0.00    +0.000 A 
ATOM     10  N   UNL     1       5.727   3.279  15.717  0.00  0.00    +0.000 NA
ATOM     11  N   UNL     1       6.220   4.332  16.426  0.00  0.00    +0.000 N 
BRANCH   5  12
ATOM     12  C   UNL     1       7.923   7.929  17.860  0.00  0.00    +0.000 C 
ATOM     13  F   UNL     1       8.757   8.568  16.994  0.00  0.00    +0.000 F 
ATOM     14  F   UNL     1       6.946   8.823  18.167  0.00  0.00    +0.000 F 
ATOM     15  F   UNL     1       8.641   7.723  18.996  0.00  0.00    +0.000 F 
ENDBRANCH   5  12
ENDBRANCH   1   3
BRANCH   1  20
ATOM     16  N   UNL     1       2.753   5.406  19.675  0.00  0.00    +0.000 N 
ATOM     17  C   UNL     1       2.440   4.525  20.798  0.00  0.00    +0.000 C 
ATOM     18  C   UNL     1       3.361   3.321  20.899  0.00  0.00    +0.000 C 
ATOM     19  C   UNL     1       3.386   2.602  19.562  0.00  0.00    +0.000 C 
ATOM     20  C   UNL     1       3.925   3.524  18.473  0.00  0.00    +0.000 C 
ATOM     21  C   UNL     1       3.199   4.892  18.448  0.00  0.00    +0.000 C 
ATOM     22  O   UNL     1       3.078   5.491  17.369  0.00  0.00    +0.000 OA
BRANCH  16  27
ATOM     23  C   UNL     1       0.650  10.752  19.915  0.00  0.00    +0.000 C 
ATOM     24  C   UNL     1       1.153   9.343  19.817  0.00  0.00    +0.000 A 
ATOM     25  C   UNL     1       1.790   8.884  18.659  0.00  0.00    +0.000 A 
ATOM     26  C   UNL     1       2.288   7.579  18.592  0.00  0.00    +0.000 A 
ATOM     27  C   UNL     1       2.196   6.723  19.696  0.00  0.00    +0.000 A 
ATOM     28  C   UNL     1       1.542   7.181  20.847  0.00  0.00    +0.000 A 
ATOM     29  C   UNL     1       1.015   8.474  20.903  0.00  0.00    +0.000 A 
ENDBRANCH  16  27
ENDBRANCH   1  20
TORSDOF 4
ENDMDL
MODEL 5
REMARK VINA RESULT:      -8.8      1.629      2.457
REMARK  Name = 
REMARK  5 active torsions:
REMARK  status: ('A' for Active; 'I' for Inactive)
REMARK    1  A    between atoms: C_1  and  C_2
REMARK    2  A    between atoms: C_5  and  N_6
REMARK    3  A    between atoms: C_10  and  N_11
REMARK    4  A    between atoms: N_11  and  C_12
REMARK    5  A    between atoms: C_14  and  C_15
REMARK                            x       y       z     vdW  Elec       q    Type
REMARK                         _______ _______ _______ _____ _____    ______ ____
ROOT
ATOM      1  N   UNL     1       4.387   7.026  17.682  0.00  0.00    +0.000 N 
ATOM      2  H   UNL     1       4.721   7.266  18.623  0.00  0.00    +0.000 HD
ENDROOT
BRANCH   1   3
ATOM      3  C   UNL     1       5.350   6.185  17.088  0.00  0.00    +0.000 A 
ATOM      4  C   UNL     1       5.322   5.786  15.810  0.00  0.00    +0.000 A 
ATOM      5  C   UNL     1       6.373   4.824  15.343  0.00  0.00    +0.000 A 
ATOM      6  N   UNL     1       7.357   4.402  16.093  0.00  0.00    +0.000 NA
ATOM      7  C   UNL     1       7.401   4.867  17.375  0.00  0.00    +0.000 A 
ATOM      8  N   UNL     1       8.276   4.608  18.321  0.00  0.00    +0.000 NA
ATOM      9  C   UNL     1       7.812   5.310  19.389  0.00  0.00    +0.000 A 
ATOM     10  N   UNL     1       6.688   6.001  19.195  0.00  0.00    +0.000 NA
ATOM     11  N   UNL     1       6.425   5.730  17.886  0.00  0.00    +0.000 N 
BRANCH   5  12
ATOM     12  C   UNL     1       6.233   4.316  13.904  0.00  0.00    +0.000 C 
ATOM     13  F   UNL     1       6.483   2.983  13.784  0.00  0.00    +0.000 F 
ATOM     14  F   UNL     1       4.980   4.508  13.411  0.00  0.00    +0.000 F 
ATOM     15  F   UNL     1       7.091   4.941  13.054  0.00  0.00    +0.000 F 
ENDBRANCH   5  12
ENDBRANCH   1   3
BRANCH   1  20
ATOM     16  N   UNL     1       1.854   7.608  19.775  0.00  0.00    +0.000 N 
ATOM     17  C   UNL     1       1.918   6.313  20.450  0.00  0.00    +0.000 C 
ATOM     18  C   UNL     1       2.982   5.387  19.886  0.00  0.00    +0.000 C 
ATOM     19  C   UNL     1       2.793   5.270  18.385  0.00  0.00    +0.000 C 
ATOM     20  C   UNL     1       2.950   6.635  17.722  0.00  0.00    +0.000 C 
ATOM     21  C   UNL     1       2.070   7.720  18.394  0.00  0.00    +0.000 C 
ATOM     22  O   UNL     1       1.633   8.653  17.704  0.00  0.00    +0.000 OA
BRANCH  16  27
ATOM     23  C   UNL     1      -0.836  11.818  22.620  0.00  0.00    +0.000 C 
ATOM     24  C   UNL     1      -0.176  10.724  21.836  0.00  0.00    +0.000 A 
ATOM     25  C   UNL     1       0.566  11.009  20.684  0.00  0.00    +0.000 A 
ATOM     26  C   UNL     1       1.207   9.984  19.981  0.00  0.00    +0.000 A 
ATOM     27  C   UNL     1       1.154   8.663  20.440  0.00  0.00    +0.000 A 
ATOM     28  C   UNL     1       0.396   8.380  21.583  0.00  0.00    +0.000 A 
ATOM     29  C   UNL     1      -0.272   9.398  22.268  0.00  0.00    +0.000 A 
ENDBRANCH  16  27
ENDBRANCH   1  20
TORSDOF 4
ENDMDL
MODEL 6
REMARK VINA RESULT:      -8.8      1.644      2.438
REMARK  Name = 
REMARK  5 active torsions:
REMARK  status: ('A' for Active; 'I' for Inactive)
REMARK    1  A    between atoms: C_1  and  C_2
REMARK    2  A    between atoms: C_5  and  N_6
REMARK    3  A    between atoms: C_10  and  N_11
REMARK    4  A    between atoms: N_11  and  C_12
REMARK    5  A    between atoms: C_14  and  C_15
REMARK                            x       y       z     vdW  Elec       q    Type
REMARK                         _______ _______ _______ _____ _____    ______ ____
ROOT
ATOM      1  N   UNL     1       4.469   7.046  17.680  0.00  0.00    +0.000 N 
ATOM      2  H   UNL     1       4.797   7.260  18.630  0.00  0.00    +0.000 HD
ENDROOT
BRANCH   1   3
ATOM      3  C   UNL     1       5.413   6.184  17.087  0.00  0.00    +0.000 A 
ATOM      4  C   UNL     1       5.374   5.781  15.809  0.00  0.00    +0.000 A 
ATOM      5  C   UNL     1       6.403   4.796  15.342  0.00  0.00    +0.000 A 
ATOM      6  N   UNL     1       7.380   4.356  16.091  0.00  0.00    +0.000 NA
ATOM      7  C   UNL     1       7.436   4.823  17.372  0.00  0.00    +0.000 A 
ATOM      8  N   UNL     1       8.307   4.548  18.317  0.00  0.00    +0.000 NA
ATOM      9  C   UNL     1       7.861   5.262  19.384  0.00  0.00    +0.000 A 
ATOM     10  N   UNL     1       6.752   5.976  19.190  0.00  0.00    +0.000 NA
ATOM     11  N   UNL     1       6.480   5.708  17.883  0.00  0.00    +0.000 N 
BRANCH   5  12
ATOM     12  C   UNL     1       6.248   4.288  13.905  0.00  0.00    +0.000 C 
ATOM     13  F   UNL     1       5.007   4.511  13.393  0.00  0.00    +0.000 F 
ATOM     14  F   UNL     1       7.119   4.889  13.051  0.00  0.00    +0.000 F 
ATOM     15  F   UNL     1       6.463   2.948  13.809  0.00  0.00    +0.000 F 
ENDBRANCH   5  12
ENDBRANCH   1   3
BRANCH   1  20
ATOM     16  N   UNL     1       1.948   7.583  19.800  0.00  0.00    +0.000 N 
ATOM     17  C   UNL     1       1.966   6.247  20.394  0.00  0.00    +0.000 C 
ATOM     18  C   UNL     1       3.000   5.322  19.776  0.00  0.00    +0.000 C 
ATOM     19  C   UNL     1       2.814   5.305  18.270  0.00  0.00    +0.000 C 
ATOM     20  C   UNL     1       3.019   6.703  17.693  0.00  0.00    +0.000 C 
ATOM     21  C   UNL     1       2.174   7.773  18.428  0.00  0.00    +0.000 C 
ATOM     22  O   UNL     1       1.772   8.761  17.797  0.00  0.00    +0.000 OA
BRANCH  16  27
ATOM     23  C   UNL     1      -0.916  11.686  22.632  0.00  0.00    +0.000 C 
ATOM     24  C   UNL     1      -0.118  10.640  21.913  0.00  0.00    +0.000 A 
ATOM     25  C   UNL     1       0.491   9.591  22.610  0.00  0.00    +0.000 A 
ATOM     26  C   UNL     1       1.203   8.601  21.925  0.00  0.00    +0.000 A 
ATOM     27  C   UNL     1       1.282   8.618  20.527  0.00  0.00    +0.000 A 
ATOM     28  C   UNL     1       0.686   9.679  19.834  0.00  0.00    +0.000 A 
ATOM     29  C   UNL     1       0.003  10.687  20.521  0.00  0.00    +0.000 A 
ENDBRANCH  16  27
ENDBRANCH   1  20
TORSDOF 4
ENDMDL
MODEL 7
REMARK VINA RESULT:      -8.7      3.887      6.167
REMARK  Name = 
REMARK  5 active torsions:
REMARK  status: ('A' for Active; 'I' for Inactive)
REMARK    1  A    between atoms: C_1  and  C_2
REMARK    2  A    between atoms: C_5  and  N_6
REMARK    3  A    between atoms: C_10  and  N_11
REMARK    4  A    between atoms: N_11  and  C_12
REMARK    5  A    between atoms: C_14  and  C_15
REMARK                            x       y       z     vdW  Elec       q    Type
REMARK                         _______ _______ _______ _____ _____    ______ ____
ROOT
ATOM      1  N   UNL     1       1.824   7.902  20.683  0.00  0.00    +0.000 N 
ATOM      2  H   UNL     1       2.045   7.892  21.686  0.00  0.00    +0.000 HD
ENDROOT
BRANCH   1   3
ATOM      3  C   UNL     1       2.164   6.640  20.157  0.00  0.00    +0.000 A 
ATOM      4  C   UNL     1       1.818   5.470  20.711  0.00  0.00    +0.000 A 
ATOM      5  C   UNL     1       2.325   4.207  20.081  0.00  0.00    +0.000 A 
ATOM      6  N   UNL     1       3.031   4.177  18.981  0.00  0.00    +0.000 NA
ATOM      7  C   UNL     1       3.323   5.376  18.401  0.00  0.00    +0.000 A 
ATOM      8  N   UNL     1       4.003   5.622  17.303  0.00  0.00    +0.000 NA
ATOM      9  C   UNL     1       4.007   6.979  17.223  0.00  0.00    +0.000 A 
ATOM     10  N   UNL     1       3.379   7.627  18.205  0.00  0.00    +0.000 NA
ATOM     11  N   UNL     1       2.920   6.593  18.963  0.00  0.00    +0.000 N 
BRANCH   5  12
ATOM     12  C   UNL     1       1.990   2.905  20.814  0.00  0.00    +0.000 C 
ATOM     13  F   UNL     1       0.847   2.988  21.549  0.00  0.00    +0.000 F 
ATOM     14  F   UNL     1       1.809   1.864  19.958  0.00  0.00    +0.000 F 
ATOM     15  F   UNL     1       2.972   2.537  21.680  0.00  0.00    +0.000 F 
ENDBRANCH   5  12
ENDBRANCH   1   3
BRANCH   1  20
ATOM     16  N   UNL     1       0.581  10.999  20.681  0.00  0.00    +0.000 N 
ATOM     17  C   UNL     1      -0.007  10.925  22.017  0.00  0.00    +0.000 C 
ATOM     18  C   UNL     1       0.171   9.571  22.683  0.00  0.00    +0.000 C 
ATOM     19  C   UNL     1      -0.331   8.487  21.746  0.00  0.00    +0.000 C 
ATOM     20  C   UNL     1       0.475   8.490  20.451  0.00  0.00    +0.000 C 
ATOM     21  C   UNL     1       0.556   9.899  19.811  0.00  0.00    +0.000 C 
ATOM     22  O   UNL     1       0.635   9.997  18.578  0.00  0.00    +0.000 OA
BRANCH  16  27
ATOM     23  C   UNL     1       1.289  16.313  18.603  0.00  0.00    +0.000 C 
ATOM     24  C   UNL     1       1.126  14.906  19.093  0.00  0.00    +0.000 A 
ATOM     25  C   UNL     1       2.231  14.152  19.502  0.00  0.00    +0.000 A 
ATOM     26  C   UNL     1       2.064  12.853  19.992  0.00  0.00    +0.000 A 
ATOM     27  C   UNL     1       0.784  12.300  20.123  0.00  0.00    +0.000 A 
ATOM     28  C   UNL     1      -0.318  13.052  19.697  0.00  0.00    +0.000 A 
ATOM     29  C   UNL     1      -0.148  14.337  19.176  0.00  0.00    +0.000 A 
ENDBRANCH  16  27
ENDBRANCH   1  20
TORSDOF 4
ENDMDL
MODEL 8
REMARK VINA RESULT:      -8.6      3.895      6.159
REMARK  Name = 
REMARK  5 active torsions:
REMARK  status: ('A' for Active; 'I' for Inactive)
REMARK    1  A    between atoms: C_1  and  C_2
REMARK    2  A    between atoms: C_5  and  N_6
REMARK    3  A    between atoms: C_10  and  N_11
REMARK    4  A    between atoms: N_11  and  C_12
REMARK    5  A    between atoms: C_14  and  C_15
REMARK                            x       y       z     vdW  Elec       q    Type
REMARK                         _______ _______ _______ _____ _____    ______ ____
ROOT
ATOM      1  N   UNL     1       1.785   7.887  20.746  0.00  0.00    +0.000 N 
ATOM      2  H   UNL     1       1.998   7.868  21.751  0.00  0.00    +0.000 HD
ENDROOT
BRANCH   1   3
ATOM      3  C   UNL     1       2.133   6.630  20.212  0.00  0.00    +0.000 A 
ATOM      4  C   UNL     1       1.801   5.454  20.763  0.00  0.00    +0.000 A 
ATOM      5  C   UNL     1       2.314   4.200  20.123  0.00  0.00    +0.000 A 
ATOM      6  N   UNL     1       3.012   4.181  19.018  0.00  0.00    +0.000 NA
ATOM      7  C   UNL     1       3.289   5.386  18.441  0.00  0.00    +0.000 A 
ATOM      8  N   UNL     1       3.959   5.642  17.339  0.00  0.00    +0.000 NA
ATOM      9  C   UNL     1       3.950   7.000  17.266  0.00  0.00    +0.000 A 
ATOM     10  N   UNL     1       3.323   7.637  18.255  0.00  0.00    +0.000 NA
ATOM     11  N   UNL     1       2.880   6.596  19.012  0.00  0.00    +0.000 N 
BRANCH   5  12
ATOM     12  C   UNL     1       1.996   2.890  20.852  0.00  0.00    +0.000 C 
ATOM     13  F   UNL     1       3.033   2.439  21.610  0.00  0.00    +0.000 F 
ATOM     14  F   UNL     1       0.940   3.017  21.699  0.00  0.00    +0.000 F 
ATOM     15  F   UNL     1       1.691   1.884  19.989  0.00  0.00    +0.000 F 
ENDBRANCH   5  12
ENDBRANCH   1   3
BRANCH   1  20
ATOM     16  N   UNL     1       0.525  10.976  20.813  0.00  0.00    +0.000 N 
ATOM     17  C   UNL     1      -0.085  10.860  22.136  0.00  0.00    +0.000 C 
ATOM     18  C   UNL     1       0.090   9.488  22.766  0.00  0.00    +0.000 C 
ATOM     19  C   UNL     1      -0.390   8.430  21.790  0.00  0.00    +0.000 C 
ATOM     20  C   UNL     1       0.437   8.474  20.509  0.00  0.00    +0.000 C 
ATOM     21  C   UNL     1       0.520   9.901  19.911  0.00  0.00    +0.000 C 
ATOM     22  O   UNL     1       0.619  10.035  18.683  0.00  0.00    +0.000 OA
BRANCH  16  27
ATOM     23  C   UNL     1       1.475  16.190  18.584  0.00  0.00    +0.000 C 
ATOM     24  C   UNL     1       1.200  14.857  19.211  0.00  0.00    +0.000 A 
ATOM     25  C   UNL     1      -0.082  14.298  19.185  0.00  0.00    +0.000 A 
ATOM     26  C   UNL     1      -0.320  13.037  19.741  0.00  0.00    +0.000 A 
ATOM     27  C   UNL     1       0.729  12.294  20.296  0.00  0.00    +0.000 A 
ATOM     28  C   UNL     1       2.008  12.864  20.336  0.00  0.00    +0.000 A 
ATOM     29  C   UNL     1       2.239  14.138  19.810  0.00  0.00    +0.000 A 
ENDBRANCH  16  27
ENDBRANCH   1  20
TORSDOF 4
ENDMDL
MODEL 9
REMARK VINA RESULT:      -8.5      2.325      3.142
REMARK  Name = 
REMARK  5 active torsions:
REMARK  status: ('A' for Active; 'I' for Inactive)
REMARK    1  A    between atoms: C_1  and  C_2
REMARK    2  A    between atoms: C_5  and  N_6
REMARK    3  A    between atoms: C_10  and  N_11
REMARK    4  A    between atoms: N_11  and  C_12
REMARK    5  A    between atoms: C_14  and  C_15
REMARK                            x       y       z     vdW  Elec       q    Type
REMARK                         _______ _______ _______ _____ _____    ______ ____
ROOT
ATOM      1  N   UNL     1       4.935   4.331  18.896  0.00  0.00    +0.000 N 
ATOM      2  H   UNL     1       5.304   3.378  19.002  0.00  0.00    +0.000 HD
ENDROOT
BRANCH   1   3
ATOM      3  C   UNL     1       5.822   5.041  18.063  0.00  0.00    +0.000 A 
ATOM      4  C   UNL     1       6.500   6.136  18.435  0.00  0.00    +0.000 A 
ATOM      5  C   UNL     1       7.344   6.832  17.410  0.00  0.00    +0.000 A 
ATOM      6  N   UNL     1       7.513   6.396  16.190  0.00  0.00    +0.000 NA
ATOM      7  C   UNL     1       6.860   5.248  15.848  0.00  0.00    +0.000 A 
ATOM      8  N   UNL     1       6.864   4.601  14.703  0.00  0.00    +0.000 NA
ATOM      9  C   UNL     1       6.023   3.556  14.920  0.00  0.00    +0.000 A 
ATOM     10  N   UNL     1       5.470   3.490  16.131  0.00  0.00    +0.000 NA
ATOM     11  N   UNL     1       6.020   4.575  16.743  0.00  0.00    +0.000 N 
BRANCH   5  12
ATOM     12  C   UNL     1       8.011   8.136  17.859  0.00  0.00    +0.000 C 
ATOM     13  F   UNL     1       7.115   9.121  18.142  0.00  0.00    +0.000 F 
ATOM     14  F   UNL     1       8.757   7.973  18.984  0.00  0.00    +0.000 F 
ATOM     15  F   UNL     1       8.841   8.641  16.906  0.00  0.00    +0.000 F 
ENDBRANCH   5  12
ENDBRANCH   1   3
BRANCH   1  20
ATOM     16  N   UNL     1       2.340   6.274  19.687  0.00  0.00    +0.000 N 
ATOM     17  C   UNL     1       1.845   5.427  20.770  0.00  0.00    +0.000 C 
ATOM     18  C   UNL     1       2.652   4.154  20.963  0.00  0.00    +0.000 C 
ATOM     19  C   UNL     1       2.755   3.427  19.634  0.00  0.00    +0.000 C 
ATOM     20  C   UNL     1       3.474   4.296  18.608  0.00  0.00    +0.000 C 
ATOM     21  C   UNL     1       2.866   5.718  18.511  0.00  0.00    +0.000 C 
ATOM     22  O   UNL     1       2.904   6.318  17.427  0.00  0.00    +0.000 OA
BRANCH  16  27
ATOM     23  C   UNL     1       0.382  11.673  19.410  0.00  0.00    +0.000 C 
ATOM     24  C   UNL     1       0.939  10.285  19.515  0.00  0.00    +0.000 A 
ATOM     25  C   UNL     1       0.847   9.558  20.706  0.00  0.00    +0.000 A 
ATOM     26  C   UNL     1       1.337   8.250  20.781  0.00  0.00    +0.000 A 
ATOM     27  C   UNL     1       1.890   7.631  19.654  0.00  0.00    +0.000 A 
ATOM     28  C   UNL     1       1.997   8.368  18.468  0.00  0.00    +0.000 A 
ATOM     29  C   UNL     1       1.537   9.686  18.402  0.00  0.00    +0.000 A 
ENDBRANCH  16  27
ENDBRANCH   1  20
TORSDOF 4
ENDMDL
