MODEL 1
REMARK VINA RESULT:      -9.0      0.000      0.000
REMARK  Name = 
REMARK  5 active torsions:
REMARK  status: ('A' for Active; 'I' for Inactive)
REMARK    1  A    between atoms: C_1  and  N_2
REMARK    2  A    between atoms: N_2  and  C_3
REMARK    3  A    between atoms: C_4  and  C_6
REMARK    4  A    between atoms: C_9  and  C_11
REMARK    5  A    between atoms: C_14  and  C_15
REMARK                            x       y       z     vdW  Elec       q    Type
REMARK                         _______ _______ _______ _____ _____    ______ ____
ROOT
ATOM      1  C   UNL     1       5.056   4.234  17.794  0.00  0.00    +0.000 C 
ATOM      2  C   UNL     1       4.010   5.150  17.159  0.00  0.00    +0.000 C 
ATOM      3  N   UNL     1       3.065   5.638  18.169  0.00  0.00    +0.000 N 
ATOM      4  C   UNL     1       2.817   7.028  18.234  0.00  0.00    +0.000 C 
ATOM      5  O   UNL     1       3.193   7.753  17.308  0.00  0.00    +0.000 OA
ATOM      6  C   UNL     1       2.539   4.591  18.987  0.00  0.00    +0.000 A 
ATOM      7  C   UNL     1       1.297   4.670  19.629  0.00  0.00    +0.000 A 
ATOM      8  C   UNL     1       0.889   3.687  20.535  0.00  0.00    +0.000 A 
ATOM      9  C   UNL     1       1.665   2.553  20.724  0.00  0.00    +0.000 A 
ATOM     10  C   UNL     1       2.835   2.392  19.984  0.00  0.00    +0.000 A 
ATOM     11  C   UNL     1       3.275   3.407  19.128  0.00  0.00    +0.000 A 
ATOM     12  O   UNL     1       4.449   3.134  18.471  0.00  0.00    +0.000 OA
ENDROOT
BRANCH   1  16
ATOM     13  C   UNL     1       7.979   6.528  18.784  0.00  0.00    +0.000 C 
ATOM     14  N   UNL     1       6.984   5.869  17.962  0.00  0.00    +0.000 N 
ATOM     15  C   UNL     1       7.191   5.846  16.524  0.00  0.00    +0.000 C 
ATOM     16  C   UNL     1       6.069   5.050  18.628  0.00  0.00    +0.000 C 
ATOM     17  O   UNL     1       6.036   5.040  19.864  0.00  0.00    +0.000 OA
ENDBRANCH   1  16
BRANCH   4  18
ATOM     18  C   UNL     1       2.098   7.615  19.357  0.00  0.00    +0.000 A 
ATOM     19  C   UNL     1       2.193   7.311  20.700  0.00  0.00    +0.000 A 
ATOM     20  C   UNL     1       1.434   8.278  21.399  0.00  0.00    +0.000 A 
ATOM     21  C   UNL     1       0.874   9.116  20.453  0.00  0.00    +0.000 A 
ATOM     22  O   UNL     1       1.181   8.627  19.206  0.00  0.00    +0.000 OA
BRANCH  21  23
ATOM     23  C   UNL     1       0.092  10.361  20.483  0.00  0.00    +0.000 A 
ATOM     24  C   UNL     1       0.067  11.189  19.342  0.00  0.00    +0.000 A 
ATOM     25  C   UNL     1      -0.696  12.361  19.298  0.00  0.00    +0.000 A 
ATOM     26  C   UNL     1      -1.457  12.740  20.398  0.00  0.00    +0.000 A 
ATOM     27  C   UNL     1      -1.413  11.969  21.556  0.00  0.00    +0.000 A 
ATOM     28  C   UNL     1      -0.634  10.801  21.609  0.00  0.00    +0.000 A 
ATOM     29 CL   UNL     1      -0.584  10.015  23.152  0.00  0.00    +0.000 Cl
ENDBRANCH  21  23
ENDBRANCH   4  18
TORSDOF 3
ENDMDL
MODEL 2
REMARK VINA RESULT:      -8.8      1.209      1.359
REMARK  Name = 
REMARK  5 active torsions:
REMARK  status: ('A' for Active; 'I' for Inactive)
REMARK    1  A    between atoms: C_1  and  N_2
REMARK    2  A    between atoms: N_2  and  C_3
REMARK    3  A    between atoms: C_4  and  C_6
REMARK    4  A    between atoms: C_9  and  C_11
REMARK    5  A    between atoms: C_14  and  C_15
REMARK                            x       y       z     vdW  Elec       q    Type
REMARK                         _______ _______ _______ _____ _____    ______ ____
ROOT
ATOM      1  C   UNL     1       5.241   4.182  17.937  0.00  0.00    +0.000 C 
ATOM      2  C   UNL     1       4.205   5.001  17.169  0.00  0.00    +0.000 C 
ATOM      3  N   UNL     1       3.223   5.588  18.085  0.00  0.00    +0.000 N 
ATOM      4  C   UNL     1       2.955   6.973  17.979  0.00  0.00    +0.000 C 
ATOM      5  O   UNL     1       3.352   7.590  16.986  0.00  0.00    +0.000 OA
ATOM      6  C   UNL     1       2.684   4.636  19.005  0.00  0.00    +0.000 A 
ATOM      7  C   UNL     1       1.422   4.770  19.596  0.00  0.00    +0.000 A 
ATOM      8  C   UNL     1       0.998   3.894  20.599  0.00  0.00    +0.000 A 
ATOM      9  C   UNL     1       1.781   2.802  20.943  0.00  0.00    +0.000 A 
ATOM     10  C   UNL     1       2.976   2.574  20.262  0.00  0.00    +0.000 A 
ATOM     11  C   UNL     1       3.429   3.489  19.306  0.00  0.00    +0.000 A 
ATOM     12  O   UNL     1       4.627   3.159  18.721  0.00  0.00    +0.000 OA
ENDROOT
BRANCH   1  16
ATOM     13  C   UNL     1       8.018   6.723  18.725  0.00  0.00    +0.000 C 
ATOM     14  N   UNL     1       7.048   5.957  17.967  0.00  0.00    +0.000 N 
ATOM     15  C   UNL     1       7.210   5.884  16.525  0.00  0.00    +0.000 C 
ATOM     16  C   UNL     1       6.218   5.106  18.700  0.00  0.00    +0.000 C 
ATOM     17  O   UNL     1       6.225   5.150  19.936  0.00  0.00    +0.000 OA
ENDBRANCH   1  16
BRANCH   4  18
ATOM     18  C   UNL     1       2.194   7.676  19.004  0.00  0.00    +0.000 A 
ATOM     19  C   UNL     1       2.078   7.385  20.347  0.00  0.00    +0.000 A 
ATOM     20  C   UNL     1       1.385   8.462  20.947  0.00  0.00    +0.000 A 
ATOM     21  C   UNL     1       1.072   9.355  19.939  0.00  0.00    +0.000 A 
ATOM     22  O   UNL     1       1.458   8.805  18.739  0.00  0.00    +0.000 OA
BRANCH  21  23
ATOM     23  C   UNL     1       0.480  10.699  19.870  0.00  0.00    +0.000 A 
ATOM     24  C   UNL     1       0.925  11.697  20.762  0.00  0.00    +0.000 A 
ATOM     25  C   UNL     1       0.429  13.004  20.711  0.00  0.00    +0.000 A 
ATOM     26  C   UNL     1      -0.530  13.352  19.766  0.00  0.00    +0.000 A 
ATOM     27  C   UNL     1      -1.024  12.375  18.907  0.00  0.00    +0.000 A 
ATOM     28  C   UNL     1      -0.541  11.058  18.966  0.00  0.00    +0.000 A 
ATOM     29 CL   UNL     1      -1.337   9.930  17.919  0.00  0.00    +0.000 Cl
ENDBRANCH  21  23
ENDBRANCH   4  18
TORSDOF 3
ENDMDL
MODEL 3
REMARK VINA RESULT:      -8.8      1.305      1.534
REMARK  Name = 
REMARK  5 active torsions:
REMARK  status: ('A' for Active; 'I' for Inactive)
REMARK    1  A    between atoms: C_1  and  N_2
REMARK    2  A    between atoms: N_2  and  C_3
REMARK    3  A    between atoms: C_4  and  C_6
REMARK    4  A    between atoms: C_9  and  C_11
REMARK    5  A    between atoms: C_14  and  C_15
REMARK                            x       y       z     vdW  Elec       q    Type
REMARK                         _______ _______ _______ _____ _____    ______ ____
ROOT
ATOM      1  C   UNL     1       5.217   4.083  17.920  0.00  0.00    +0.000 C 
ATOM      2  C   UNL     1       4.220   4.915  17.113  0.00  0.00    +0.000 C 
ATOM      3  N   UNL     1       3.232   5.542  17.996  0.00  0.00    +0.000 N 
ATOM      4  C   UNL     1       3.002   6.931  17.861  0.00  0.00    +0.000 C 
ATOM      5  O   UNL     1       3.438   7.521  16.869  0.00  0.00    +0.000 OA
ATOM      6  C   UNL     1       2.647   4.619  18.917  0.00  0.00    +0.000 A 
ATOM      7  C   UNL     1       1.375   4.795  19.475  0.00  0.00    +0.000 A 
ATOM      8  C   UNL     1       0.904   3.947  20.481  0.00  0.00    +0.000 A 
ATOM      9  C   UNL     1       1.651   2.841  20.862  0.00  0.00    +0.000 A 
ATOM     10  C   UNL     1       2.856   2.572  20.214  0.00  0.00    +0.000 A 
ATOM     11  C   UNL     1       3.355   3.459  19.255  0.00  0.00    +0.000 A 
ATOM     12  O   UNL     1       4.557   3.089  18.704  0.00  0.00    +0.000 OA
ENDROOT
BRANCH   1  16
ATOM     13  C   UNL     1       8.003   6.606  18.731  0.00  0.00    +0.000 C 
ATOM     14  N   UNL     1       7.029   5.852  17.967  0.00  0.00    +0.000 N 
ATOM     15  C   UNL     1       7.188   5.796  16.523  0.00  0.00    +0.000 C 
ATOM     16  C   UNL     1       6.198   4.995  18.691  0.00  0.00    +0.000 C 
ATOM     17  O   UNL     1       6.208   5.024  19.927  0.00  0.00    +0.000 OA
ENDBRANCH   1  16
BRANCH   4  18
ATOM     18  C   UNL     1       2.235   7.670  18.856  0.00  0.00    +0.000 A 
ATOM     19  C   UNL     1       2.200   7.498  20.224  0.00  0.00    +0.000 A 
ATOM     20  C   UNL     1       1.454   8.574  20.758  0.00  0.00    +0.000 A 
ATOM     21  C   UNL     1       1.030   9.343  19.691  0.00  0.00    +0.000 A 
ATOM     22  O   UNL     1       1.404   8.713  18.528  0.00  0.00    +0.000 OA
BRANCH  21  23
ATOM     23  C   UNL     1       0.333  10.629  19.532  0.00  0.00    +0.000 A 
ATOM     24  C   UNL     1      -0.987  10.763  20.008  0.00  0.00    +0.000 A 
ATOM     25  C   UNL     1      -1.681  11.975  19.925  0.00  0.00    +0.000 A 
ATOM     26  C   UNL     1      -1.073  13.091  19.360  0.00  0.00    +0.000 A 
ATOM     27  C   UNL     1       0.211  12.974  18.837  0.00  0.00    +0.000 A 
ATOM     28  C   UNL     1       0.904  11.754  18.903  0.00  0.00    +0.000 A 
ATOM     29 CL   UNL     1       2.440  11.732  18.103  0.00  0.00    +0.000 Cl
ENDBRANCH  21  23
ENDBRANCH   4  18
TORSDOF 3
ENDMDL
MODEL 4
REMARK VINA RESULT:      -8.7      1.491      1.815
REMARK  Name = 
REMARK  5 active torsions:
REMARK  status: ('A' for Active; 'I' for Inactive)
REMARK    1  A    between atoms: C_1  and  N_2
REMARK    2  A    between atoms: N_2  and  C_3
REMARK    3  A    between atoms: C_4  and  C_6
REMARK    4  A    between atoms: C_9  and  C_11
REMARK    5  A    between atoms: C_14  and  C_15
REMARK                            x       y       z     vdW  Elec       q    Type
REMARK                         _______ _______ _______ _____ _____    ______ ____
ROOT
ATOM      1  C   UNL     1       5.544   4.634  16.858  0.00  0.00    +0.000 C 
ATOM      2  C   UNL     1       4.600   5.788  16.520  0.00  0.00    +0.000 C 
ATOM      3  N   UNL     1       3.507   5.866  17.494  0.00  0.00    +0.000 N 
ATOM      4  C   UNL     1       3.239   7.118  18.097  0.00  0.00    +0.000 C 
ATOM      5  O   UNL     1       3.746   8.137  17.621  0.00  0.00    +0.000 OA
ATOM      6  C   UNL     1       2.871   4.606  17.718  0.00  0.00    +0.000 A 
ATOM      7  C   UNL     1       1.545   4.482  18.150  0.00  0.00    +0.000 A 
ATOM      8  C   UNL     1       1.012   3.238  18.496  0.00  0.00    +0.000 A 
ATOM      9  C   UNL     1       1.760   2.085  18.304  0.00  0.00    +0.000 A 
ATOM     10  C   UNL     1       3.032   2.179  17.740  0.00  0.00    +0.000 A 
ATOM     11  C   UNL     1       3.588   3.431  17.457  0.00  0.00    +0.000 A 
ATOM     12  O   UNL     1       4.851   3.388  16.920  0.00  0.00    +0.000 OA
ENDROOT
BRANCH   1  16
ATOM     13  C   UNL     1       8.058   6.355  19.206  0.00  0.00    +0.000 C 
ATOM     14  N   UNL     1       7.184   6.138  18.069  0.00  0.00    +0.000 N 
ATOM     15  C   UNL     1       7.397   6.944  16.879  0.00  0.00    +0.000 C 
ATOM     16  C   UNL     1       6.411   4.975  18.092  0.00  0.00    +0.000 C 
ATOM     17  O   UNL     1       6.375   4.277  19.112  0.00  0.00    +0.000 OA
ENDBRANCH   1  16
BRANCH   4  18
ATOM     18  C   UNL     1       2.351   7.227  19.247  0.00  0.00    +0.000 A 
ATOM     19  C   UNL     1       2.230   6.382  20.331  0.00  0.00    +0.000 A 
ATOM     20  C   UNL     1       1.372   7.016  21.258  0.00  0.00    +0.000 A 
ATOM     21  C   UNL     1       0.971   8.211  20.689  0.00  0.00    +0.000 A 
ATOM     22  O   UNL     1       1.472   8.270  19.411  0.00  0.00    +0.000 OA
BRANCH  21  23
ATOM     23  C   UNL     1       0.196   9.379  21.133  0.00  0.00    +0.000 A 
ATOM     24  C   UNL     1      -0.004   9.593  22.512  0.00  0.00    +0.000 A 
ATOM     25  C   UNL     1      -0.694  10.712  22.992  0.00  0.00    +0.000 A 
ATOM     26  C   UNL     1      -1.205  11.651  22.103  0.00  0.00    +0.000 A 
ATOM     27  C   UNL     1      -1.066  11.441  20.735  0.00  0.00    +0.000 A 
ATOM     28  C   UNL     1      -0.390  10.310  20.249  0.00  0.00    +0.000 A 
ATOM     29 CL   UNL     1      -0.403  10.122  18.527  0.00  0.00    +0.000 Cl
ENDBRANCH  21  23
ENDBRANCH   4  18
TORSDOF 3
ENDMDL
MODEL 5
REMARK VINA RESULT:      -8.5      3.521      8.197
REMARK  Name = 
REMARK  5 active torsions:
REMARK  status: ('A' for Active; 'I' for Inactive)
REMARK    1  A    between atoms: C_1  and  N_2
REMARK    2  A    between atoms: N_2  and  C_3
REMARK    3  A    between atoms: C_4  and  C_6
REMARK    4  A    between atoms: C_9  and  C_11
REMARK    5  A    between atoms: C_14  and  C_15
REMARK                            x       y       z     vdW  Elec       q    Type
REMARK                         _______ _______ _______ _____ _____    ______ ____
ROOT
ATOM      1  C   UNL     1       0.113  13.264  20.858  0.00  0.00    +0.000 C 
ATOM      2  C   UNL     1      -0.059  11.973  21.658  0.00  0.00    +0.000 C 
ATOM      3  N   UNL     1       0.107  10.801  20.795  0.00  0.00    +0.000 N 
ATOM      4  C   UNL     1       0.998   9.784  21.214  0.00  0.00    +0.000 C 
ATOM      5  O   UNL     1       1.412   9.786  22.376  0.00  0.00    +0.000 OA
ATOM      6  C   UNL     1      -0.667  10.880  19.597  0.00  0.00    +0.000 A 
ATOM      7  C   UNL     1      -1.103   9.753  18.889  0.00  0.00    +0.000 A 
ATOM      8  C   UNL     1      -1.730   9.879  17.647  0.00  0.00    +0.000 A 
ATOM      9  C   UNL     1      -2.035  11.136  17.147  0.00  0.00    +0.000 A 
ATOM     10  C   UNL     1      -1.735  12.266  17.907  0.00  0.00    +0.000 A 
ATOM     11  C   UNL     1      -1.048  12.141  19.119  0.00  0.00    +0.000 A 
ATOM     12  O   UNL     1      -0.798  13.328  19.761  0.00  0.00    +0.000 OA
ENDROOT
BRANCH   1  16
ATOM     13  C   UNL     1       3.665  14.734  20.741  0.00  0.00    +0.000 C 
ATOM     14  N   UNL     1       2.309  14.485  21.188  0.00  0.00    +0.000 N 
ATOM     15  C   UNL     1       1.689  15.460  22.070  0.00  0.00    +0.000 C 
ATOM     16  C   UNL     1       1.599  13.497  20.502  0.00  0.00    +0.000 C 
ATOM     17  O   UNL     1       2.179  12.782  19.676  0.00  0.00    +0.000 OA
ENDBRANCH   1  16
BRANCH   4  18
ATOM     18  C   UNL     1       1.410   8.721  20.307  0.00  0.00    +0.000 A 
ATOM     19  C   UNL     1       1.950   8.822  19.042  0.00  0.00    +0.000 A 
ATOM     20  C   UNL     1       2.348   7.522  18.655  0.00  0.00    +0.000 A 
ATOM     21  C   UNL     1       2.002   6.668  19.685  0.00  0.00    +0.000 A 
ATOM     22  O   UNL     1       1.315   7.389  20.632  0.00  0.00    +0.000 OA
BRANCH  21  23
ATOM     23  C   UNL     1       2.218   5.246  19.990  0.00  0.00    +0.000 A 
ATOM     24  C   UNL     1       1.166   4.491  20.549  0.00  0.00    +0.000 A 
ATOM     25  C   UNL     1       1.302   3.124  20.817  0.00  0.00    +0.000 A 
ATOM     26  C   UNL     1       2.496   2.471  20.533  0.00  0.00    +0.000 A 
ATOM     27  C   UNL     1       3.567   3.201  20.026  0.00  0.00    +0.000 A 
ATOM     28  C   UNL     1       3.441   4.577  19.773  0.00  0.00    +0.000 A 
ATOM     29 CL   UNL     1       4.892   5.371  19.261  0.00  0.00    +0.000 Cl
ENDBRANCH  21  23
ENDBRANCH   4  18
TORSDOF 3
ENDMDL
MODEL 6
REMARK VINA RESULT:      -8.5      3.488      8.440
REMARK  Name = 
REMARK  5 active torsions:
REMARK  status: ('A' for Active; 'I' for Inactive)
REMARK    1  A    between atoms: C_1  and  N_2
REMARK    2  A    between atoms: N_2  and  C_3
REMARK    3  A    between atoms: C_4  and  C_6
REMARK    4  A    between atoms: C_9  and  C_11
REMARK    5  A    between atoms: C_14  and  C_15
REMARK                            x       y       z     vdW  Elec       q    Type
REMARK                         _______ _______ _______ _____ _____    ______ ____
ROOT
ATOM      1  C   UNL     1      -0.842  12.469  21.363  0.00  0.00    +0.000 C 
ATOM      2  C   UNL     1      -0.646  10.991  21.695  0.00  0.00    +0.000 C 
ATOM      3  N   UNL     1      -0.230  10.242  20.506  0.00  0.00    +0.000 N 
ATOM      4  C   UNL     1       0.907   9.405  20.608  0.00  0.00    +0.000 C 
ATOM      5  O   UNL     1       1.360   9.136  21.723  0.00  0.00    +0.000 OA
ATOM      6  C   UNL     1      -1.053  10.504  19.368  0.00  0.00    +0.000 A 
ATOM      7  C   UNL     1      -1.224   9.594  18.317  0.00  0.00    +0.000 A 
ATOM      8  C   UNL     1      -1.919   9.951  17.159  0.00  0.00    +0.000 A 
ATOM      9  C   UNL     1      -2.554  11.182  17.082  0.00  0.00    +0.000 A 
ATOM     10  C   UNL     1      -2.513  12.043  18.178  0.00  0.00    +0.000 A 
ATOM     11  C   UNL     1      -1.761  11.712  19.309  0.00  0.00    +0.000 A 
ATOM     12  O   UNL     1      -1.790  12.650  20.311  0.00  0.00    +0.000 OA
ENDROOT
BRANCH   1  16
ATOM     13  C   UNL     1       2.051  14.991  21.612  0.00  0.00    +0.000 C 
ATOM     14  N   UNL     1       0.809  14.310  21.918  0.00  0.00    +0.000 N 
ATOM     15  C   UNL     1      -0.169  15.005  22.737  0.00  0.00    +0.000 C 
ATOM     16  C   UNL     1       0.519  13.173  21.159  0.00  0.00    +0.000 C 
ATOM     17  O   UNL     1       1.372  12.709  20.393  0.00  0.00    +0.000 OA
ENDBRANCH   1  16
BRANCH   4  18
ATOM     18  C   UNL     1       1.531   8.832  19.422  0.00  0.00    +0.000 A 
ATOM     19  C   UNL     1       2.118   9.479  18.354  0.00  0.00    +0.000 A 
ATOM     20  C   UNL     1       2.737   8.487  17.558  0.00  0.00    +0.000 A 
ATOM     21  C   UNL     1       2.473   7.267  18.151  0.00  0.00    +0.000 A 
ATOM     22  O   UNL     1       1.630   7.477  19.216  0.00  0.00    +0.000 OA
BRANCH  21  23
ATOM     23  C   UNL     1       2.894   5.876  17.928  0.00  0.00    +0.000 A 
ATOM     24  C   UNL     1       1.958   4.835  18.097  0.00  0.00    +0.000 A 
ATOM     25  C   UNL     1       2.291   3.498  17.853  0.00  0.00    +0.000 A 
ATOM     26  C   UNL     1       3.574   3.163  17.433  0.00  0.00    +0.000 A 
ATOM     27  C   UNL     1       4.532   4.164  17.306  0.00  0.00    +0.000 A 
ATOM     28  C   UNL     1       4.206   5.505  17.567  0.00  0.00    +0.000 A 
ATOM     29 CL   UNL     1       5.531   6.618  17.484  0.00  0.00    +0.000 Cl
ENDBRANCH  21  23
ENDBRANCH   4  18
TORSDOF 3
ENDMDL
MODEL 7
REMARK VINA RESULT:      -8.1      3.414      8.355
REMARK  Name = 
REMARK  5 active torsions:
REMARK  status: ('A' for Active; 'I' for Inactive)
REMARK    1  A    between atoms: C_1  and  N_2
REMARK    2  A    between atoms: N_2  and  C_3
REMARK    3  A    between atoms: C_4  and  C_6
REMARK    4  A    between atoms: C_9  and  C_11
REMARK    5  A    between atoms: C_14  and  C_15
REMARK                            x       y       z     vdW  Elec       q    Type
REMARK                         _______ _______ _______ _____ _____    ______ ____
ROOT
ATOM      1  C   UNL     1      -0.563  12.694  21.198  0.00  0.00    +0.000 C 
ATOM      2  C   UNL     1      -0.495  11.241  21.667  0.00  0.00    +0.000 C 
ATOM      3  N   UNL     1      -0.113  10.356  20.562  0.00  0.00    +0.000 N 
ATOM      4  C   UNL     1       0.949   9.446  20.774  0.00  0.00    +0.000 C 
ATOM      5  O   UNL     1       1.353   9.245  21.922  0.00  0.00    +0.000 OA
ATOM      6  C   UNL     1      -0.885  10.578  19.381  0.00  0.00    +0.000 A 
ATOM      7  C   UNL     1      -1.104   9.592  18.411  0.00  0.00    +0.000 A 
ATOM      8  C   UNL     1      -1.741   9.895  17.205  0.00  0.00    +0.000 A 
ATOM      9  C   UNL     1      -2.272  11.160  16.998  0.00  0.00    +0.000 A 
ATOM     10  C   UNL     1      -2.187  12.111  18.014  0.00  0.00    +0.000 A 
ATOM     11  C   UNL     1      -1.492  11.827  19.193  0.00  0.00    +0.000 A 
ATOM     12  O   UNL     1      -1.467  12.852  20.106  0.00  0.00    +0.000 OA
ENDROOT
BRANCH   1  16
ATOM     13  C   UNL     1       2.545  14.953  21.375  0.00  0.00    +0.000 C 
ATOM     14  N   UNL     1       1.247  14.394  21.700  0.00  0.00    +0.000 N 
ATOM     15  C   UNL     1       0.338  15.198  22.499  0.00  0.00    +0.000 C 
ATOM     16  C   UNL     1       0.856  13.267  20.975  0.00  0.00    +0.000 C 
ATOM     17  O   UNL     1       1.661  12.707  20.222  0.00  0.00    +0.000 OA
ENDBRANCH   1  16
BRANCH   4  18
ATOM     18  C   UNL     1       1.553   8.719  19.664  0.00  0.00    +0.000 A 
ATOM     19  C   UNL     1       1.882   9.178  18.405  0.00  0.00    +0.000 A 
ATOM     20  C   UNL     1       2.606   8.148  17.763  0.00  0.00    +0.000 A 
ATOM     21  C   UNL     1       2.661   7.082  18.642  0.00  0.00    +0.000 A 
ATOM     22  O   UNL     1       1.906   7.395  19.748  0.00  0.00    +0.000 OA
BRANCH  21  23
ATOM     23  C   UNL     1       3.333   5.775  18.669  0.00  0.00    +0.000 A 
ATOM     24  C   UNL     1       4.664   5.691  19.128  0.00  0.00    +0.000 A 
ATOM     25  C   UNL     1       5.337   4.467  19.218  0.00  0.00    +0.000 A 
ATOM     26  C   UNL     1       4.697   3.289  18.850  0.00  0.00    +0.000 A 
ATOM     27  C   UNL     1       3.400   3.347  18.347  0.00  0.00    +0.000 A 
ATOM     28  C   UNL     1       2.728   4.576  18.239  0.00  0.00    +0.000 A 
ATOM     29 CL   UNL     1       1.171   4.503  17.483  0.00  0.00    +0.000 Cl
ENDBRANCH  21  23
ENDBRANCH   4  18
TORSDOF 3
ENDMDL
MODEL 8
REMARK VINA RESULT:      -8.1      3.750      7.110
REMARK  Name = 
REMARK  5 active torsions:
REMARK  status: ('A' for Active; 'I' for Inactive)
REMARK    1  A    between atoms: C_1  and  N_2
REMARK    2  A    between atoms: N_2  and  C_3
REMARK    3  A    between atoms: C_4  and  C_6
REMARK    4  A    between atoms: C_9  and  C_11
REMARK    5  A    between atoms: C_14  and  C_15
REMARK                            x       y       z     vdW  Elec       q    Type
REMARK                         _______ _______ _______ _____ _____    ______ ____
ROOT
ATOM      1  C   UNL     1       1.062  10.026  18.519  0.00  0.00    +0.000 C 
ATOM      2  C   UNL     1       1.115  11.435  19.110  0.00  0.00    +0.000 C 
ATOM      3  N   UNL     1      -0.118  11.738  19.842  0.00  0.00    +0.000 N 
ATOM      4  C   UNL     1      -0.004  12.242  21.159  0.00  0.00    +0.000 C 
ATOM      5  O   UNL     1       1.092  12.640  21.561  0.00  0.00    +0.000 OA
ATOM      6  C   UNL     1      -1.297  11.438  19.093  0.00  0.00    +0.000 A 
ATOM      7  C   UNL     1      -2.523  12.081  19.302  0.00  0.00    +0.000 A 
ATOM      8  C   UNL     1      -3.682  11.654  18.649  0.00  0.00    +0.000 A 
ATOM      9  C   UNL     1      -3.610  10.655  17.689  0.00  0.00    +0.000 A 
ATOM     10  C   UNL     1      -2.371  10.103  17.367  0.00  0.00    +0.000 A 
ATOM     11  C   UNL     1      -1.224  10.485  18.069  0.00  0.00    +0.000 A 
ATOM     12  O   UNL     1      -0.071   9.857  17.667  0.00  0.00    +0.000 OA
ENDROOT
BRANCH   1  16
ATOM     13  C   UNL     1       2.108   6.847  20.413  0.00  0.00    +0.000 C 
ATOM     14  N   UNL     1       2.071   7.871  19.387  0.00  0.00    +0.000 N 
ATOM     15  C   UNL     1       2.642   7.559  18.088  0.00  0.00    +0.000 C 
ATOM     16  C   UNL     1       1.228   8.959  19.624  0.00  0.00    +0.000 C 
ATOM     17  O   UNL     1       0.685   9.090  20.727  0.00  0.00    +0.000 OA
ENDBRANCH   1  16
BRANCH   4  18
ATOM     18  C   UNL     1      -1.164  12.326  22.037  0.00  0.00    +0.000 A 
ATOM     19  C   UNL     1      -1.722  11.346  22.832  0.00  0.00    +0.000 A 
ATOM     20  C   UNL     1      -2.711  11.970  23.627  0.00  0.00    +0.000 A 
ATOM     21  C   UNL     1      -2.745  13.303  23.262  0.00  0.00    +0.000 A 
ATOM     22  O   UNL     1      -1.888  13.482  22.203  0.00  0.00    +0.000 OA
BRANCH  21  23
ATOM     23  C   UNL     1      -3.434  14.508  23.746  0.00  0.00    +0.000 A 
ATOM     24  C   UNL     1      -4.725  14.807  23.266  0.00  0.00    +0.000 A 
ATOM     25  C   UNL     1      -5.445  15.915  23.726  0.00  0.00    +0.000 A 
ATOM     26  C   UNL     1      -4.891  16.760  24.681  0.00  0.00    +0.000 A 
ATOM     27  C   UNL     1      -3.598  16.518  25.137  0.00  0.00    +0.000 A 
ATOM     28  C   UNL     1      -2.866  15.417  24.664  0.00  0.00    +0.000 A 
ATOM     29 CL   UNL     1      -1.232  15.316  25.230  0.00  0.00    +0.000 Cl
ENDBRANCH  21  23
ENDBRANCH   4  18
TORSDOF 3
ENDMDL
MODEL 9
REMARK VINA RESULT:      -8.0      3.670      6.945
REMARK  Name = 
REMARK  5 active torsions:
REMARK  status: ('A' for Active; 'I' for Inactive)
REMARK    1  A    between atoms: C_1  and  N_2
REMARK    2  A    between atoms: N_2  and  C_3
REMARK    3  A    between atoms: C_4  and  C_6
REMARK    4  A    between atoms: C_9  and  C_11
REMARK    5  A    between atoms: C_14  and  C_15
REMARK                            x       y       z     vdW  Elec       q    Type
REMARK                         _______ _______ _______ _____ _____    ______ ____
ROOT
ATOM      1  C   UNL     1       1.179   9.835  18.375  0.00  0.00    +0.000 C 
ATOM      2  C   UNL     1       1.297  11.246  18.952  0.00  0.00    +0.000 C 
ATOM      3  N   UNL     1       0.098  11.595  19.720  0.00  0.00    +0.000 N 
ATOM      4  C   UNL     1       0.269  12.104  21.028  0.00  0.00    +0.000 C 
ATOM      5  O   UNL     1       1.390  12.469  21.392  0.00  0.00    +0.000 OA
ATOM      6  C   UNL     1      -1.113  11.328  19.009  0.00  0.00    +0.000 A 
ATOM      7  C   UNL     1      -2.311  12.012  19.251  0.00  0.00    +0.000 A 
ATOM      8  C   UNL     1      -3.503  11.619  18.638  0.00  0.00    +0.000 A 
ATOM      9  C   UNL     1      -3.494  10.611  17.685  0.00  0.00    +0.000 A 
ATOM     10  C   UNL     1      -2.284  10.016  17.329  0.00  0.00    +0.000 A 
ATOM     11  C   UNL     1      -1.103  10.365  17.992  0.00  0.00    +0.000 A 
ATOM     12  O   UNL     1       0.015   9.696  17.560  0.00  0.00    +0.000 OA
ENDROOT
BRANCH   1  16
ATOM     13  C   UNL     1       2.263   6.684  20.295  0.00  0.00    +0.000 C 
ATOM     14  N   UNL     1       2.226   7.709  19.270  0.00  0.00    +0.000 N 
ATOM     15  C   UNL     1       2.842   7.416  17.987  0.00  0.00    +0.000 C 
ATOM     16  C   UNL     1       1.345   8.771  19.484  0.00  0.00    +0.000 C 
ATOM     17  O   UNL     1       0.767   8.884  20.571  0.00  0.00    +0.000 OA
ENDBRANCH   1  16
BRANCH   4  18
ATOM     18  C   UNL     1      -0.860  12.234  21.941  0.00  0.00    +0.000 A 
ATOM     19  C   UNL     1      -1.492  11.255  22.680  0.00  0.00    +0.000 A 
ATOM     20  C   UNL     1      -2.400  11.910  23.544  0.00  0.00    +0.000 A 
ATOM     21  C   UNL     1      -2.315  13.263  23.273  0.00  0.00    +0.000 A 
ATOM     22  O   UNL     1      -1.466  13.437  22.206  0.00  0.00    +0.000 OA
BRANCH  21  23
ATOM     23  C   UNL     1      -2.876  14.490  23.858  0.00  0.00    +0.000 A 
ATOM     24  C   UNL     1      -2.103  15.234  24.774  0.00  0.00    +0.000 A 
ATOM     25  C   UNL     1      -2.568  16.433  25.326  0.00  0.00    +0.000 A 
ATOM     26  C   UNL     1      -3.823  16.922  24.979  0.00  0.00    +0.000 A 
ATOM     27  C   UNL     1      -4.627  16.183  24.117  0.00  0.00    +0.000 A 
ATOM     28  C   UNL     1      -4.171  14.970  23.574  0.00  0.00    +0.000 A 
ATOM     29 CL   UNL     1      -5.328  14.106  22.617  0.00  0.00    +0.000 Cl
ENDBRANCH  21  23
ENDBRANCH   4  18
TORSDOF 3
ENDMDL
