MODEL 1
REMARK VINA RESULT:      -8.5      0.000      0.000
REMARK  Name = 
REMARK  8 active torsions:
REMARK  status: ('A' for Active; 'I' for Inactive)
REMARK    1  A    between atoms: C_1  and  N_2
REMARK    2  A    between atoms: C_6  and  C_7
REMARK    3  A    between atoms: C_7  and  C_8
REMARK    4  A    between atoms: C_8  and  C_9
REMARK    5  A    between atoms: C_13  and  N_14
REMARK    6  A    between atoms: C_17  and  N_18
REMARK    7  A    between atoms: N_18  and  C_19
REMARK    8  A    between atoms: C_19  and  C_20
REMARK                            x       y       z     vdW  Elec       q    Type
REMARK                         _______ _______ _______ _____ _____    ______ ____
ROOT
ATOM      1  C   UNL     1       4.518   4.855  17.199  0.00  0.00    +0.000 A 
ATOM      2  C   UNL     1       3.675   3.742  17.027  0.00  0.00    +0.000 A 
ATOM      3  C   UNL     1       2.360   3.745  17.498  0.00  0.00    +0.000 A 
ATOM      4  C   UNL     1       1.842   4.869  18.144  0.00  0.00    +0.000 A 
ATOM      5  C   UNL     1       2.621   6.013  18.313  0.00  0.00    +0.000 A 
ATOM      6  C   UNL     1       3.939   5.982  17.823  0.00  0.00    +0.000 A 
ENDROOT
BRANCH   5   7
ATOM      7  N   UNL     1       2.143   7.182  18.960  0.00  0.00    +0.000 N 
ATOM      8  C   UNL     1       1.723   7.170  20.343  0.00  0.00    +0.000 C 
ATOM      9  C   UNL     1       1.314   8.575  20.578  0.00  0.00    +0.000 C 
ATOM     10  C   UNL     1       1.439   9.334  19.491  0.00  0.00    +0.000 C 
ATOM     11  C   UNL     1       1.990   8.450  18.406  0.00  0.00    +0.000 C 
ATOM     12  O   UNL     1       2.237   8.876  17.289  0.00  0.00    +0.000 OA
BRANCH  10  13
ATOM     13  N   UNL     1       1.103  10.653  19.288  0.00  0.00    +0.000 N 
ATOM     14  H   UNL     1       1.081  11.109  20.209  0.00  0.00    +0.000 HD
BRANCH  13  15
ATOM     15  C   UNL     1      -0.172  10.979  18.602  0.00  0.00    +0.000 C 
BRANCH  15  16
ATOM     16  C   UNL     1      -1.284  11.477  19.542  0.00  0.00    +0.000 C 
ATOM     17  F   UNL     1      -2.521  11.159  19.097  0.00  0.00    +0.000 F 
ATOM     18  F   UNL     1      -1.146  10.953  20.782  0.00  0.00    +0.000 F 
ATOM     19  F   UNL     1      -1.240  12.825  19.667  0.00  0.00    +0.000 F 
ENDBRANCH  15  16
ENDBRANCH  13  15
ENDBRANCH  10  13
ENDBRANCH   5   7
BRANCH   1  20
ATOM     20  C   UNL     1       6.065   4.862  16.762  0.00  0.00    +0.000 C 
ATOM     21  C   UNL     1       6.774   6.245  16.647  0.00  0.00    +0.000 C 
ATOM     22  O   UNL     1       7.745   5.901  17.657  0.00  0.00    +0.000 OA
ATOM     23  C   UNL     1       7.090   4.645  17.912  0.00  0.00    +0.000 C 
BRANCH  20  24
ATOM     24  C   UNL     1       6.315   3.909  15.576  0.00  0.00    +0.000 C 
BRANCH  24  30
ATOM     25  C   UNL     1       5.732   3.336  12.525  0.00  0.00    +0.000 C 
ATOM     26  N   UNL     1       6.691   4.259  13.068  0.00  0.00    +0.000 N 
ATOM     27  C   UNL     1       7.552   5.017  12.332  0.00  0.00    +0.000 A 
ATOM     28  N   UNL     1       8.270   5.766  13.134  0.00  0.00    +0.000 NA
ATOM     29  N   UNL     1       7.891   5.479  14.421  0.00  0.00    +0.000 NA
ATOM     30  C   UNL     1       6.946   4.559  14.383  0.00  0.00    +0.000 A 
ENDBRANCH  24  30
ENDBRANCH  20  24
ENDBRANCH   1  20
TORSDOF 7
ENDMDL
MODEL 2
REMARK VINA RESULT:      -8.3      4.215      5.646
REMARK  Name = 
REMARK  8 active torsions:
REMARK  status: ('A' for Active; 'I' for Inactive)
REMARK    1  A    between atoms: C_1  and  N_2
REMARK    2  A    between atoms: C_6  and  C_7
REMARK    3  A    between atoms: C_7  and  C_8
REMARK    4  A    between atoms: C_8  and  C_9
REMARK    5  A    between atoms: C_13  and  N_14
REMARK    6  A    between atoms: C_17  and  N_18
REMARK    7  A    between atoms: N_18  and  C_19
REMARK    8  A    between atoms: C_19  and  C_20
REMARK                            x       y       z     vdW  Elec       q    Type
REMARK                         _______ _______ _______ _____ _____    ______ ____
ROOT
ATOM      1  C   UNL     1       2.442   7.448  18.947  0.00  0.00    +0.000 A 
ATOM      2  C   UNL     1       2.537   8.240  17.789  0.00  0.00    +0.000 A 
ATOM      3  C   UNL     1       1.918   9.490  17.709  0.00  0.00    +0.000 A 
ATOM      4  C   UNL     1       1.195   9.992  18.793  0.00  0.00    +0.000 A 
ATOM      5  C   UNL     1       1.095   9.265  19.978  0.00  0.00    +0.000 A 
ATOM      6  C   UNL     1       1.734   8.013  20.030  0.00  0.00    +0.000 A 
ENDROOT
BRANCH   5   7
ATOM      7  N   UNL     1       0.374   9.729  21.109  0.00  0.00    +0.000 N 
ATOM      8  C   UNL     1       0.034   8.855  22.209  0.00  0.00    +0.000 C 
ATOM      9  C   UNL     1      -0.698   9.753  23.133  0.00  0.00    +0.000 C 
ATOM     10  C   UNL     1      -0.815  10.991  22.658  0.00  0.00    +0.000 C 
ATOM     11  C   UNL     1      -0.114  11.014  21.328  0.00  0.00    +0.000 C 
ATOM     12  O   UNL     1      -0.034  12.031  20.658  0.00  0.00    +0.000 OA
BRANCH  10  13
ATOM     13  N   UNL     1      -1.477  12.081  23.178  0.00  0.00    +0.000 N 
ATOM     14  H   UNL     1      -1.668  11.880  24.168  0.00  0.00    +0.000 HD
BRANCH  13  15
ATOM     15  C   UNL     1      -2.755  12.516  22.561  0.00  0.00    +0.000 C 
BRANCH  15  16
ATOM     16  C   UNL     1      -3.893  12.751  23.569  0.00  0.00    +0.000 C 
ATOM     17  F   UNL     1      -5.117  12.669  22.999  0.00  0.00    +0.000 F 
ATOM     18  F   UNL     1      -3.847  11.850  24.577  0.00  0.00    +0.000 F 
ATOM     19  F   UNL     1      -3.795  13.982  24.125  0.00  0.00    +0.000 F 
ENDBRANCH  15  16
ENDBRANCH  13  15
ENDBRANCH  10  13
ENDBRANCH   5   7
BRANCH   1  20
ATOM     20  C   UNL     1       3.054   5.964  19.050  0.00  0.00    +0.000 C 
ATOM     21  C   UNL     1       3.225   5.163  17.724  0.00  0.00    +0.000 C 
ATOM     22  O   UNL     1       4.652   5.051  17.904  0.00  0.00    +0.000 OA
ATOM     23  C   UNL     1       4.607   5.878  19.081  0.00  0.00    +0.000 C 
BRANCH  20  24
ATOM     24  C   UNL     1       2.407   5.171  20.203  0.00  0.00    +0.000 C 
BRANCH  24  30
ATOM     25  C   UNL     1       3.905   2.391  20.170  0.00  0.00    +0.000 C 
ATOM     26  N   UNL     1       2.549   2.652  19.770  0.00  0.00    +0.000 N 
ATOM     27  C   UNL     1       1.691   1.725  19.256  0.00  0.00    +0.000 A 
ATOM     28  N   UNL     1       0.530   2.287  19.021  0.00  0.00    +0.000 NA
ATOM     29  N   UNL     1       0.633   3.613  19.364  0.00  0.00    +0.000 NA
ATOM     30  C   UNL     1       1.857   3.836  19.804  0.00  0.00    +0.000 A 
ENDBRANCH  24  30
ENDBRANCH  20  24
ENDBRANCH   1  20
TORSDOF 7
ENDMDL
MODEL 3
REMARK VINA RESULT:      -8.2      0.959      1.158
REMARK  Name = 
REMARK  8 active torsions:
REMARK  status: ('A' for Active; 'I' for Inactive)
REMARK    1  A    between atoms: C_1  and  N_2
REMARK    2  A    between atoms: C_6  and  C_7
REMARK    3  A    between atoms: C_7  and  C_8
REMARK    4  A    between atoms: C_8  and  C_9
REMARK    5  A    between atoms: C_13  and  N_14
REMARK    6  A    between atoms: C_17  and  N_18
REMARK    7  A    between atoms: N_18  and  C_19
REMARK    8  A    between atoms: C_19  and  C_20
REMARK                            x       y       z     vdW  Elec       q    Type
REMARK                         _______ _______ _______ _____ _____    ______ ____
ROOT
ATOM      1  C   UNL     1       4.515   4.789  17.382  0.00  0.00    +0.000 A 
ATOM      2  C   UNL     1       3.735   3.618  17.387  0.00  0.00    +0.000 A 
ATOM      3  C   UNL     1       2.458   3.596  17.953  0.00  0.00    +0.000 A 
ATOM      4  C   UNL     1       1.914   4.752  18.518  0.00  0.00    +0.000 A 
ATOM      5  C   UNL     1       2.628   5.950  18.511  0.00  0.00    +0.000 A 
ATOM      6  C   UNL     1       3.909   5.941  17.930  0.00  0.00    +0.000 A 
ENDROOT
BRANCH   5   7
ATOM      7  N   UNL     1       2.123   7.151  19.070  0.00  0.00    +0.000 N 
ATOM      8  C   UNL     1       1.680   7.226  20.444  0.00  0.00    +0.000 C 
ATOM      9  C   UNL     1       1.246   8.637  20.577  0.00  0.00    +0.000 C 
ATOM     10  C   UNL     1       1.377   9.322  19.443  0.00  0.00    +0.000 C 
ATOM     11  C   UNL     1       1.959   8.376  18.429  0.00  0.00    +0.000 C 
ATOM     12  O   UNL     1       2.217   8.729  17.290  0.00  0.00    +0.000 OA
BRANCH  10  13
ATOM     13  N   UNL     1       1.024  10.619  19.146  0.00  0.00    +0.000 N 
ATOM     14  H   UNL     1       1.869  11.197  19.242  0.00  0.00    +0.000 HD
BRANCH  13  15
ATOM     15  C   UNL     1      -0.052  11.276  19.929  0.00  0.00    +0.000 C 
BRANCH  15  16
ATOM     16  C   UNL     1       0.453  12.315  20.946  0.00  0.00    +0.000 C 
ATOM     17  F   UNL     1      -0.006  12.084  22.197  0.00  0.00    +0.000 F 
ATOM     18  F   UNL     1       1.805  12.328  20.999  0.00  0.00    +0.000 F 
ATOM     19  F   UNL     1       0.052  13.561  20.598  0.00  0.00    +0.000 F 
ENDBRANCH  15  16
ENDBRANCH  13  15
ENDBRANCH  10  13
ENDBRANCH   5   7
BRANCH   1  20
ATOM     20  C   UNL     1       6.025   4.837  16.832  0.00  0.00    +0.000 C 
ATOM     21  C   UNL     1       6.694   6.237  16.688  0.00  0.00    +0.000 C 
ATOM     22  O   UNL     1       7.744   5.899  17.618  0.00  0.00    +0.000 OA
ATOM     23  C   UNL     1       7.136   4.625  17.900  0.00  0.00    +0.000 C 
BRANCH  20  24
ATOM     24  C   UNL     1       6.207   3.907  15.616  0.00  0.00    +0.000 C 
BRANCH  24  30
ATOM     25  C   UNL     1       5.705   3.358  12.546  0.00  0.00    +0.000 C 
ATOM     26  N   UNL     1       6.667   4.258  13.122  0.00  0.00    +0.000 N 
ATOM     27  C   UNL     1       7.567   4.999  12.415  0.00  0.00    +0.000 A 
ATOM     28  N   UNL     1       8.276   5.730  13.242  0.00  0.00    +0.000 NA
ATOM     29  N   UNL     1       7.851   5.446  14.516  0.00  0.00    +0.000 NA
ATOM     30  C   UNL     1       6.887   4.547  14.445  0.00  0.00    +0.000 A 
ENDBRANCH  24  30
ENDBRANCH  20  24
ENDBRANCH   1  20
TORSDOF 7
ENDMDL
MODEL 4
REMARK VINA RESULT:      -8.2      1.102      1.494
REMARK  Name = 
REMARK  8 active torsions:
REMARK  status: ('A' for Active; 'I' for Inactive)
REMARK    1  A    between atoms: C_1  and  N_2
REMARK    2  A    between atoms: C_6  and  C_7
REMARK    3  A    between atoms: C_7  and  C_8
REMARK    4  A    between atoms: C_8  and  C_9
REMARK    5  A    between atoms: C_13  and  N_14
REMARK    6  A    between atoms: C_17  and  N_18
REMARK    7  A    between atoms: N_18  and  C_19
REMARK    8  A    between atoms: C_19  and  C_20
REMARK                            x       y       z     vdW  Elec       q    Type
REMARK                         _______ _______ _______ _____ _____    ______ ____
ROOT
ATOM      1  C   UNL     1       4.445   5.065  17.257  0.00  0.00    +0.000 A 
ATOM      2  C   UNL     1       3.581   3.955  17.206  0.00  0.00    +0.000 A 
ATOM      3  C   UNL     1       2.251   4.049  17.625  0.00  0.00    +0.000 A 
ATOM      4  C   UNL     1       1.740   5.260  18.094  0.00  0.00    +0.000 A 
ATOM      5  C   UNL     1       2.541   6.401  18.134  0.00  0.00    +0.000 A 
ATOM      6  C   UNL     1       3.873   6.277  17.701  0.00  0.00    +0.000 A 
ENDROOT
BRANCH   5   7
ATOM      7  N   UNL     1       2.071   7.656  18.600  0.00  0.00    +0.000 N 
ATOM      8  C   UNL     1       1.952   8.800  17.724  0.00  0.00    +0.000 C 
ATOM      9  C   UNL     1       1.437   9.857  18.625  0.00  0.00    +0.000 C 
ATOM     10  C   UNL     1       1.287   9.433  19.879  0.00  0.00    +0.000 C 
ATOM     11  C   UNL     1       1.689   7.984  19.898  0.00  0.00    +0.000 C 
ATOM     12  O   UNL     1       1.634   7.312  20.915  0.00  0.00    +0.000 OA
BRANCH  10  13
ATOM     13  N   UNL     1       0.905  10.123  21.007  0.00  0.00    +0.000 N 
ATOM     14  H   UNL     1       0.120   9.611  21.429  0.00  0.00    +0.000 HD
BRANCH  13  15
ATOM     15  C   UNL     1       0.492  11.543  20.884  0.00  0.00    +0.000 C 
BRANCH  15  16
ATOM     16  C   UNL     1      -1.030  11.764  20.954  0.00  0.00    +0.000 C 
ATOM     17  F   UNL     1      -1.362  13.075  20.994  0.00  0.00    +0.000 F 
ATOM     18  F   UNL     1      -1.653  11.214  19.887  0.00  0.00    +0.000 F 
ATOM     19  F   UNL     1      -1.548  11.188  22.065  0.00  0.00    +0.000 F 
ENDBRANCH  15  16
ENDBRANCH  13  15
ENDBRANCH  10  13
ENDBRANCH   5   7
BRANCH   1  20
ATOM     20  C   UNL     1       6.006   4.982  16.879  0.00  0.00    +0.000 C 
ATOM     21  C   UNL     1       6.792   6.323  16.772  0.00  0.00    +0.000 C 
ATOM     22  O   UNL     1       7.704   5.943  17.823  0.00  0.00    +0.000 OA
ATOM     23  C   UNL     1       6.973   4.728  18.070  0.00  0.00    +0.000 C 
BRANCH  20  24
ATOM     24  C   UNL     1       6.248   3.997  15.717  0.00  0.00    +0.000 C 
BRANCH  24  30
ATOM     25  C   UNL     1       5.699   3.378  12.670  0.00  0.00    +0.000 C 
ATOM     26  N   UNL     1       6.675   4.285  13.210  0.00  0.00    +0.000 N 
ATOM     27  C   UNL     1       7.570   5.002  12.473  0.00  0.00    +0.000 A 
ATOM     28  N   UNL     1       8.296   5.747  13.272  0.00  0.00    +0.000 NA
ATOM     29  N   UNL     1       7.887   5.497  14.558  0.00  0.00    +0.000 NA
ATOM     30  C   UNL     1       6.916   4.604  14.522  0.00  0.00    +0.000 A 
ENDBRANCH  24  30
ENDBRANCH  20  24
ENDBRANCH   1  20
TORSDOF 7
ENDMDL
MODEL 5
REMARK VINA RESULT:      -8.1      1.914      2.368
REMARK  Name = 
REMARK  8 active torsions:
REMARK  status: ('A' for Active; 'I' for Inactive)
REMARK    1  A    between atoms: C_1  and  N_2
REMARK    2  A    between atoms: C_6  and  C_7
REMARK    3  A    between atoms: C_7  and  C_8
REMARK    4  A    between atoms: C_8  and  C_9
REMARK    5  A    between atoms: C_13  and  N_14
REMARK    6  A    between atoms: C_17  and  N_18
REMARK    7  A    between atoms: N_18  and  C_19
REMARK    8  A    between atoms: C_19  and  C_20
REMARK                            x       y       z     vdW  Elec       q    Type
REMARK                         _______ _______ _______ _____ _____    ______ ____
ROOT
ATOM      1  C   UNL     1       5.331   5.467  18.605  0.00  0.00    +0.000 A 
ATOM      2  C   UNL     1       4.782   4.257  19.067  0.00  0.00    +0.000 A 
ATOM      3  C   UNL     1       3.458   4.179  19.507  0.00  0.00    +0.000 A 
ATOM      4  C   UNL     1       2.637   5.308  19.483  0.00  0.00    +0.000 A 
ATOM      5  C   UNL     1       3.118   6.527  19.004  0.00  0.00    +0.000 A 
ATOM      6  C   UNL     1       4.452   6.572  18.564  0.00  0.00    +0.000 A 
ENDROOT
BRANCH   5   7
ATOM      7  N   UNL     1       2.326   7.703  18.958  0.00  0.00    +0.000 N 
ATOM      8  C   UNL     1       1.973   8.337  17.708  0.00  0.00    +0.000 C 
ATOM      9  C   UNL     1       1.163   9.500  18.141  0.00  0.00    +0.000 C 
ATOM     10  C   UNL     1       1.056   9.584  19.465  0.00  0.00    +0.000 C 
ATOM     11  C   UNL     1       1.805   8.411  20.037  0.00  0.00    +0.000 C 
ATOM     12  O   UNL     1       1.864   8.206  21.239  0.00  0.00    +0.000 OA
BRANCH  10  13
ATOM     13  N   UNL     1       0.454  10.545  20.247  0.00  0.00    +0.000 N 
ATOM     14  H   UNL     1       1.123  10.806  20.981  0.00  0.00    +0.000 HD
BRANCH  13  15
ATOM     15  C   UNL     1      -0.836  10.234  20.912  0.00  0.00    +0.000 C 
BRANCH  15  16
ATOM     16  C   UNL     1      -0.714   9.944  22.418  0.00  0.00    +0.000 C 
ATOM     17  F   UNL     1      -0.903   8.638  22.712  0.00  0.00    +0.000 F 
ATOM     18  F   UNL     1       0.505  10.300  22.887  0.00  0.00    +0.000 F 
ATOM     19  F   UNL     1      -1.636  10.647  23.119  0.00  0.00    +0.000 F 
ENDBRANCH  15  16
ENDBRANCH  13  15
ENDBRANCH  10  13
ENDBRANCH   5   7
BRANCH   1  20
ATOM     20  C   UNL     1       6.874   5.628  18.182  0.00  0.00    +0.000 C 
ATOM     21  C   UNL     1       7.348   7.035  17.708  0.00  0.00    +0.000 C 
ATOM     22  O   UNL     1       8.315   7.136  18.774  0.00  0.00    +0.000 OA
ATOM     23  C   UNL     1       7.866   5.896  19.350  0.00  0.00    +0.000 C 
BRANCH  20  24
ATOM     24  C   UNL     1       7.334   4.458  17.289  0.00  0.00    +0.000 C 
BRANCH  24  30
ATOM     25  C   UNL     1       4.780   3.335  15.809  0.00  0.00    +0.000 C 
ATOM     26  N   UNL     1       5.866   4.073  15.227  0.00  0.00    +0.000 N 
ATOM     27  C   UNL     1       5.990   4.370  13.902  0.00  0.00    +0.000 A 
ATOM     28  N   UNL     1       7.081   5.073  13.712  0.00  0.00    +0.000 NA
ATOM     29  N   UNL     1       7.697   5.221  14.930  0.00  0.00    +0.000 NA
ATOM     30  C   UNL     1       6.971   4.605  15.843  0.00  0.00    +0.000 A 
ENDBRANCH  24  30
ENDBRANCH  20  24
ENDBRANCH   1  20
TORSDOF 7
ENDMDL
MODEL 6
REMARK VINA RESULT:      -8.1      2.152      3.225
REMARK  Name = 
REMARK  8 active torsions:
REMARK  status: ('A' for Active; 'I' for Inactive)
REMARK    1  A    between atoms: C_1  and  N_2
REMARK    2  A    between atoms: C_6  and  C_7
REMARK    3  A    between atoms: C_7  and  C_8
REMARK    4  A    between atoms: C_8  and  C_9
REMARK    5  A    between atoms: C_13  and  N_14
REMARK    6  A    between atoms: C_17  and  N_18
REMARK    7  A    between atoms: N_18  and  C_19
REMARK    8  A    between atoms: C_19  and  C_20
REMARK                            x       y       z     vdW  Elec       q    Type
REMARK                         _______ _______ _______ _____ _____    ______ ____
ROOT
ATOM      1  C   UNL     1       4.512   4.844  17.684  0.00  0.00    +0.000 A 
ATOM      2  C   UNL     1       4.217   3.920  18.703  0.00  0.00    +0.000 A 
ATOM      3  C   UNL     1       3.339   4.239  19.742  0.00  0.00    +0.000 A 
ATOM      4  C   UNL     1       2.718   5.488  19.786  0.00  0.00    +0.000 A 
ATOM      5  C   UNL     1       2.948   6.432  18.785  0.00  0.00    +0.000 A 
ATOM      6  C   UNL     1       3.832   6.080  17.750  0.00  0.00    +0.000 A 
ENDROOT
BRANCH   5   7
ATOM      7  N   UNL     1       2.342   7.715  18.781  0.00  0.00    +0.000 N 
ATOM      8  C   UNL     1       2.314   8.542  17.597  0.00  0.00    +0.000 C 
ATOM      9  C   UNL     1       1.601   9.757  18.056  0.00  0.00    +0.000 C 
ATOM     10  C   UNL     1       1.264   9.697  19.343  0.00  0.00    +0.000 C 
ATOM     11  C   UNL     1       1.731   8.361  19.852  0.00  0.00    +0.000 C 
ATOM     12  O   UNL     1       1.540   8.006  21.004  0.00  0.00    +0.000 OA
BRANCH  10  13
ATOM     13  N   UNL     1       0.662  10.639  20.146  0.00  0.00    +0.000 N 
ATOM     14  H   UNL     1       1.059  10.538  21.088  0.00  0.00    +0.000 HD
BRANCH  13  15
ATOM     15  C   UNL     1      -0.816  10.636  20.286  0.00  0.00    +0.000 C 
BRANCH  15  16
ATOM     16  C   UNL     1      -1.568  11.105  19.028  0.00  0.00    +0.000 C 
ATOM     17  F   UNL     1      -1.807  10.097  18.159  0.00  0.00    +0.000 F 
ATOM     18  F   UNL     1      -2.759  11.662  19.350  0.00  0.00    +0.000 F 
ATOM     19  F   UNL     1      -0.852  12.043  18.362  0.00  0.00    +0.000 F 
ENDBRANCH  15  16
ENDBRANCH  13  15
ENDBRANCH  10  13
ENDBRANCH   5   7
BRANCH   1  20
ATOM     20  C   UNL     1       5.589   4.559  16.524  0.00  0.00    +0.000 C 
ATOM     21  C   UNL     1       5.306   3.371  15.556  0.00  0.00    +0.000 C 
ATOM     22  O   UNL     1       5.277   4.237  14.403  0.00  0.00    +0.000 OA
ATOM     23  C   UNL     1       5.424   5.406  15.230  0.00  0.00    +0.000 C 
BRANCH  20  24
ATOM     24  C   UNL     1       7.029   4.614  17.072  0.00  0.00    +0.000 C 
BRANCH  24  30
ATOM     25  C   UNL     1       8.002   5.625  19.902  0.00  0.00    +0.000 C 
ATOM     26  N   UNL     1       7.881   6.399  18.697  0.00  0.00    +0.000 N 
ATOM     27  C   UNL     1       8.129   7.736  18.597  0.00  0.00    +0.000 A 
ATOM     28  N   UNL     1       7.947   8.123  17.357  0.00  0.00    +0.000 NA
ATOM     29  N   UNL     1       7.549   7.025  16.634  0.00  0.00    +0.000 NA
ATOM     30  C   UNL     1       7.497   5.987  17.446  0.00  0.00    +0.000 A 
ENDBRANCH  24  30
ENDBRANCH  20  24
ENDBRANCH   1  20
TORSDOF 7
ENDMDL
MODEL 7
REMARK VINA RESULT:      -8.1      1.304      1.575
REMARK  Name = 
REMARK  8 active torsions:
REMARK  status: ('A' for Active; 'I' for Inactive)
REMARK    1  A    between atoms: C_1  and  N_2
REMARK    2  A    between atoms: C_6  and  C_7
REMARK    3  A    between atoms: C_7  and  C_8
REMARK    4  A    between atoms: C_8  and  C_9
REMARK    5  A    between atoms: C_13  and  N_14
REMARK    6  A    between atoms: C_17  and  N_18
REMARK    7  A    between atoms: N_18  and  C_19
REMARK    8  A    between atoms: C_19  and  C_20
REMARK                            x       y       z     vdW  Elec       q    Type
REMARK                         _______ _______ _______ _____ _____    ______ ____
ROOT
ATOM      1  C   UNL     1       4.507   4.925  17.224  0.00  0.00    +0.000 A 
ATOM      2  C   UNL     1       3.682   3.789  17.132  0.00  0.00    +0.000 A 
ATOM      3  C   UNL     1       2.374   3.798  17.623  0.00  0.00    +0.000 A 
ATOM      4  C   UNL     1       1.846   4.950  18.209  0.00  0.00    +0.000 A 
ATOM      5  C   UNL     1       2.606   6.115  18.296  0.00  0.00    +0.000 A 
ATOM      6  C   UNL     1       3.917   6.077  17.789  0.00  0.00    +0.000 A 
ENDROOT
BRANCH   5   7
ATOM      7  N   UNL     1       2.117   7.313  18.880  0.00  0.00    +0.000 N 
ATOM      8  C   UNL     1       1.763   7.389  20.279  0.00  0.00    +0.000 C 
ATOM      9  C   UNL     1       1.315   8.793  20.432  0.00  0.00    +0.000 C 
ATOM     10  C   UNL     1       1.361   9.473  19.289  0.00  0.00    +0.000 C 
ATOM     11  C   UNL     1       1.892   8.530  18.244  0.00  0.00    +0.000 C 
ATOM     12  O   UNL     1       2.070   8.880  17.089  0.00  0.00    +0.000 OA
BRANCH  10  13
ATOM     13  N   UNL     1       0.968  10.762  19.007  0.00  0.00    +0.000 N 
ATOM     14  H   UNL     1       0.325  10.719  18.207  0.00  0.00    +0.000 HD
BRANCH  13  15
ATOM     15  C   UNL     1       1.999  11.783  18.692  0.00  0.00    +0.000 C 
BRANCH  15  16
ATOM     16  C   UNL     1       1.851  13.093  19.486  0.00  0.00    +0.000 C 
ATOM     17  F   UNL     1       1.716  14.173  18.684  0.00  0.00    +0.000 F 
ATOM     18  F   UNL     1       0.773  13.050  20.303  0.00  0.00    +0.000 F 
ATOM     19  F   UNL     1       2.938  13.308  20.264  0.00  0.00    +0.000 F 
ENDBRANCH  15  16
ENDBRANCH  13  15
ENDBRANCH  10  13
ENDBRANCH   5   7
BRANCH   1  20
ATOM     20  C   UNL     1       6.048   4.932  16.763  0.00  0.00    +0.000 C 
ATOM     21  C   UNL     1       6.751   6.316  16.626  0.00  0.00    +0.000 C 
ATOM     22  O   UNL     1       7.738   5.981  17.624  0.00  0.00    +0.000 OA
ATOM     23  C   UNL     1       7.090   4.726  17.898  0.00  0.00    +0.000 C 
BRANCH  20  24
ATOM     24  C   UNL     1       6.282   3.971  15.580  0.00  0.00    +0.000 C 
BRANCH  24  30
ATOM     25  C   UNL     1       5.752   3.361  12.527  0.00  0.00    +0.000 C 
ATOM     26  N   UNL     1       6.705   4.286  13.075  0.00  0.00    +0.000 N 
ATOM     27  C   UNL     1       7.584   5.031  12.345  0.00  0.00    +0.000 A 
ATOM     28  N   UNL     1       8.290   5.787  13.151  0.00  0.00    +0.000 NA
ATOM     29  N   UNL     1       7.885   5.518  14.435  0.00  0.00    +0.000 NA
ATOM     30  C   UNL     1       6.937   4.602  14.390  0.00  0.00    +0.000 A 
ENDBRANCH  24  30
ENDBRANCH  20  24
ENDBRANCH   1  20
TORSDOF 7
ENDMDL
MODEL 8
REMARK VINA RESULT:      -8.1      2.787      4.112
REMARK  Name = 
REMARK  8 active torsions:
REMARK  status: ('A' for Active; 'I' for Inactive)
REMARK    1  A    between atoms: C_1  and  N_2
REMARK    2  A    between atoms: C_6  and  C_7
REMARK    3  A    between atoms: C_7  and  C_8
REMARK    4  A    between atoms: C_8  and  C_9
REMARK    5  A    between atoms: C_13  and  N_14
REMARK    6  A    between atoms: C_17  and  N_18
REMARK    7  A    between atoms: N_18  and  C_19
REMARK    8  A    between atoms: C_19  and  C_20
REMARK                            x       y       z     vdW  Elec       q    Type
REMARK                         _______ _______ _______ _____ _____    ______ ____
ROOT
ATOM      1  C   UNL     1       2.975   5.871  18.688  0.00  0.00    +0.000 A 
ATOM      2  C   UNL     1       3.508   6.414  17.505  0.00  0.00    +0.000 A 
ATOM      3  C   UNL     1       3.302   7.753  17.162  0.00  0.00    +0.000 A 
ATOM      4  C   UNL     1       2.567   8.594  18.000  0.00  0.00    +0.000 A 
ATOM      5  C   UNL     1       2.044   8.118  19.202  0.00  0.00    +0.000 A 
ATOM      6  C   UNL     1       2.272   6.768  19.522  0.00  0.00    +0.000 A 
ENDROOT
BRANCH   5   7
ATOM      7  N   UNL     1       1.291   8.930  20.089  0.00  0.00    +0.000 N 
ATOM      8  C   UNL     1       1.019   8.524  21.449  0.00  0.00    +0.000 C 
ATOM      9  C   UNL     1       0.223   9.655  21.981  0.00  0.00    +0.000 C 
ATOM     10  C   UNL     1       0.012  10.604  21.072  0.00  0.00    +0.000 C 
ATOM     11  C   UNL     1       0.708  10.163  19.814  0.00  0.00    +0.000 C 
ATOM     12  O   UNL     1       0.711  10.848  18.803  0.00  0.00    +0.000 OA
BRANCH  10  13
ATOM     13  N   UNL     1      -0.730  11.762  21.155  0.00  0.00    +0.000 N 
ATOM     14  H   UNL     1      -0.284  12.456  20.543  0.00  0.00    +0.000 HD
BRANCH  13  15
ATOM     15  C   UNL     1      -0.930  12.401  22.479  0.00  0.00    +0.000 C 
BRANCH  15  16
ATOM     16  C   UNL     1      -2.351  12.241  23.047  0.00  0.00    +0.000 C 
ATOM     17  F   UNL     1      -3.300  12.257  22.084  0.00  0.00    +0.000 F 
ATOM     18  F   UNL     1      -2.476  11.080  23.730  0.00  0.00    +0.000 F 
ATOM     19  F   UNL     1      -2.640  13.247  23.907  0.00  0.00    +0.000 F 
ENDBRANCH  15  16
ENDBRANCH  13  15
ENDBRANCH  10  13
ENDBRANCH   5   7
BRANCH   1  20
ATOM     20  C   UNL     1       3.103   4.316  19.077  0.00  0.00    +0.000 C 
ATOM     21  C   UNL     1       2.856   3.923  20.565  0.00  0.00    +0.000 C 
ATOM     22  O   UNL     1       1.749   3.066  20.219  0.00  0.00    +0.000 OA
ATOM     23  C   UNL     1       1.829   3.456  18.836  0.00  0.00    +0.000 C 
BRANCH  20  24
ATOM     24  C   UNL     1       4.357   3.682  18.442  0.00  0.00    +0.000 C 
BRANCH  24  30
ATOM     25  C   UNL     1       6.626   4.421  16.374  0.00  0.00    +0.000 C 
ATOM     26  N   UNL     1       6.609   4.706  17.783  0.00  0.00    +0.000 N 
ATOM     27  C   UNL     1       7.616   5.314  18.472  0.00  0.00    +0.000 A 
ATOM     28  N   UNL     1       7.268   5.444  19.729  0.00  0.00    +0.000 NA
ATOM     29  N   UNL     1       6.020   4.890  19.875  0.00  0.00    +0.000 NA
ATOM     30  C   UNL     1       5.627   4.432  18.702  0.00  0.00    +0.000 A 
ENDBRANCH  24  30
ENDBRANCH  20  24
ENDBRANCH   1  20
TORSDOF 7
ENDMDL
MODEL 9
REMARK VINA RESULT:      -8.0      3.326      5.032
REMARK  Name = 
REMARK  8 active torsions:
REMARK  status: ('A' for Active; 'I' for Inactive)
REMARK    1  A    between atoms: C_1  and  N_2
REMARK    2  A    between atoms: C_6  and  C_7
REMARK    3  A    between atoms: C_7  and  C_8
REMARK    4  A    between atoms: C_8  and  C_9
REMARK    5  A    between atoms: C_13  and  N_14
REMARK    6  A    between atoms: C_17  and  N_18
REMARK    7  A    between atoms: N_18  and  C_19
REMARK    8  A    between atoms: C_19  and  C_20
REMARK                            x       y       z     vdW  Elec       q    Type
REMARK                         _______ _______ _______ _____ _____    ______ ____
ROOT
ATOM      1  C   UNL     1       2.117   7.400  19.334  0.00  0.00    +0.000 A 
ATOM      2  C   UNL     1       2.361   8.127  18.154  0.00  0.00    +0.000 A 
ATOM      3  C   UNL     1       1.894   9.434  17.994  0.00  0.00    +0.000 A 
ATOM      4  C   UNL     1       1.180  10.060  19.017  0.00  0.00    +0.000 A 
ATOM      5  C   UNL     1       0.938   9.401  20.222  0.00  0.00    +0.000 A 
ATOM      6  C   UNL     1       1.424   8.088  20.354  0.00  0.00    +0.000 A 
ENDROOT
BRANCH   5   7
ATOM      7  N   UNL     1       0.219   9.992  21.293  0.00  0.00    +0.000 N 
ATOM      8  C   UNL     1      -0.141   9.242  22.475  0.00  0.00    +0.000 C 
ATOM      9  C   UNL     1      -0.863  10.243  23.296  0.00  0.00    +0.000 C 
ATOM     10  C   UNL     1      -0.957  11.427  22.694  0.00  0.00    +0.000 C 
ATOM     11  C   UNL     1      -0.248  11.300  21.374  0.00  0.00    +0.000 C 
ATOM     12  O   UNL     1      -0.147  12.241  20.602  0.00  0.00    +0.000 OA
BRANCH  10  13
ATOM     13  N   UNL     1      -1.603  12.575  23.094  0.00  0.00    +0.000 N 
ATOM     14  H   UNL     1      -1.440  12.683  24.103  0.00  0.00    +0.000 HD
BRANCH  13  15
ATOM     15  C   UNL     1      -3.064  12.703  22.865  0.00  0.00    +0.000 C 
BRANCH  15  16
ATOM     16  C   UNL     1      -3.866  13.092  24.119  0.00  0.00    +0.000 C 
ATOM     17  F   UNL     1      -5.034  13.705  23.819  0.00  0.00    +0.000 F 
ATOM     18  F   UNL     1      -4.153  12.005  24.872  0.00  0.00    +0.000 F 
ATOM     19  F   UNL     1      -3.157  13.945  24.897  0.00  0.00    +0.000 F 
ENDBRANCH  15  16
ENDBRANCH  13  15
ENDBRANCH  10  13
ENDBRANCH   5   7
BRANCH   1  20
ATOM     20  C   UNL     1       2.548   5.863  19.525  0.00  0.00    +0.000 C 
ATOM     21  C   UNL     1       1.923   5.084  20.721  0.00  0.00    +0.000 C 
ATOM     22  O   UNL     1       1.308   4.114  19.848  0.00  0.00    +0.000 OA
ATOM     23  C   UNL     1       1.748   4.831  18.680  0.00  0.00    +0.000 C 
BRANCH  20  24
ATOM     24  C   UNL     1       4.071   5.685  19.365  0.00  0.00    +0.000 C 
BRANCH  24  30
ATOM     25  C   UNL     1       4.421   2.666  18.510  0.00  0.00    +0.000 C 
ATOM     26  N   UNL     1       4.670   3.830  17.706  0.00  0.00    +0.000 N 
ATOM     27  C   UNL     1       5.153   3.814  16.431  0.00  0.00    +0.000 A 
ATOM     28  N   UNL     1       5.238   5.042  15.980  0.00  0.00    +0.000 NA
ATOM     29  N   UNL     1       4.826   5.883  16.984  0.00  0.00    +0.000 NA
ATOM     30  C   UNL     1       4.496   5.152  18.032  0.00  0.00    +0.000 A 
ENDBRANCH  24  30
ENDBRANCH  20  24
ENDBRANCH   1  20
TORSDOF 7
ENDMDL
