MODEL 1
REMARK VINA RESULT:      -8.8      0.000      0.000
REMARK  Name = 
REMARK  5 active torsions:
REMARK  status: ('A' for Active; 'I' for Inactive)
REMARK    1  A    between atoms: C_1  and  C_2
REMARK    2  A    between atoms: C_5  and  N_6
REMARK    3  A    between atoms: C_9  and  C_10
REMARK    4  A    between atoms: C_10  and  N_11
REMARK    5  A    between atoms: C_20  and  C_21
REMARK                            x       y       z     vdW  Elec       q    Type
REMARK                         _______ _______ _______ _____ _____    ______ ____
ROOT
ATOM      1  C   UNL     1       4.536   4.808  19.642  0.00  0.00    +0.000 C 
ENDROOT
BRANCH   1   2
ATOM      2  N   UNL     1       3.355   5.723  19.858  0.00  0.00    +0.000 NA
ATOM      3  C   UNL     1       2.229   4.871  20.419  0.00  0.00    +0.000 C 
ATOM      4  C   UNL     1       1.919   3.723  19.453  0.00  0.00    +0.000 A 
ATOM      5  C   UNL     1       2.160   2.398  19.822  0.00  0.00    +0.000 A 
ATOM      6  C   UNL     1       2.662   1.522  18.859  0.00  0.00    +0.000 A 
ATOM      7  C   UNL     1       2.862   1.957  17.544  0.00  0.00    +0.000 A 
ATOM      8  C   UNL     1       2.434   3.225  17.142  0.00  0.00    +0.000 A 
ATOM      9  C   UNL     1       1.914   4.099  18.096  0.00  0.00    +0.000 A 
ATOM     10  C   UNL     1       1.722   5.567  17.834  0.00  0.00    +0.000 C 
ATOM     11  C   UNL     1       2.866   6.332  18.556  0.00  0.00    +0.000 C 
BRANCH  11  12
ATOM     12  C   UNL     1       2.381   7.776  18.815  0.00  0.00    +0.000 C 
ATOM     13  N   UNL     1       2.467   8.605  17.725  0.00  0.00    +0.000 N 
ATOM     14  O   UNL     1       1.869   8.184  19.862  0.00  0.00    +0.000 OA
ATOM     15  H   UNL     1       3.128   8.336  17.003  0.00  0.00    +0.000 HD
ATOM     16  H   UNL     1       2.263   9.583  17.875  0.00  0.00    +0.000 HD
ENDBRANCH  11  12
ENDBRANCH   1   2
BRANCH   1  20
ATOM     17  N   UNL     1       7.297   5.756  15.803  0.00  0.00    +0.000 N 
ATOM     18  C   UNL     1       6.952   5.724  17.107  0.00  0.00    +0.000 A 
ATOM     19  N   UNL     1       5.832   5.234  17.604  0.00  0.00    +0.000 NA
ATOM     20  C   UNL     1       5.753   5.387  18.991  0.00  0.00    +0.000 A 
ATOM     21  C   UNL     1       6.871   5.954  19.551  0.00  0.00    +0.000 A 
ATOM     22  S   UNL     1       7.984   6.394  18.321  0.00  0.00    +0.000 S 
ATOM     23  H   UNL     1       7.954   6.465  15.511  0.00  0.00    +0.000 HD
BRANCH  17  28
ATOM     24  C   UNL     1       5.136   2.817  11.357  0.00  0.00    +0.000 C 
ATOM     25  C   UNL     1       5.737   3.523  12.537  0.00  0.00    +0.000 A 
ATOM     26  C   UNL     1       6.998   4.115  12.469  0.00  0.00    +0.000 A 
ATOM     27  C   UNL     1       7.514   4.824  13.567  0.00  0.00    +0.000 A 
ATOM     28  C   UNL     1       6.785   4.954  14.759  0.00  0.00    +0.000 A 
ATOM     29  C   UNL     1       5.534   4.329  14.822  0.00  0.00    +0.000 A 
ATOM     30  C   UNL     1       5.020   3.606  13.735  0.00  0.00    +0.000 A 
ENDBRANCH  17  28
ENDBRANCH   1  20
TORSDOF 4
ENDMDL
MODEL 2
REMARK VINA RESULT:      -8.2      1.916      3.549
REMARK  Name = 
REMARK  5 active torsions:
REMARK  status: ('A' for Active; 'I' for Inactive)
REMARK    1  A    between atoms: C_1  and  C_2
REMARK    2  A    between atoms: C_5  and  N_6
REMARK    3  A    between atoms: C_9  and  C_10
REMARK    4  A    between atoms: C_10  and  N_11
REMARK    5  A    between atoms: C_20  and  C_21
REMARK                            x       y       z     vdW  Elec       q    Type
REMARK                         _______ _______ _______ _____ _____    ______ ____
ROOT
ATOM      1  C   UNL     1       4.611   4.950  19.396  0.00  0.00    +0.000 C 
ENDROOT
BRANCH   1   2
ATOM      2  N   UNL     1       3.798   3.970  18.584  0.00  0.00    +0.000 NA
ATOM      3  C   UNL     1       2.959   4.784  17.614  0.00  0.00    +0.000 C 
ATOM      4  C   UNL     1       2.087   5.776  18.391  0.00  0.00    +0.000 A 
ATOM      5  C   UNL     1       2.293   7.151  18.269  0.00  0.00    +0.000 A 
ATOM      6  C   UNL     1       2.170   7.943  19.411  0.00  0.00    +0.000 A 
ATOM      7  C   UNL     1       1.792   7.371  20.631  0.00  0.00    +0.000 A 
ATOM      8  C   UNL     1       1.400   6.032  20.696  0.00  0.00    +0.000 A 
ATOM      9  C   UNL     1       1.503   5.239  19.555  0.00  0.00    +0.000 A 
ATOM     10  C   UNL     1       1.409   3.738  19.595  0.00  0.00    +0.000 C 
ATOM     11  C   UNL     1       2.847   3.168  19.455  0.00  0.00    +0.000 C 
BRANCH  11  12
ATOM     12  C   UNL     1       2.735   1.730  18.901  0.00  0.00    +0.000 C 
ATOM     13  N   UNL     1       1.451   1.331  18.622  0.00  0.00    +0.000 N 
ATOM     14  O   UNL     1       3.684   0.989  18.629  0.00  0.00    +0.000 OA
ATOM     15  H   UNL     1       0.708   1.827  19.105  0.00  0.00    +0.000 HD
ATOM     16  H   UNL     1       1.318   0.364  18.360  0.00  0.00    +0.000 HD
ENDBRANCH  11  12
ENDBRANCH   1   2
BRANCH   1  20
ATOM     17  N   UNL     1       7.450   5.899  15.615  0.00  0.00    +0.000 N 
ATOM     18  C   UNL     1       7.088   5.846  16.914  0.00  0.00    +0.000 A 
ATOM     19  N   UNL     1       5.946   5.382  17.385  0.00  0.00    +0.000 NA
ATOM     20  C   UNL     1       5.855   5.504  18.774  0.00  0.00    +0.000 A 
ATOM     21  C   UNL     1       6.985   6.017  19.362  0.00  0.00    +0.000 A 
ATOM     22  S   UNL     1       8.127   6.449  18.156  0.00  0.00    +0.000 S 
ATOM     23  H   UNL     1       8.135   6.592  15.348  0.00  0.00    +0.000 HD
BRANCH  17  28
ATOM     24  C   UNL     1       5.399   2.496  11.457  0.00  0.00    +0.000 C 
ATOM     25  C   UNL     1       5.892   3.439  12.515  0.00  0.00    +0.000 A 
ATOM     26  C   UNL     1       5.187   3.638  13.702  0.00  0.00    +0.000 A 
ATOM     27  C   UNL     1       5.698   4.477  14.705  0.00  0.00    +0.000 A 
ATOM     28  C   UNL     1       6.924   5.142  14.545  0.00  0.00    +0.000 A 
ATOM     29  C   UNL     1       7.607   4.955  13.336  0.00  0.00    +0.000 A 
ATOM     30  C   UNL     1       7.093   4.130  12.324  0.00  0.00    +0.000 A 
ENDBRANCH  17  28
ENDBRANCH   1  20
TORSDOF 4
ENDMDL
MODEL 3
REMARK VINA RESULT:      -7.8      2.469      3.843
REMARK  Name = 
REMARK  5 active torsions:
REMARK  status: ('A' for Active; 'I' for Inactive)
REMARK    1  A    between atoms: C_1  and  C_2
REMARK    2  A    between atoms: C_5  and  N_6
REMARK    3  A    between atoms: C_9  and  C_10
REMARK    4  A    between atoms: C_10  and  N_11
REMARK    5  A    between atoms: C_20  and  C_21
REMARK                            x       y       z     vdW  Elec       q    Type
REMARK                         _______ _______ _______ _____ _____    ______ ____
ROOT
ATOM      1  C   UNL     1       4.521   3.998  19.310  0.00  0.00    +0.000 C 
ENDROOT
BRANCH   1   2
ATOM      2  N   UNL     1       4.735   2.519  19.523  0.00  0.00    +0.000 NA
ATOM      3  C   UNL     1       3.656   1.796  18.735  0.00  0.00    +0.000 C 
ATOM      4  C   UNL     1       2.274   2.268  19.199  0.00  0.00    +0.000 A 
ATOM      5  C   UNL     1       1.439   2.981  18.335  0.00  0.00    +0.000 A 
ATOM      6  C   UNL     1       0.685   4.031  18.860  0.00  0.00    +0.000 A 
ATOM      7  C   UNL     1       0.729   4.317  20.229  0.00  0.00    +0.000 A 
ATOM      8  C   UNL     1       1.413   3.476  21.109  0.00  0.00    +0.000 A 
ATOM      9  C   UNL     1       2.154   2.413  20.594  0.00  0.00    +0.000 A 
ATOM     10  C   UNL     1       3.162   1.653  21.411  0.00  0.00    +0.000 C 
ATOM     11  C   UNL     1       4.578   2.131  20.983  0.00  0.00    +0.000 C 
BRANCH  11  12
ATOM     12  C   UNL     1       5.580   1.006  21.325  0.00  0.00    +0.000 C 
ATOM     13  N   UNL     1       5.709   0.048  20.349  0.00  0.00    +0.000 N 
ATOM     14  O   UNL     1       6.296   0.964  22.329  0.00  0.00    +0.000 OA
ATOM     15  H   UNL     1       4.934  -0.043  19.700  0.00  0.00    +0.000 HD
ATOM     16  H   UNL     1       6.271  -0.762  20.573  0.00  0.00    +0.000 HD
ENDBRANCH  11  12
ENDBRANCH   1   2
BRANCH   1  20
ATOM     17  N   UNL     1       7.194   5.738  15.693  0.00  0.00    +0.000 N 
ATOM     18  C   UNL     1       6.840   5.504  16.974  0.00  0.00    +0.000 A 
ATOM     19  N   UNL     1       5.782   4.825  17.376  0.00  0.00    +0.000 NA
ATOM     20  C   UNL     1       5.667   4.795  18.768  0.00  0.00    +0.000 A 
ATOM     21  C   UNL     1       6.702   5.416  19.424  0.00  0.00    +0.000 A 
ATOM     22  S   UNL     1       7.768   6.134  18.287  0.00  0.00    +0.000 S 
ATOM     23  H   UNL     1       7.764   6.551  15.507  0.00  0.00    +0.000 HD
BRANCH  17  28
ATOM     24  C   UNL     1       5.660   2.479  11.210  0.00  0.00    +0.000 C 
ATOM     25  C   UNL     1       6.018   3.384  12.352  0.00  0.00    +0.000 A 
ATOM     26  C   UNL     1       5.203   3.495  13.479  0.00  0.00    +0.000 A 
ATOM     27  C   UNL     1       5.590   4.301  14.563  0.00  0.00    +0.000 A 
ATOM     28  C   UNL     1       6.796   5.018  14.545  0.00  0.00    +0.000 A 
ATOM     29  C   UNL     1       7.589   4.919  13.395  0.00  0.00    +0.000 A 
ATOM     30  C   UNL     1       7.201   4.128  12.303  0.00  0.00    +0.000 A 
ENDBRANCH  17  28
ENDBRANCH   1  20
TORSDOF 4
ENDMDL
MODEL 4
REMARK VINA RESULT:      -7.5      2.355      3.612
REMARK  Name = 
REMARK  5 active torsions:
REMARK  status: ('A' for Active; 'I' for Inactive)
REMARK    1  A    between atoms: C_1  and  C_2
REMARK    2  A    between atoms: C_5  and  N_6
REMARK    3  A    between atoms: C_9  and  C_10
REMARK    4  A    between atoms: C_10  and  N_11
REMARK    5  A    between atoms: C_20  and  C_21
REMARK                            x       y       z     vdW  Elec       q    Type
REMARK                         _______ _______ _______ _____ _____    ______ ____
ROOT
ATOM      1  C   UNL     1       4.896   4.371  19.539  0.00  0.00    +0.000 C 
ENDROOT
BRANCH   1   2
ATOM      2  N   UNL     1       5.046   2.870  19.504  0.00  0.00    +0.000 NA
ATOM      3  C   UNL     1       4.233   2.370  18.321  0.00  0.00    +0.000 C 
ATOM      4  C   UNL     1       2.775   2.816  18.470  0.00  0.00    +0.000 A 
ATOM      5  C   UNL     1       2.214   3.725  17.570  0.00  0.00    +0.000 A 
ATOM      6  C   UNL     1       1.341   4.693  18.065  0.00  0.00    +0.000 A 
ATOM      7  C   UNL     1       0.997   4.708  19.422  0.00  0.00    +0.000 A 
ATOM      8  C   UNL     1       1.409   3.679  20.271  0.00  0.00    +0.000 A 
ATOM      9  C   UNL     1       2.268   2.697  19.778  0.00  0.00    +0.000 A 
ATOM     10  C   UNL     1       3.009   1.742  20.673  0.00  0.00    +0.000 C 
ATOM     11  C   UNL     1       4.487   2.217  20.756  0.00  0.00    +0.000 C 
BRANCH  11  12
ATOM     12  C   UNL     1       5.357   0.996  21.130  0.00  0.00    +0.000 C 
ATOM     13  N   UNL     1       5.470   0.057  20.134  0.00  0.00    +0.000 N 
ATOM     14  O   UNL     1       5.990   0.861  22.180  0.00  0.00    +0.000 OA
ATOM     15  H   UNL     1       4.739   0.055  19.429  0.00  0.00    +0.000 HD
ATOM     16  H   UNL     1       5.938  -0.807  20.370  0.00  0.00    +0.000 HD
ENDBRANCH  11  12
ENDBRANCH   1   2
BRANCH   1  20
ATOM     17  N   UNL     1       7.123   5.876  15.535  0.00  0.00    +0.000 N 
ATOM     18  C   UNL     1       6.887   5.770  16.859  0.00  0.00    +0.000 A 
ATOM     19  N   UNL     1       5.929   5.060  17.424  0.00  0.00    +0.000 NA
ATOM     20  C   UNL     1       5.921   5.189  18.815  0.00  0.00    +0.000 A 
ATOM     21  C   UNL     1       6.939   5.968  19.307  0.00  0.00    +0.000 A 
ATOM     22  S   UNL     1       7.848   6.630  18.010  0.00  0.00    +0.000 S 
ATOM     23  H   UNL     1       7.601   6.705  15.210  0.00  0.00    +0.000 HD
BRANCH  17  28
ATOM     24  C   UNL     1       5.366   2.584  11.159  0.00  0.00    +0.000 C 
ATOM     25  C   UNL     1       5.862   3.385  12.327  0.00  0.00    +0.000 A 
ATOM     26  C   UNL     1       7.105   4.017  12.304  0.00  0.00    +0.000 A 
ATOM     27  C   UNL     1       7.522   4.813  13.384  0.00  0.00    +0.000 A 
ATOM     28  C   UNL     1       6.710   4.992  14.514  0.00  0.00    +0.000 A 
ATOM     29  C   UNL     1       5.477   4.327  14.536  0.00  0.00    +0.000 A 
ATOM     30  C   UNL     1       5.062   3.519  13.467  0.00  0.00    +0.000 A 
ENDBRANCH  17  28
ENDBRANCH   1  20
TORSDOF 4
ENDMDL
MODEL 5
REMARK VINA RESULT:      -7.5      7.532     11.564
REMARK  Name = 
REMARK  5 active torsions:
REMARK  status: ('A' for Active; 'I' for Inactive)
REMARK    1  A    between atoms: C_1  and  C_2
REMARK    2  A    between atoms: C_5  and  N_6
REMARK    3  A    between atoms: C_9  and  C_10
REMARK    4  A    between atoms: C_10  and  N_11
REMARK    5  A    between atoms: C_20  and  C_21
REMARK                            x       y       z     vdW  Elec       q    Type
REMARK                         _______ _______ _______ _____ _____    ______ ____
ROOT
ATOM      1  C   UNL     1      -1.018  10.307  18.874  0.00  0.00    +0.000 C 
ENDROOT
BRANCH   1   2
ATOM      2  N   UNL     1       0.362  10.857  18.602  0.00  0.00    +0.000 NA
ATOM      3  C   UNL     1       1.356   9.871  19.192  0.00  0.00    +0.000 C 
ATOM      4  C   UNL     1       1.075   9.685  20.687  0.00  0.00    +0.000 A 
ATOM      5  C   UNL     1       0.635   8.456  21.181  0.00  0.00    +0.000 A 
ATOM      6  C   UNL     1      -0.327   8.453  22.191  0.00  0.00    +0.000 A 
ATOM      7  C   UNL     1      -0.790   9.660  22.728  0.00  0.00    +0.000 A 
ATOM      8  C   UNL     1      -0.201  10.873  22.364  0.00  0.00    +0.000 A 
ATOM      9  C   UNL     1       0.774  10.880  21.368  0.00  0.00    +0.000 A 
ATOM     10  C   UNL     1       1.237  12.142  20.692  0.00  0.00    +0.000 C 
ATOM     11  C   UNL     1       0.581  12.195  19.285  0.00  0.00    +0.000 C 
BRANCH  11  12
ATOM     12  C   UNL     1       1.461  13.091  18.385  0.00  0.00    +0.000 C 
ATOM     13  N   UNL     1       2.255  12.400  17.504  0.00  0.00    +0.000 N 
ATOM     14  O   UNL     1       1.432  14.325  18.354  0.00  0.00    +0.000 OA
ATOM     15  H   UNL     1       2.462  11.436  17.743  0.00  0.00    +0.000 HD
ATOM     16  H   UNL     1       2.925  12.938  16.972  0.00  0.00    +0.000 HD
ENDBRANCH  11  12
ENDBRANCH   1   2
BRANCH   1  20
ATOM     17  N   UNL     1      -5.403  11.970  17.747  0.00  0.00    +0.000 N 
ATOM     18  C   UNL     1      -4.192  11.414  17.531  0.00  0.00    +0.000 A 
ATOM     19  N   UNL     1      -3.265  11.192  18.443  0.00  0.00    +0.000 NA
ATOM     20  C   UNL     1      -2.103  10.641  17.897  0.00  0.00    +0.000 A 
ATOM     21  C   UNL     1      -2.188  10.390  16.549  0.00  0.00    +0.000 A 
ATOM     22  S   UNL     1      -3.695  10.945  15.945  0.00  0.00    +0.000 S 
ATOM     23  H   UNL     1      -5.852  12.430  16.968  0.00  0.00    +0.000 HD
BRANCH  17  28
ATOM     24  C   UNL     1      -7.914  12.268  22.912  0.00  0.00    +0.000 C 
ATOM     25  C   UNL     1      -7.316  12.229  21.536  0.00  0.00    +0.000 A 
ATOM     26  C   UNL     1      -6.533  13.276  21.051  0.00  0.00    +0.000 A 
ATOM     27  C   UNL     1      -5.931  13.190  19.784  0.00  0.00    +0.000 A 
ATOM     28  C   UNL     1      -6.102  12.059  18.971  0.00  0.00    +0.000 A 
ATOM     29  C   UNL     1      -6.915  11.029  19.460  0.00  0.00    +0.000 A 
ATOM     30  C   UNL     1      -7.531  11.116  20.718  0.00  0.00    +0.000 A 
ENDBRANCH  17  28
ENDBRANCH   1  20
TORSDOF 4
ENDMDL
MODEL 6
REMARK VINA RESULT:      -7.5      3.715      7.122
REMARK  Name = 
REMARK  5 active torsions:
REMARK  status: ('A' for Active; 'I' for Inactive)
REMARK    1  A    between atoms: C_1  and  C_2
REMARK    2  A    between atoms: C_5  and  N_6
REMARK    3  A    between atoms: C_9  and  C_10
REMARK    4  A    between atoms: C_10  and  N_11
REMARK    5  A    between atoms: C_20  and  C_21
REMARK                            x       y       z     vdW  Elec       q    Type
REMARK                         _______ _______ _______ _____ _____    ______ ____
ROOT
ATOM      1  C   UNL     1       3.021   6.383  19.772  0.00  0.00    +0.000 C 
ENDROOT
BRANCH   1   2
ATOM      2  N   UNL     1       3.074   6.064  18.297  0.00  0.00    +0.000 NA
ATOM      3  C   UNL     1       1.879   5.176  17.992  0.00  0.00    +0.000 C 
ATOM      4  C   UNL     1       1.927   3.923  18.872  0.00  0.00    +0.000 A 
ATOM      5  C   UNL     1       0.953   3.700  19.846  0.00  0.00    +0.000 A 
ATOM      6  C   UNL     1       1.349   3.151  21.066  0.00  0.00    +0.000 A 
ATOM      7  C   UNL     1       2.683   2.785  21.276  0.00  0.00    +0.000 A 
ATOM      8  C   UNL     1       3.606   2.831  20.229  0.00  0.00    +0.000 A 
ATOM      9  C   UNL     1       3.212   3.361  19.001  0.00  0.00    +0.000 A 
ATOM     10  C   UNL     1       4.194   3.741  17.927  0.00  0.00    +0.000 C 
ATOM     11  C   UNL     1       4.328   5.289  17.932  0.00  0.00    +0.000 C 
BRANCH  11  12
ATOM     12  C   UNL     1       4.811   5.727  16.531  0.00  0.00    +0.000 C 
ATOM     13  N   UNL     1       5.102   4.687  15.684  0.00  0.00    +0.000 N 
ATOM     14  O   UNL     1       4.866   6.890  16.122  0.00  0.00    +0.000 OA
ATOM     15  H   UNL     1       5.317   3.795  16.119  0.00  0.00    +0.000 HD
ATOM     16  H   UNL     1       5.524   4.923  14.796  0.00  0.00    +0.000 HD
ENDBRANCH  11  12
ENDBRANCH   1   2
BRANCH   1  20
ATOM     17  N   UNL     1       0.551  10.513  20.092  0.00  0.00    +0.000 N 
ATOM     18  C   UNL     1       0.849   9.221  20.346  0.00  0.00    +0.000 A 
ATOM     19  N   UNL     1       1.859   8.542  19.837  0.00  0.00    +0.000 NA
ATOM     20  C   UNL     1       1.874   7.211  20.262  0.00  0.00    +0.000 A 
ATOM     21  C   UNL     1       0.883   6.905  21.162  0.00  0.00    +0.000 A 
ATOM     22  S   UNL     1      -0.137   8.265  21.394  0.00  0.00    +0.000 S 
ATOM     23  H   UNL     1      -0.409  10.803  20.216  0.00  0.00    +0.000 HD
BRANCH  17  28
ATOM     24  C   UNL     1       3.757  14.812  18.018  0.00  0.00    +0.000 C 
ATOM     25  C   UNL     1       2.981  13.662  18.590  0.00  0.00    +0.000 A 
ATOM     26  C   UNL     1       2.490  13.690  19.895  0.00  0.00    +0.000 A 
ATOM     27  C   UNL     1       1.714  12.628  20.389  0.00  0.00    +0.000 A 
ATOM     28  C   UNL     1       1.414  11.512  19.592  0.00  0.00    +0.000 A 
ATOM     29  C   UNL     1       1.939  11.486  18.294  0.00  0.00    +0.000 A 
ATOM     30  C   UNL     1       2.728  12.536  17.801  0.00  0.00    +0.000 A 
ENDBRANCH  17  28
ENDBRANCH   1  20
TORSDOF 4
ENDMDL
MODEL 7
REMARK VINA RESULT:      -7.5      3.930      7.498
REMARK  Name = 
REMARK  5 active torsions:
REMARK  status: ('A' for Active; 'I' for Inactive)
REMARK    1  A    between atoms: C_1  and  C_2
REMARK    2  A    between atoms: C_5  and  N_6
REMARK    3  A    between atoms: C_9  and  C_10
REMARK    4  A    between atoms: C_10  and  N_11
REMARK    5  A    between atoms: C_20  and  C_21
REMARK                            x       y       z     vdW  Elec       q    Type
REMARK                         _______ _______ _______ _____ _____    ______ ____
ROOT
ATOM      1  C   UNL     1       2.734   6.629  19.492  0.00  0.00    +0.000 C 
ENDROOT
BRANCH   1   2
ATOM      2  N   UNL     1       2.596   5.141  19.708  0.00  0.00    +0.000 NA
ATOM      3  C   UNL     1       3.997   4.590  19.911  0.00  0.00    +0.000 C 
ATOM      4  C   UNL     1       4.869   4.934  18.699  0.00  0.00    +0.000 A 
ATOM      5  C   UNL     1       5.953   5.804  18.826  0.00  0.00    +0.000 A 
ATOM      6  C   UNL     1       6.203   6.708  17.794  0.00  0.00    +0.000 A 
ATOM      7  C   UNL     1       5.413   6.695  16.638  0.00  0.00    +0.000 A 
ATOM      8  C   UNL     1       4.460   5.694  16.439  0.00  0.00    +0.000 A 
ATOM      9  C   UNL     1       4.218   4.776  17.460  0.00  0.00    +0.000 A 
ATOM     10  C   UNL     1       3.017   3.872  17.473  0.00  0.00    +0.000 C 
ATOM     11  C   UNL     1       1.999   4.448  18.496  0.00  0.00    +0.000 C 
BRANCH  11  12
ATOM     12  C   UNL     1       1.091   3.289  18.965  0.00  0.00    +0.000 C 
ATOM     13  N   UNL     1       0.591   3.441  20.234  0.00  0.00    +0.000 N 
ATOM     14  O   UNL     1       0.738   2.329  18.273  0.00  0.00    +0.000 OA
ATOM     15  H   UNL     1       1.106   4.061  20.852  0.00  0.00    +0.000 HD
ATOM     16  H   UNL     1       0.081   2.660  20.623  0.00  0.00    +0.000 HD
ENDBRANCH  11  12
ENDBRANCH   1   2
BRANCH   1  20
ATOM     17  N   UNL     1       0.702  10.926  20.306  0.00  0.00    +0.000 N 
ATOM     18  C   UNL     1       0.922   9.605  20.471  0.00  0.00    +0.000 A 
ATOM     19  N   UNL     1       1.785   8.869  19.797  0.00  0.00    +0.000 NA
ATOM     20  C   UNL     1       1.746   7.525  20.173  0.00  0.00    +0.000 A 
ATOM     21  C   UNL     1       0.874   7.260  21.199  0.00  0.00    +0.000 A 
ATOM     22  S   UNL     1       0.018   8.686  21.623  0.00  0.00    +0.000 S 
ATOM     23  H   UNL     1      -0.201  11.288  20.579  0.00  0.00    +0.000 HD
BRANCH  17  28
ATOM     24  C   UNL     1       3.927  15.034  17.899  0.00  0.00    +0.000 C 
ATOM     25  C   UNL     1       3.148  13.930  18.551  0.00  0.00    +0.000 A 
ATOM     26  C   UNL     1       2.808  13.975  19.903  0.00  0.00    +0.000 A 
ATOM     27  C   UNL     1       2.025  12.960  20.477  0.00  0.00    +0.000 A 
ATOM     28  C   UNL     1       1.567  11.874  19.716  0.00  0.00    +0.000 A 
ATOM     29  C   UNL     1       1.941  11.828  18.367  0.00  0.00    +0.000 A 
ATOM     30  C   UNL     1       2.736  12.830  17.792  0.00  0.00    +0.000 A 
ENDBRANCH  17  28
ENDBRANCH   1  20
TORSDOF 4
ENDMDL
MODEL 8
REMARK VINA RESULT:      -7.4      7.960     11.864
REMARK  Name = 
REMARK  5 active torsions:
REMARK  status: ('A' for Active; 'I' for Inactive)
REMARK    1  A    between atoms: C_1  and  C_2
REMARK    2  A    between atoms: C_5  and  N_6
REMARK    3  A    between atoms: C_9  and  C_10
REMARK    4  A    between atoms: C_10  and  N_11
REMARK    5  A    between atoms: C_20  and  C_21
REMARK                            x       y       z     vdW  Elec       q    Type
REMARK                         _______ _______ _______ _____ _____    ______ ____
ROOT
ATOM      1  C   UNL     1      -1.074  10.737  18.841  0.00  0.00    +0.000 C 
ENDROOT
BRANCH   1   2
ATOM      2  N   UNL     1      -0.196  11.943  19.076  0.00  0.00    +0.000 NA
ATOM      3  C   UNL     1       1.171  11.424  19.486  0.00  0.00    +0.000 C 
ATOM      4  C   UNL     1       1.037  10.538  20.729  0.00  0.00    +0.000 A 
ATOM      5  C   UNL     1       1.318   9.172  20.663  0.00  0.00    +0.000 A 
ATOM      6  C   UNL     1       0.507   8.293  21.381  0.00  0.00    +0.000 A 
ATOM      7  C   UNL     1      -0.524   8.785  22.190  0.00  0.00    +0.000 A 
ATOM      8  C   UNL     1      -0.669  10.158  22.401  0.00  0.00    +0.000 A 
ATOM      9  C   UNL     1       0.150  11.041  21.700  0.00  0.00    +0.000 A 
ATOM     10  C   UNL     1      -0.129  12.517  21.616  0.00  0.00    +0.000 C 
ATOM     11  C   UNL     1      -0.718  12.809  20.208  0.00  0.00    +0.000 C 
BRANCH  11  12
ATOM     12  C   UNL     1      -0.451  14.295  19.882  0.00  0.00    +0.000 C 
ATOM     13  N   UNL     1      -0.527  14.603  18.546  0.00  0.00    +0.000 N 
ATOM     14  O   UNL     1      -0.266  15.190  20.712  0.00  0.00    +0.000 OA
ATOM     15  H   UNL     1      -0.397  13.834  17.896  0.00  0.00    +0.000 HD
ATOM     16  H   UNL     1      -0.254  15.537  18.274  0.00  0.00    +0.000 HD
ENDBRANCH  11  12
ENDBRANCH   1   2
BRANCH   1  20
ATOM     17  N   UNL     1      -5.659  11.879  17.874  0.00  0.00    +0.000 N 
ATOM     18  C   UNL     1      -4.411  11.431  17.623  0.00  0.00    +0.000 A 
ATOM     19  N   UNL     1      -3.418  11.364  18.490  0.00  0.00    +0.000 NA
ATOM     20  C   UNL     1      -2.237  10.894  17.911  0.00  0.00    +0.000 A 
ATOM     21  C   UNL     1      -2.367  10.544  16.590  0.00  0.00    +0.000 A 
ATOM     22  S   UNL     1      -3.952  10.906  16.042  0.00  0.00    +0.000 S 
ATOM     23  H   UNL     1      -6.192  12.238  17.095  0.00  0.00    +0.000 HD
BRANCH  17  28
ATOM     24  C   UNL     1      -7.915  12.257  23.151  0.00  0.00    +0.000 C 
ATOM     25  C   UNL     1      -7.385  12.194  21.748  0.00  0.00    +0.000 A 
ATOM     26  C   UNL     1      -6.672  13.254  21.188  0.00  0.00    +0.000 A 
ATOM     27  C   UNL     1      -6.133  13.148  19.895  0.00  0.00    +0.000 A 
ATOM     28  C   UNL     1      -6.298  11.983  19.129  0.00  0.00    +0.000 A 
ATOM     29  C   UNL     1      -7.041  10.939  19.694  0.00  0.00    +0.000 A 
ATOM     30  C   UNL     1      -7.595  11.045  20.979  0.00  0.00    +0.000 A 
ENDBRANCH  17  28
ENDBRANCH   1  20
TORSDOF 4
ENDMDL
MODEL 9
REMARK VINA RESULT:      -7.3      3.699      7.388
REMARK  Name = 
REMARK  5 active torsions:
REMARK  status: ('A' for Active; 'I' for Inactive)
REMARK    1  A    between atoms: C_1  and  C_2
REMARK    2  A    between atoms: C_5  and  N_6
REMARK    3  A    between atoms: C_9  and  C_10
REMARK    4  A    between atoms: C_10  and  N_11
REMARK    5  A    between atoms: C_20  and  C_21
REMARK                            x       y       z     vdW  Elec       q    Type
REMARK                         _______ _______ _______ _____ _____    ______ ____
ROOT
ATOM      1  C   UNL     1       3.033   6.391  19.234  0.00  0.00    +0.000 C 
ENDROOT
BRANCH   1   2
ATOM      2  N   UNL     1       3.028   4.885  19.335  0.00  0.00    +0.000 NA
ATOM      3  C   UNL     1       4.469   4.448  19.536  0.00  0.00    +0.000 C 
ATOM      4  C   UNL     1       5.331   4.962  18.378  0.00  0.00    +0.000 A 
ATOM      5  C   UNL     1       6.328   5.914  18.600  0.00  0.00    +0.000 A 
ATOM      6  C   UNL     1       6.514   6.914  17.645  0.00  0.00    +0.000 A 
ATOM      7  C   UNL     1       5.754   6.918  16.470  0.00  0.00    +0.000 A 
ATOM      8  C   UNL     1       4.902   5.853  16.170  0.00  0.00    +0.000 A 
ATOM      9  C   UNL     1       4.724   4.842  17.113  0.00  0.00    +0.000 A 
ATOM     10  C   UNL     1       3.612   3.834  17.024  0.00  0.00    +0.000 C 
ATOM     11  C   UNL     1       2.524   4.235  18.058  0.00  0.00    +0.000 C 
BRANCH  11  12
ATOM     12  C   UNL     1       1.717   2.966  18.413  0.00  0.00    +0.000 C 
ATOM     13  N   UNL     1       2.244   1.803  17.911  0.00  0.00    +0.000 N 
ATOM     14  O   UNL     1       0.728   2.928  19.152  0.00  0.00    +0.000 OA
ATOM     15  H   UNL     1       2.857   1.894  17.107  0.00  0.00    +0.000 HD
ATOM     16  H   UNL     1       1.693   0.963  18.025  0.00  0.00    +0.000 HD
ENDBRANCH  11  12
ENDBRANCH   1   2
BRANCH   1  20
ATOM     17  N   UNL     1       0.586  10.399  20.334  0.00  0.00    +0.000 N 
ATOM     18  C   UNL     1       0.953   9.103  20.426  0.00  0.00    +0.000 A 
ATOM     19  N   UNL     1       1.861   8.498  19.684  0.00  0.00    +0.000 NA
ATOM     20  C   UNL     1       1.983   7.141  19.995  0.00  0.00    +0.000 A 
ATOM     21  C   UNL     1       1.188   6.736  21.038  0.00  0.00    +0.000 A 
ATOM     22  S   UNL     1       0.203   8.040  21.562  0.00  0.00    +0.000 S 
ATOM     23  H   UNL     1      -0.339  10.646  20.658  0.00  0.00    +0.000 HD
BRANCH  17  28
ATOM     24  C   UNL     1       3.883  14.504  18.022  0.00  0.00    +0.000 C 
ATOM     25  C   UNL     1       2.964  13.465  18.595  0.00  0.00    +0.000 A 
ATOM     26  C   UNL     1       2.582  12.343  17.859  0.00  0.00    +0.000 A 
ATOM     27  C   UNL     1       1.771  11.352  18.436  0.00  0.00    +0.000 A 
ATOM     28  C   UNL     1       1.318  11.461  19.760  0.00  0.00    +0.000 A 
ATOM     29  C   UNL     1       1.685  12.607  20.476  0.00  0.00    +0.000 A 
ATOM     30  C   UNL     1       2.483  13.607  19.900  0.00  0.00    +0.000 A 
ENDBRANCH  17  28
ENDBRANCH   1  20
TORSDOF 4
ENDMDL
