MODEL 1
REMARK VINA RESULT:      -9.1      0.000      0.000
REMARK  Name = 
REMARK  6 active torsions:
REMARK  status: ('A' for Active; 'I' for Inactive)
REMARK    1  A    between atoms: C_1  and  C_2
REMARK    2  A    between atoms: C_2  and  C_3
REMARK    3  A    between atoms: N_16  and  C_17
REMARK    4  A    between atoms: C_17  and  C_18
REMARK    5  A    between atoms: N_23  and  C_24
REMARK    6  A    between atoms: C_24  and  C_25
REMARK                            x       y       z     vdW  Elec       q    Type
REMARK                         _______ _______ _______ _____ _____    ______ ____
ROOT
ATOM      1  C   UNL     1       2.830   4.292  18.179  0.00  0.00    +0.000 C 
ATOM      2  C   UNL     1       3.758   5.479  17.951  0.00  0.00    +0.000 C 
ATOM      3  N   UNL     1       4.358   5.450  16.628  0.00  0.00    +0.000 N 
ATOM      4  C   UNL     1       5.702   5.725  16.663  0.00  0.00    +0.000 C 
ATOM      5  O   UNL     1       6.443   5.750  15.693  0.00  0.00    +0.000 OA
ATOM      6  N   UNL     1       6.075   5.907  17.953  0.00  0.00    +0.000 N 
ATOM      7  C   UNL     1       5.085   5.408  18.751  0.00  0.00    +0.000 C 
ATOM      8  O   UNL     1       5.215   5.044  19.913  0.00  0.00    +0.000 OA
ATOM      9  H   UNL     1       3.869   5.299  15.755  0.00  0.00    +0.000 HD
ENDROOT
BRANCH   2  10
ATOM     10  C   UNL     1       3.053   6.798  18.264  0.00  0.00    +0.000 A 
ATOM     11  C   UNL     1       2.991   7.857  17.350  0.00  0.00    +0.000 A 
ATOM     12  C   UNL     1       2.345   9.053  17.690  0.00  0.00    +0.000 A 
ATOM     13  C   UNL     1       1.748   9.224  18.951  0.00  0.00    +0.000 A 
ATOM     14  C   UNL     1       1.099  10.415  19.317  0.00  0.00    +0.000 A 
ATOM     15  C   UNL     1       0.524  10.556  20.583  0.00  0.00    +0.000 A 
ATOM     16  C   UNL     1       0.592   9.512  21.502  0.00  0.00    +0.000 A 
ATOM     17  C   UNL     1       1.226   8.323  21.152  0.00  0.00    +0.000 A 
ATOM     18  C   UNL     1       1.798   8.167  19.879  0.00  0.00    +0.000 A 
ATOM     19  C   UNL     1       2.425   6.970  19.516  0.00  0.00    +0.000 A 
ENDBRANCH   2  10
BRANCH   6  20
ATOM     20  C   UNL     1       7.414   6.215  18.396  0.00  0.00    +0.000 C 
BRANCH  20  21
ATOM     21  C   UNL     1       7.791   7.649  18.005  0.00  0.00    +0.000 C 
ATOM     22  O   UNL     1       7.426   8.148  16.942  0.00  0.00    +0.000 OA
ATOM     23  N   UNL     1       8.583   8.311  18.928  0.00  0.00    +0.000 N 
ATOM     24  C   UNL     1       8.903   9.643  18.977  0.00  0.00    +0.000 C 
ATOM     25  O   UNL     1       9.537  10.116  19.918  0.00  0.00    +0.000 OA
ATOM     26  N   UNL     1       8.442  10.405  17.946  0.00  0.00    +0.000 N 
ATOM     27  H   UNL     1       8.979   7.780  19.703  0.00  0.00    +0.000 HD
ATOM     28  H   UNL     1       8.063   9.910  17.141  0.00  0.00    +0.000 HD
BRANCH  26  29
ATOM     29  C   UNL     1       8.703  11.837  17.858  0.00  0.00    +0.000 C 
BRANCH  29  30
ATOM     30  C   UNL     1      10.168  12.279  17.719  0.00  0.00    +0.000 C 
ATOM     31  F   UNL     1      10.341  13.290  16.841  0.00  0.00    +0.000 F 
ATOM     32  F   UNL     1      10.633  12.718  18.917  0.00  0.00    +0.000 F 
ATOM     33  F   UNL     1      10.963  11.252  17.343  0.00  0.00    +0.000 F 
ENDBRANCH  29  30
ENDBRANCH  26  29
ENDBRANCH  20  21
ENDBRANCH   6  20
TORSDOF 5
ENDMDL
MODEL 2
REMARK VINA RESULT:      -8.9      2.814      4.089
REMARK  Name = 
REMARK  6 active torsions:
REMARK  status: ('A' for Active; 'I' for Inactive)
REMARK    1  A    between atoms: C_1  and  C_2
REMARK    2  A    between atoms: C_2  and  C_3
REMARK    3  A    between atoms: N_16  and  C_17
REMARK    4  A    between atoms: C_17  and  C_18
REMARK    5  A    between atoms: N_23  and  C_24
REMARK    6  A    between atoms: C_24  and  C_25
REMARK                            x       y       z     vdW  Elec       q    Type
REMARK                         _______ _______ _______ _____ _____    ______ ____
ROOT
ATOM      1  C   UNL     1       2.326   3.999  21.814  0.00  0.00    +0.000 C 
ATOM      2  C   UNL     1       2.221   4.240  20.313  0.00  0.00    +0.000 C 
ATOM      3  N   UNL     1       1.212   3.394  19.699  0.00  0.00    +0.000 N 
ATOM      4  C   UNL     1       1.657   2.822  18.534  0.00  0.00    +0.000 C 
ATOM      5  O   UNL     1       1.013   2.059  17.831  0.00  0.00    +0.000 OA
ATOM      6  N   UNL     1       2.941   3.201  18.326  0.00  0.00    +0.000 N 
ATOM      7  C   UNL     1       3.426   3.701  19.500  0.00  0.00    +0.000 C 
ATOM      8  O   UNL     1       4.608   3.778  19.814  0.00  0.00    +0.000 OA
ATOM      9  H   UNL     1       0.267   3.255  20.032  0.00  0.00    +0.000 HD
ENDROOT
BRANCH   2  10
ATOM     10  C   UNL     1       2.030   5.724  20.005  0.00  0.00    +0.000 A 
ATOM     11  C   UNL     1       2.532   6.326  18.845  0.00  0.00    +0.000 A 
ATOM     12  C   UNL     1       2.344   7.695  18.616  0.00  0.00    +0.000 A 
ATOM     13  C   UNL     1       1.653   8.500  19.539  0.00  0.00    +0.000 A 
ATOM     14  C   UNL     1       1.457   9.876  19.334  0.00  0.00    +0.000 A 
ATOM     15  C   UNL     1       0.774  10.649  20.278  0.00  0.00    +0.000 A 
ATOM     16  C   UNL     1       0.283  10.060  21.440  0.00  0.00    +0.000 A 
ATOM     17  C   UNL     1       0.465   8.697  21.655  0.00  0.00    +0.000 A 
ATOM     18  C   UNL     1       1.140   7.909  20.709  0.00  0.00    +0.000 A 
ATOM     19  C   UNL     1       1.314   6.535  20.912  0.00  0.00    +0.000 A 
ENDBRANCH   2  10
BRANCH   6  20
ATOM     20  C   UNL     1       3.754   2.802  17.201  0.00  0.00    +0.000 C 
BRANCH  20  21
ATOM     21  C   UNL     1       4.696   3.941  16.791  0.00  0.00    +0.000 C 
ATOM     22  O   UNL     1       4.288   4.936  16.194  0.00  0.00    +0.000 OA
ATOM     23  N   UNL     1       6.025   3.742  17.126  0.00  0.00    +0.000 N 
ATOM     24  C   UNL     1       7.056   4.644  17.094  0.00  0.00    +0.000 C 
ATOM     25  O   UNL     1       8.172   4.356  17.520  0.00  0.00    +0.000 OA
ATOM     26  N   UNL     1       6.754   5.878  16.603  0.00  0.00    +0.000 N 
ATOM     27  H   UNL     1       6.310   2.825  17.470  0.00  0.00    +0.000 HD
ATOM     28  H   UNL     1       5.855   5.980  16.134  0.00  0.00    +0.000 HD
BRANCH  26  29
ATOM     29  C   UNL     1       7.746   6.942  16.504  0.00  0.00    +0.000 C 
BRANCH  29  30
ATOM     30  C   UNL     1       7.830   7.938  17.671  0.00  0.00    +0.000 C 
ATOM     31  F   UNL     1       8.590   9.021  17.396  0.00  0.00    +0.000 F 
ATOM     32  F   UNL     1       6.589   8.398  17.974  0.00  0.00    +0.000 F 
ATOM     33  F   UNL     1       8.316   7.354  18.789  0.00  0.00    +0.000 F 
ENDBRANCH  29  30
ENDBRANCH  26  29
ENDBRANCH  20  21
ENDBRANCH   6  20
TORSDOF 5
ENDMDL
MODEL 3
REMARK VINA RESULT:      -8.7      2.853      4.415
REMARK  Name = 
REMARK  6 active torsions:
REMARK  status: ('A' for Active; 'I' for Inactive)
REMARK    1  A    between atoms: C_1  and  C_2
REMARK    2  A    between atoms: C_2  and  C_3
REMARK    3  A    between atoms: N_16  and  C_17
REMARK    4  A    between atoms: C_17  and  C_18
REMARK    5  A    between atoms: N_23  and  C_24
REMARK    6  A    between atoms: C_24  and  C_25
REMARK                            x       y       z     vdW  Elec       q    Type
REMARK                         _______ _______ _______ _____ _____    ______ ____
ROOT
ATOM      1  C   UNL     1       2.477   3.812  21.968  0.00  0.00    +0.000 C 
ATOM      2  C   UNL     1       2.225   4.149  20.503  0.00  0.00    +0.000 C 
ATOM      3  N   UNL     1       1.190   3.308  19.927  0.00  0.00    +0.000 N 
ATOM      4  C   UNL     1       1.541   2.831  18.688  0.00  0.00    +0.000 C 
ATOM      5  O   UNL     1       0.858   2.093  17.996  0.00  0.00    +0.000 OA
ATOM      6  N   UNL     1       2.788   3.270  18.391  0.00  0.00    +0.000 N 
ATOM      7  C   UNL     1       3.365   3.710  19.548  0.00  0.00    +0.000 C 
ATOM      8  O   UNL     1       4.568   3.808  19.757  0.00  0.00    +0.000 OA
ATOM      9  H   UNL     1       0.284   3.113  20.334  0.00  0.00    +0.000 HD
ENDROOT
BRANCH   2  10
ATOM     10  C   UNL     1       1.961   5.641  20.318  0.00  0.00    +0.000 A 
ATOM     11  C   UNL     1       1.274   6.411  21.264  0.00  0.00    +0.000 A 
ATOM     12  C   UNL     1       1.043   7.774  21.041  0.00  0.00    +0.000 A 
ATOM     13  C   UNL     1       1.489   8.405  19.867  0.00  0.00    +0.000 A 
ATOM     14  C   UNL     1       1.265   9.769  19.617  0.00  0.00    +0.000 A 
ATOM     15  C   UNL     1       1.714  10.363  18.435  0.00  0.00    +0.000 A 
ATOM     16  C   UNL     1       2.388   9.602  17.483  0.00  0.00    +0.000 A 
ATOM     17  C   UNL     1       2.623   8.250  17.718  0.00  0.00    +0.000 A 
ATOM     18  C   UNL     1       2.186   7.646  18.907  0.00  0.00    +0.000 A 
ATOM     19  C   UNL     1       2.430   6.291  19.156  0.00  0.00    +0.000 A 
ENDBRANCH   2  10
BRANCH   6  20
ATOM     20  C   UNL     1       3.504   2.977  17.172  0.00  0.00    +0.000 C 
BRANCH  20  21
ATOM     21  C   UNL     1       4.473   4.117  16.833  0.00  0.00    +0.000 C 
ATOM     22  O   UNL     1       4.072   5.231  16.503  0.00  0.00    +0.000 OA
ATOM     23  N   UNL     1       5.814   3.778  16.910  0.00  0.00    +0.000 N 
ATOM     24  C   UNL     1       6.905   4.606  16.881  0.00  0.00    +0.000 C 
ATOM     25  O   UNL     1       8.041   4.176  17.063  0.00  0.00    +0.000 OA
ATOM     26  N   UNL     1       6.645   5.928  16.680  0.00  0.00    +0.000 N 
ATOM     27  H   UNL     1       6.064   2.797  17.030  0.00  0.00    +0.000 HD
ATOM     28  H   UNL     1       5.700   6.172  16.387  0.00  0.00    +0.000 HD
BRANCH  26  29
ATOM     29  C   UNL     1       7.703   6.931  16.621  0.00  0.00    +0.000 C 
BRANCH  29  30
ATOM     30  C   UNL     1       7.784   7.938  17.778  0.00  0.00    +0.000 C 
ATOM     31  F   UNL     1       8.591   8.989  17.517  0.00  0.00    +0.000 F 
ATOM     32  F   UNL     1       6.551   8.445  18.035  0.00  0.00    +0.000 F 
ATOM     33  F   UNL     1       8.211   7.351  18.918  0.00  0.00    +0.000 F 
ENDBRANCH  29  30
ENDBRANCH  26  29
ENDBRANCH  20  21
ENDBRANCH   6  20
TORSDOF 5
ENDMDL
MODEL 4
REMARK VINA RESULT:      -8.7      1.168      1.346
REMARK  Name = 
REMARK  6 active torsions:
REMARK  status: ('A' for Active; 'I' for Inactive)
REMARK    1  A    between atoms: C_1  and  C_2
REMARK    2  A    between atoms: C_2  and  C_3
REMARK    3  A    between atoms: N_16  and  C_17
REMARK    4  A    between atoms: C_17  and  C_18
REMARK    5  A    between atoms: N_23  and  C_24
REMARK    6  A    between atoms: C_24  and  C_25
REMARK                            x       y       z     vdW  Elec       q    Type
REMARK                         _______ _______ _______ _____ _____    ______ ____
ROOT
ATOM      1  C   UNL     1       3.917   3.898  18.050  0.00  0.00    +0.000 C 
ATOM      2  C   UNL     1       4.627   5.236  17.883  0.00  0.00    +0.000 C 
ATOM      3  N   UNL     1       5.264   5.351  16.582  0.00  0.00    +0.000 N 
ATOM      4  C   UNL     1       6.537   5.857  16.673  0.00  0.00    +0.000 C 
ATOM      5  O   UNL     1       7.293   6.040  15.732  0.00  0.00    +0.000 OA
ATOM      6  N   UNL     1       6.830   6.065  17.980  0.00  0.00    +0.000 N 
ATOM      7  C   UNL     1       5.919   5.376  18.729  0.00  0.00    +0.000 C 
ATOM      8  O   UNL     1       6.074   5.008  19.886  0.00  0.00    +0.000 OA
ATOM      9  H   UNL     1       4.838   5.142  15.689  0.00  0.00    +0.000 HD
ENDROOT
BRANCH   2  10
ATOM     10  C   UNL     1       3.690   6.400  18.200  0.00  0.00    +0.000 A 
ATOM     11  C   UNL     1       3.525   7.492  17.340  0.00  0.00    +0.000 A 
ATOM     12  C   UNL     1       2.664   8.544  17.682  0.00  0.00    +0.000 A 
ATOM     13  C   UNL     1       1.949   8.534  18.893  0.00  0.00    +0.000 A 
ATOM     14  C   UNL     1       1.085   9.579  19.261  0.00  0.00    +0.000 A 
ATOM     15  C   UNL     1       0.397   9.542  20.477  0.00  0.00    +0.000 A 
ATOM     16  C   UNL     1       0.565   8.465  21.344  0.00  0.00    +0.000 A 
ATOM     17  C   UNL     1       1.414   7.419  20.990  0.00  0.00    +0.000 A 
ATOM     18  C   UNL     1       2.102   7.441  19.767  0.00  0.00    +0.000 A 
ATOM     19  C   UNL     1       2.946   6.387  19.399  0.00  0.00    +0.000 A 
ENDBRANCH   2  10
BRANCH   6  20
ATOM     20  C   UNL     1       8.079   6.591  18.478  0.00  0.00    +0.000 C 
BRANCH  20  21
ATOM     21  C   UNL     1       8.129   8.112  18.297  0.00  0.00    +0.000 C 
ATOM     22  O   UNL     1       7.398   8.695  17.499  0.00  0.00    +0.000 OA
ATOM     23  N   UNL     1       9.070   8.757  19.083  0.00  0.00    +0.000 N 
ATOM     24  C   UNL     1       9.213  10.101  19.311  0.00  0.00    +0.000 C 
ATOM     25  O   UNL     1      10.034  10.530  20.119  0.00  0.00    +0.000 OA
ATOM     26  N   UNL     1       8.366  10.916  18.623  0.00  0.00    +0.000 N 
ATOM     27  H   UNL     1       9.747   8.194  19.597  0.00  0.00    +0.000 HD
ATOM     28  H   UNL     1       7.830  10.491  17.868  0.00  0.00    +0.000 HD
BRANCH  26  29
ATOM     29  C   UNL     1       8.400  12.368  18.758  0.00  0.00    +0.000 C 
BRANCH  29  30
ATOM     30  C   UNL     1       8.096  13.200  17.503  0.00  0.00    +0.000 C 
ATOM     31  F   UNL     1       7.109  14.104  17.687  0.00  0.00    +0.000 F 
ATOM     32  F   UNL     1       9.201  13.897  17.134  0.00  0.00    +0.000 F 
ATOM     33  F   UNL     1       7.759  12.415  16.456  0.00  0.00    +0.000 F 
ENDBRANCH  29  30
ENDBRANCH  26  29
ENDBRANCH  20  21
ENDBRANCH   6  20
TORSDOF 5
ENDMDL
MODEL 5
REMARK VINA RESULT:      -8.6      2.019      2.978
REMARK  Name = 
REMARK  6 active torsions:
REMARK  status: ('A' for Active; 'I' for Inactive)
REMARK    1  A    between atoms: C_1  and  C_2
REMARK    2  A    between atoms: C_2  and  C_3
REMARK    3  A    between atoms: N_16  and  C_17
REMARK    4  A    between atoms: C_17  and  C_18
REMARK    5  A    between atoms: N_23  and  C_24
REMARK    6  A    between atoms: C_24  and  C_25
REMARK                            x       y       z     vdW  Elec       q    Type
REMARK                         _______ _______ _______ _____ _____    ______ ____
ROOT
ATOM      1  C   UNL     1       2.062   4.435  21.210  0.00  0.00    +0.000 C 
ATOM      2  C   UNL     1       2.363   4.819  19.766  0.00  0.00    +0.000 C 
ATOM      3  N   UNL     1       1.687   3.945  18.822  0.00  0.00    +0.000 N 
ATOM      4  C   UNL     1       2.516   3.545  17.804  0.00  0.00    +0.000 C 
ATOM      5  O   UNL     1       2.202   2.798  16.890  0.00  0.00    +0.000 OA
ATOM      6  N   UNL     1       3.748   4.070  18.014  0.00  0.00    +0.000 N 
ATOM      7  C   UNL     1       3.809   4.491  19.312  0.00  0.00    +0.000 C 
ATOM      8  O   UNL     1       4.831   4.652  19.966  0.00  0.00    +0.000 OA
ATOM      9  H   UNL     1       0.711   3.678  18.849  0.00  0.00    +0.000 HD
ENDROOT
BRANCH   2  10
ATOM     10  C   UNL     1       2.083   6.301  19.520  0.00  0.00    +0.000 A 
ATOM     11  C   UNL     1       2.329   6.923  18.291  0.00  0.00    +0.000 A 
ATOM     12  C   UNL     1       2.069   8.289  18.120  0.00  0.00    +0.000 A 
ATOM     13  C   UNL     1       1.561   9.070  19.172  0.00  0.00    +0.000 A 
ATOM     14  C   UNL     1       1.298  10.442  19.027  0.00  0.00    +0.000 A 
ATOM     15  C   UNL     1       0.801  11.192  20.097  0.00  0.00    +0.000 A 
ATOM     16  C   UNL     1       0.565  10.583  21.327  0.00  0.00    +0.000 A 
ATOM     17  C   UNL     1       0.815   9.223  21.485  0.00  0.00    +0.000 A 
ATOM     18  C   UNL     1       1.304   8.458  20.414  0.00  0.00    +0.000 A 
ATOM     19  C   UNL     1       1.545   7.088  20.562  0.00  0.00    +0.000 A 
ENDBRANCH   2  10
BRANCH   6  20
ATOM     20  C   UNL     1       4.893   3.874  17.156  0.00  0.00    +0.000 C 
BRANCH  20  21
ATOM     21  C   UNL     1       5.895   5.021  17.331  0.00  0.00    +0.000 C 
ATOM     22  O   UNL     1       5.800   6.068  16.694  0.00  0.00    +0.000 OA
ATOM     23  N   UNL     1       6.911   4.768  18.238  0.00  0.00    +0.000 N 
ATOM     24  C   UNL     1       7.819   5.647  18.769  0.00  0.00    +0.000 C 
ATOM     25  O   UNL     1       8.605   5.303  19.647  0.00  0.00    +0.000 OA
ATOM     26  N   UNL     1       7.762   6.922  18.293  0.00  0.00    +0.000 N 
ATOM     27  H   UNL     1       7.017   3.821  18.602  0.00  0.00    +0.000 HD
ATOM     28  H   UNL     1       7.189   7.079  17.464  0.00  0.00    +0.000 HD
BRANCH  26  29
ATOM     29  C   UNL     1       8.663   7.969  18.759  0.00  0.00    +0.000 C 
BRANCH  29  30
ATOM     30  C   UNL     1       8.421   9.392  18.236  0.00  0.00    +0.000 C 
ATOM     31  F   UNL     1       7.230   9.539  17.615  0.00  0.00    +0.000 F 
ATOM     32  F   UNL     1       8.433  10.272  19.270  0.00  0.00    +0.000 F 
ATOM     33  F   UNL     1       9.393   9.779  17.380  0.00  0.00    +0.000 F 
ENDBRANCH  29  30
ENDBRANCH  26  29
ENDBRANCH  20  21
ENDBRANCH   6  20
TORSDOF 5
ENDMDL
MODEL 6
REMARK VINA RESULT:      -8.5      0.910      1.172
REMARK  Name = 
REMARK  6 active torsions:
REMARK  status: ('A' for Active; 'I' for Inactive)
REMARK    1  A    between atoms: C_1  and  C_2
REMARK    2  A    between atoms: C_2  and  C_3
REMARK    3  A    between atoms: N_16  and  C_17
REMARK    4  A    between atoms: C_17  and  C_18
REMARK    5  A    between atoms: N_23  and  C_24
REMARK    6  A    between atoms: C_24  and  C_25
REMARK                            x       y       z     vdW  Elec       q    Type
REMARK                         _______ _______ _______ _____ _____    ______ ____
ROOT
ATOM      1  C   UNL     1       3.206   3.738  19.524  0.00  0.00    +0.000 C 
ATOM      2  C   UNL     1       3.986   4.723  18.662  0.00  0.00    +0.000 C 
ATOM      3  N   UNL     1       4.252   4.189  17.337  0.00  0.00    +0.000 N 
ATOM      4  C   UNL     1       5.549   4.406  16.943  0.00  0.00    +0.000 C 
ATOM      5  O   UNL     1       6.033   4.046  15.882  0.00  0.00    +0.000 OA
ATOM      6  N   UNL     1       6.209   5.033  17.947  0.00  0.00    +0.000 N 
ATOM      7  C   UNL     1       5.468   4.898  19.085  0.00  0.00    +0.000 C 
ATOM      8  O   UNL     1       5.892   4.980  20.231  0.00  0.00    +0.000 OA
ATOM      9  H   UNL     1       3.577   3.748  16.726  0.00  0.00    +0.000 HD
ENDROOT
BRANCH   2  10
ATOM     10  C   UNL     1       3.306   6.090  18.635  0.00  0.00    +0.000 A 
ATOM     11  C   UNL     1       3.414   6.967  17.549  0.00  0.00    +0.000 A 
ATOM     12  C   UNL     1       2.783   8.217  17.578  0.00  0.00    +0.000 A 
ATOM     13  C   UNL     1       2.032   8.627  18.693  0.00  0.00    +0.000 A 
ATOM     14  C   UNL     1       1.395   9.878  18.749  0.00  0.00    +0.000 A 
ATOM     15  C   UNL     1       0.663  10.259  19.877  0.00  0.00    +0.000 A 
ATOM     16  C   UNL     1       0.562   9.398  20.967  0.00  0.00    +0.000 A 
ATOM     17  C   UNL     1       1.182   8.153  20.925  0.00  0.00    +0.000 A 
ATOM     18  C   UNL     1       1.911   7.756  19.792  0.00  0.00    +0.000 A 
ATOM     19  C   UNL     1       2.526   6.500  19.738  0.00  0.00    +0.000 A 
ENDBRANCH   2  10
BRANCH   6  20
ATOM     20  C   UNL     1       7.597   5.430  17.908  0.00  0.00    +0.000 C 
BRANCH  20  21
ATOM     21  C   UNL     1       7.715   6.938  17.657  0.00  0.00    +0.000 C 
ATOM     22  O   UNL     1       7.177   7.479  16.694  0.00  0.00    +0.000 OA
ATOM     23  N   UNL     1       8.487   7.619  18.584  0.00  0.00    +0.000 N 
ATOM     24  C   UNL     1       8.609   8.973  18.762  0.00  0.00    +0.000 C 
ATOM     25  O   UNL     1       9.254   9.440  19.697  0.00  0.00    +0.000 OA
ATOM     26  N   UNL     1       7.940   9.754  17.869  0.00  0.00    +0.000 N 
ATOM     27  H   UNL     1       9.032   7.080  19.257  0.00  0.00    +0.000 HD
ATOM     28  H   UNL     1       7.561   9.290  17.044  0.00  0.00    +0.000 HD
BRANCH  26  29
ATOM     29  C   UNL     1       7.975  11.210  17.928  0.00  0.00    +0.000 C 
BRANCH  29  30
ATOM     30  C   UNL     1       9.352  11.886  17.841  0.00  0.00    +0.000 C 
ATOM     31  F   UNL     1       9.827  12.287  19.041  0.00  0.00    +0.000 F 
ATOM     32  F   UNL     1      10.261  11.015  17.332  0.00  0.00    +0.000 F 
ATOM     33  F   UNL     1       9.329  12.956  17.017  0.00  0.00    +0.000 F 
ENDBRANCH  29  30
ENDBRANCH  26  29
ENDBRANCH  20  21
ENDBRANCH   6  20
TORSDOF 5
ENDMDL
MODEL 7
REMARK VINA RESULT:      -8.5      4.909      7.206
REMARK  Name = 
REMARK  6 active torsions:
REMARK  status: ('A' for Active; 'I' for Inactive)
REMARK    1  A    between atoms: C_1  and  C_2
REMARK    2  A    between atoms: C_2  and  C_3
REMARK    3  A    between atoms: N_16  and  C_17
REMARK    4  A    between atoms: C_17  and  C_18
REMARK    5  A    between atoms: N_23  and  C_24
REMARK    6  A    between atoms: C_24  and  C_25
REMARK                            x       y       z     vdW  Elec       q    Type
REMARK                         _______ _______ _______ _____ _____    ______ ____
ROOT
ATOM      1  C   UNL     1       3.436   1.705  17.448  0.00  0.00    +0.000 C 
ATOM      2  C   UNL     1       3.462   2.859  18.443  0.00  0.00    +0.000 C 
ATOM      3  N   UNL     1       3.736   2.401  19.795  0.00  0.00    +0.000 N 
ATOM      4  C   UNL     1       2.900   2.982  20.716  0.00  0.00    +0.000 C 
ATOM      5  O   UNL     1       2.910   2.760  21.916  0.00  0.00    +0.000 OA
ATOM      6  N   UNL     1       2.033   3.795  20.065  0.00  0.00    +0.000 N 
ATOM      7  C   UNL     1       2.068   3.471  18.739  0.00  0.00    +0.000 C 
ATOM      8  O   UNL     1       1.184   3.696  17.922  0.00  0.00    +0.000 OA
ATOM      9  H   UNL     1       4.476   1.769  20.072  0.00  0.00    +0.000 HD
ENDROOT
BRANCH   2  10
ATOM     10  C   UNL     1       4.408   3.965  17.979  0.00  0.00    +0.000 A 
ATOM     11  C   UNL     1       4.329   4.543  16.707  0.00  0.00    +0.000 A 
ATOM     12  C   UNL     1       5.230   5.545  16.323  0.00  0.00    +0.000 A 
ATOM     13  C   UNL     1       6.236   5.993  17.197  0.00  0.00    +0.000 A 
ATOM     14  C   UNL     1       7.155   6.992  16.834  0.00  0.00    +0.000 A 
ATOM     15  C   UNL     1       8.148   7.408  17.724  0.00  0.00    +0.000 A 
ATOM     16  C   UNL     1       8.241   6.829  18.987  0.00  0.00    +0.000 A 
ATOM     17  C   UNL     1       7.335   5.842  19.365  0.00  0.00    +0.000 A 
ATOM     18  C   UNL     1       6.326   5.425  18.482  0.00  0.00    +0.000 A 
ATOM     19  C   UNL     1       5.403   4.443  18.860  0.00  0.00    +0.000 A 
ENDBRANCH   2  10
BRANCH   6  20
ATOM     20  C   UNL     1       0.999   4.582  20.695  0.00  0.00    +0.000 C 
BRANCH  20  21
ATOM     21  C   UNL     1       1.291   6.078  20.532  0.00  0.00    +0.000 C 
ATOM     22  O   UNL     1       2.180   6.488  19.788  0.00  0.00    +0.000 OA
ATOM     23  N   UNL     1       0.493   6.910  21.300  0.00  0.00    +0.000 N 
ATOM     24  C   UNL     1       0.358   8.272  21.223  0.00  0.00    +0.000 C 
ATOM     25  O   UNL     1      -0.469   8.873  21.904  0.00  0.00    +0.000 OA
ATOM     26  N   UNL     1       1.163   8.900  20.322  0.00  0.00    +0.000 N 
ATOM     27  H   UNL     1      -0.107   6.492  22.012  0.00  0.00    +0.000 HD
ATOM     28  H   UNL     1       1.919   8.349  19.916  0.00  0.00    +0.000 HD
BRANCH  26  29
ATOM     29  C   UNL     1       1.136  10.345  20.128  0.00  0.00    +0.000 C 
BRANCH  29  30
ATOM     30  C   UNL     1       0.149  10.898  19.089  0.00  0.00    +0.000 C 
ATOM     31  F   UNL     1      -0.223   9.985  18.166  0.00  0.00    +0.000 F 
ATOM     32  F   UNL     1      -0.986  11.314  19.708  0.00  0.00    +0.000 F 
ATOM     33  F   UNL     1       0.657  11.970  18.442  0.00  0.00    +0.000 F 
ENDBRANCH  29  30
ENDBRANCH  26  29
ENDBRANCH  20  21
ENDBRANCH   6  20
TORSDOF 5
ENDMDL
MODEL 8
REMARK VINA RESULT:      -8.4      1.636      2.534
REMARK  Name = 
REMARK  6 active torsions:
REMARK  status: ('A' for Active; 'I' for Inactive)
REMARK    1  A    between atoms: C_1  and  C_2
REMARK    2  A    between atoms: C_2  and  C_3
REMARK    3  A    between atoms: N_16  and  C_17
REMARK    4  A    between atoms: C_17  and  C_18
REMARK    5  A    between atoms: N_23  and  C_24
REMARK    6  A    between atoms: C_24  and  C_25
REMARK                            x       y       z     vdW  Elec       q    Type
REMARK                         _______ _______ _______ _____ _____    ______ ____
ROOT
ATOM      1  C   UNL     1       2.084   3.193  18.125  0.00  0.00    +0.000 C 
ATOM      2  C   UNL     1       3.169   4.264  18.132  0.00  0.00    +0.000 C 
ATOM      3  N   UNL     1       3.736   4.467  16.809  0.00  0.00    +0.000 N 
ATOM      4  C   UNL     1       5.106   4.541  16.841  0.00  0.00    +0.000 C 
ATOM      5  O   UNL     1       5.827   4.693  15.867  0.00  0.00    +0.000 OA
ATOM      6  N   UNL     1       5.522   4.361  18.118  0.00  0.00    +0.000 N 
ATOM      7  C   UNL     1       4.484   3.826  18.826  0.00  0.00    +0.000 C 
ATOM      8  O   UNL     1       4.580   3.184  19.864  0.00  0.00    +0.000 OA
ATOM      9  H   UNL     1       3.216   4.594  15.951  0.00  0.00    +0.000 HD
ENDROOT
BRANCH   2  10
ATOM     10  C   UNL     1       2.665   5.554  18.776  0.00  0.00    +0.000 A 
ATOM     11  C   UNL     1       2.239   5.617  20.108  0.00  0.00    +0.000 A 
ATOM     12  C   UNL     1       1.771   6.822  20.649  0.00  0.00    +0.000 A 
ATOM     13  C   UNL     1       1.713   7.994  19.873  0.00  0.00    +0.000 A 
ATOM     14  C   UNL     1       1.242   9.212  20.391  0.00  0.00    +0.000 A 
ATOM     15  C   UNL     1       1.189  10.356  19.589  0.00  0.00    +0.000 A 
ATOM     16  C   UNL     1       1.599  10.298  18.260  0.00  0.00    +0.000 A 
ATOM     17  C   UNL     1       2.073   9.099  17.734  0.00  0.00    +0.000 A 
ATOM     18  C   UNL     1       2.141   7.947  18.533  0.00  0.00    +0.000 A 
ATOM     19  C   UNL     1       2.629   6.742  18.015  0.00  0.00    +0.000 A 
ENDBRANCH   2  10
BRANCH   6  20
ATOM     20  C   UNL     1       6.899   4.371  18.553  0.00  0.00    +0.000 C 
BRANCH  20  21
ATOM     21  C   UNL     1       7.404   5.812  18.699  0.00  0.00    +0.000 C 
ATOM     22  O   UNL     1       8.244   6.121  19.541  0.00  0.00    +0.000 OA
ATOM     23  N   UNL     1       6.822   6.719  17.829  0.00  0.00    +0.000 N 
ATOM     24  C   UNL     1       7.201   8.009  17.564  0.00  0.00    +0.000 C 
ATOM     25  O   UNL     1       6.652   8.671  16.686  0.00  0.00    +0.000 OA
ATOM     26  N   UNL     1       8.243   8.488  18.300  0.00  0.00    +0.000 N 
ATOM     27  H   UNL     1       6.019   6.420  17.275  0.00  0.00    +0.000 HD
ATOM     28  H   UNL     1       8.533   7.931  19.103  0.00  0.00    +0.000 HD
BRANCH  26  29
ATOM     29  C   UNL     1       8.758   9.842  18.134  0.00  0.00    +0.000 C 
BRANCH  29  30
ATOM     30  C   UNL     1       9.344  10.530  19.376  0.00  0.00    +0.000 C 
ATOM     31  F   UNL     1       9.193   9.810  20.508  0.00  0.00    +0.000 F 
ATOM     32  F   UNL     1      10.679  10.721  19.210  0.00  0.00    +0.000 F 
ATOM     33  F   UNL     1       8.796  11.749  19.574  0.00  0.00    +0.000 F 
ENDBRANCH  29  30
ENDBRANCH  26  29
ENDBRANCH  20  21
ENDBRANCH   6  20
TORSDOF 5
ENDMDL
MODEL 9
REMARK VINA RESULT:      -8.3      1.309      2.208
REMARK  Name = 
REMARK  6 active torsions:
REMARK  status: ('A' for Active; 'I' for Inactive)
REMARK    1  A    between atoms: C_1  and  C_2
REMARK    2  A    between atoms: C_2  and  C_3
REMARK    3  A    between atoms: N_16  and  C_17
REMARK    4  A    between atoms: C_17  and  C_18
REMARK    5  A    between atoms: N_23  and  C_24
REMARK    6  A    between atoms: C_24  and  C_25
REMARK                            x       y       z     vdW  Elec       q    Type
REMARK                         _______ _______ _______ _____ _____    ______ ____
ROOT
ATOM      1  C   UNL     1       3.103   3.162  17.489  0.00  0.00    +0.000 C 
ATOM      2  C   UNL     1       4.025   4.371  17.599  0.00  0.00    +0.000 C 
ATOM      3  N   UNL     1       4.513   4.798  16.299  0.00  0.00    +0.000 N 
ATOM      4  C   UNL     1       5.860   5.066  16.316  0.00  0.00    +0.000 C 
ATOM      5  O   UNL     1       6.519   5.427  15.354  0.00  0.00    +0.000 OA
ATOM      6  N   UNL     1       6.339   4.810  17.557  0.00  0.00    +0.000 N 
ATOM      7  C   UNL     1       5.411   4.056  18.218  0.00  0.00    +0.000 C 
ATOM      8  O   UNL     1       5.631   3.324  19.175  0.00  0.00    +0.000 OA
ATOM      9  H   UNL     1       3.953   4.942  15.469  0.00  0.00    +0.000 HD
ENDROOT
BRANCH   2  10
ATOM     10  C   UNL     1       3.364   5.496  18.393  0.00  0.00    +0.000 A 
ATOM     11  C   UNL     1       3.039   5.374  19.750  0.00  0.00    +0.000 A 
ATOM     12  C   UNL     1       2.419   6.430  20.430  0.00  0.00    +0.000 A 
ATOM     13  C   UNL     1       2.105   7.634  19.775  0.00  0.00    +0.000 A 
ATOM     14  C   UNL     1       1.479   8.705  20.434  0.00  0.00    +0.000 A 
ATOM     15  C   UNL     1       1.172   9.884  19.750  0.00  0.00    +0.000 A 
ATOM     16  C   UNL     1       1.481  10.009  18.398  0.00  0.00    +0.000 A 
ATOM     17  C   UNL     1       2.106   8.959  17.732  0.00  0.00    +0.000 A 
ATOM     18  C   UNL     1       2.429   7.773  18.412  0.00  0.00    +0.000 A 
ATOM     19  C   UNL     1       3.070   6.719  17.752  0.00  0.00    +0.000 A 
ENDBRANCH   2  10
BRANCH   6  20
ATOM     20  C   UNL     1       7.714   4.971  17.967  0.00  0.00    +0.000 C 
BRANCH  20  21
ATOM     21  C   UNL     1       7.935   6.369  18.559  0.00  0.00    +0.000 C 
ATOM     22  O   UNL     1       8.396   6.530  19.687  0.00  0.00    +0.000 OA
ATOM     23  N   UNL     1       7.555   7.413  17.732  0.00  0.00    +0.000 N 
ATOM     24  C   UNL     1       7.817   8.751  17.873  0.00  0.00    +0.000 C 
ATOM     25  O   UNL     1       7.504   9.561  17.004  0.00  0.00    +0.000 OA
ATOM     26  N   UNL     1       8.477   9.112  19.010  0.00  0.00    +0.000 N 
ATOM     27  H   UNL     1       7.032   7.199  16.883  0.00  0.00    +0.000 HD
ATOM     28  H   UNL     1       8.558   8.406  19.739  0.00  0.00    +0.000 HD
BRANCH  26  29
ATOM     29  C   UNL     1       8.823  10.498  19.302  0.00  0.00    +0.000 C 
BRANCH  29  30
ATOM     30  C   UNL     1      10.081  11.067  18.627  0.00  0.00    +0.000 C 
ATOM     31  F   UNL     1      11.214  10.835  19.326  0.00  0.00    +0.000 F 
ATOM     32  F   UNL     1      10.249  10.495  17.408  0.00  0.00    +0.000 F 
ATOM     33  F   UNL     1       9.976  12.399  18.424  0.00  0.00    +0.000 F 
ENDBRANCH  29  30
ENDBRANCH  26  29
ENDBRANCH  20  21
ENDBRANCH   6  20
TORSDOF 5
ENDMDL
