MODEL 1
REMARK VINA RESULT:      -9.3      0.000      0.000
REMARK  Name = 
REMARK  3 active torsions:
REMARK  status: ('A' for Active; 'I' for Inactive)
REMARK    1  A    between atoms: C_2  and  C_13
REMARK    2  A    between atoms: N_3  and  C_4
REMARK    3  A    between atoms: C_17  and  C_18
REMARK                            x       y       z     vdW  Elec       q    Type
REMARK                         _______ _______ _______ _____ _____    ______ ____
ROOT
ATOM      1  C   UNL     1       0.923   9.208  20.532  0.00  0.00    +0.000 A 
ATOM      2  C   UNL     1       1.002   9.418  21.924  0.00  0.00    +0.000 A 
ATOM      3  N   UNL     1       0.168  10.356  22.366  0.00  0.00    +0.000 NA
ATOM      4  N   UNL     1      -0.472  10.798  21.252  0.00  0.00    +0.000 N 
ATOM      5  C   UNL     1      -1.422  11.831  21.149  0.00  0.00    +0.000 A 
ATOM      6  C   UNL     1      -1.956  12.120  19.950  0.00  0.00    +0.000 A 
ATOM      7  C   UNL     1      -1.484  11.281  18.816  0.00  0.00    +0.000 A 
ATOM      8  N   UNL     1      -0.601  10.329  18.872  0.00  0.00    +0.000 NA
ATOM      9  C   UNL     1      -0.064  10.084  20.112  0.00  0.00    +0.000 A 
ENDROOT
BRANCH   5  10
ATOM     10  C   UNL     1      -1.821  12.612  22.331  0.00  0.00    +0.000 A 
ATOM     11  C   UNL     1      -0.997  13.636  22.816  0.00  0.00    +0.000 A 
ATOM     12  C   UNL     1      -1.407  14.415  23.900  0.00  0.00    +0.000 A 
ATOM     13  C   UNL     1      -2.637  14.175  24.510  0.00  0.00    +0.000 A 
ATOM     14  C   UNL     1      -3.454  13.146  24.047  0.00  0.00    +0.000 A 
ATOM     15  C   UNL     1      -3.048  12.363  22.963  0.00  0.00    +0.000 A 
ENDBRANCH   5  10
BRANCH   1  17
ATOM     16  O   UNL     1       1.985   8.479  18.578  0.00  0.00    +0.000 OA
ATOM     17  C   UNL     1       1.720   8.274  19.760  0.00  0.00    +0.000 C 
ATOM     18  N   UNL     1       2.151   7.161  20.438  0.00  0.00    +0.000 N 
ATOM     19  H   UNL     1       1.833   7.033  21.395  0.00  0.00    +0.000 HD
BRANCH  18  20
ATOM     20  C   UNL     1       2.926   6.126  19.802  0.00  0.00    +0.000 C 
ATOM     21  C   UNL     1       3.314   6.482  18.351  0.00  0.00    +0.000 C 
ATOM     22  C   UNL     1       3.415   5.152  17.589  0.00  0.00    +0.000 C 
ATOM     23  C   UNL     1       2.412   4.319  18.323  0.00  0.00    +0.000 A 
ATOM     24  C   UNL     1       1.827   3.132  17.914  0.00  0.00    +0.000 A 
ATOM     25  C   UNL     1       0.948   2.491  18.790  0.00  0.00    +0.000 A 
ATOM     26  C   UNL     1       0.683   3.027  20.059  0.00  0.00    +0.000 A 
ATOM     27  C   UNL     1       1.288   4.218  20.468  0.00  0.00    +0.000 A 
ATOM     28  C   UNL     1       2.139   4.863  19.584  0.00  0.00    +0.000 A 
ENDBRANCH  18  20
ENDBRANCH   1  17
TORSDOF 3
ENDMDL
MODEL 2
REMARK VINA RESULT:      -9.3      2.531      4.106
REMARK  Name = 
REMARK  3 active torsions:
REMARK  status: ('A' for Active; 'I' for Inactive)
REMARK    1  A    between atoms: C_2  and  C_13
REMARK    2  A    between atoms: N_3  and  C_4
REMARK    3  A    between atoms: C_17  and  C_18
REMARK                            x       y       z     vdW  Elec       q    Type
REMARK                         _______ _______ _______ _____ _____    ______ ____
ROOT
ATOM      1  C   UNL     1       2.320   6.625  19.952  0.00  0.00    +0.000 A 
ATOM      2  C   UNL     1       1.499   6.682  21.097  0.00  0.00    +0.000 A 
ATOM      3  N   UNL     1       0.790   7.803  21.185  0.00  0.00    +0.000 NA
ATOM      4  N   UNL     1       1.150   8.523  20.091  0.00  0.00    +0.000 N 
ATOM      5  C   UNL     1       0.735   9.819  19.728  0.00  0.00    +0.000 A 
ATOM      6  C   UNL     1       1.199  10.367  18.592  0.00  0.00    +0.000 A 
ATOM      7  C   UNL     1       2.122   9.516  17.797  0.00  0.00    +0.000 A 
ATOM      8  N   UNL     1       2.536   8.323  18.106  0.00  0.00    +0.000 NA
ATOM      9  C   UNL     1       2.057   7.811  19.287  0.00  0.00    +0.000 A 
ENDROOT
BRANCH   5  10
ATOM     10  C   UNL     1      -0.180  10.588  20.588  0.00  0.00    +0.000 A 
ATOM     11  C   UNL     1      -0.074  10.512  21.983  0.00  0.00    +0.000 A 
ATOM     12  C   UNL     1      -0.904  11.289  22.794  0.00  0.00    +0.000 A 
ATOM     13  C   UNL     1      -1.844  12.142  22.221  0.00  0.00    +0.000 A 
ATOM     14  C   UNL     1      -1.970  12.209  20.834  0.00  0.00    +0.000 A 
ATOM     15  C   UNL     1      -1.143  11.432  20.019  0.00  0.00    +0.000 A 
ENDBRANCH   5  10
BRANCH   1  17
ATOM     16  O   UNL     1       2.878   4.370  19.670  0.00  0.00    +0.000 OA
ATOM     17  C   UNL     1       3.222   5.547  19.596  0.00  0.00    +0.000 C 
ATOM     18  N   UNL     1       4.469   5.933  19.172  0.00  0.00    +0.000 N 
ATOM     19  H   UNL     1       4.697   6.924  19.202  0.00  0.00    +0.000 HD
BRANCH  18  20
ATOM     20  C   UNL     1       5.488   4.980  18.811  0.00  0.00    +0.000 C 
ATOM     21  C   UNL     1       6.905   5.454  19.196  0.00  0.00    +0.000 C 
ATOM     22  C   UNL     1       7.866   4.834  18.169  0.00  0.00    +0.000 C 
ATOM     23  C   UNL     1       6.986   4.752  16.961  0.00  0.00    +0.000 A 
ATOM     24  C   UNL     1       7.365   4.571  15.641  0.00  0.00    +0.000 A 
ATOM     25  C   UNL     1       6.365   4.471  14.673  0.00  0.00    +0.000 A 
ATOM     26  C   UNL     1       5.011   4.530  15.034  0.00  0.00    +0.000 A 
ATOM     27  C   UNL     1       4.637   4.700  16.369  0.00  0.00    +0.000 A 
ATOM     28  C   UNL     1       5.635   4.825  17.323  0.00  0.00    +0.000 A 
ENDBRANCH  18  20
ENDBRANCH   1  17
TORSDOF 3
ENDMDL
MODEL 3
REMARK VINA RESULT:      -9.1      1.153      2.051
REMARK  Name = 
REMARK  3 active torsions:
REMARK  status: ('A' for Active; 'I' for Inactive)
REMARK    1  A    between atoms: C_2  and  C_13
REMARK    2  A    between atoms: N_3  and  C_4
REMARK    3  A    between atoms: C_17  and  C_18
REMARK                            x       y       z     vdW  Elec       q    Type
REMARK                         _______ _______ _______ _____ _____    ______ ____
ROOT
ATOM      1  C   UNL     1       1.092   9.465  19.575  0.00  0.00    +0.000 A 
ATOM      2  C   UNL     1       0.736  10.668  18.932  0.00  0.00    +0.000 A 
ATOM      3  N   UNL     1       0.050  11.501  19.710  0.00  0.00    +0.000 NA
ATOM      4  N   UNL     1      -0.073  10.844  20.892  0.00  0.00    +0.000 N 
ATOM      5  C   UNL     1      -0.764  11.256  22.047  0.00  0.00    +0.000 A 
ATOM      6  C   UNL     1      -0.765  10.465  23.134  0.00  0.00    +0.000 A 
ATOM      7  C   UNL     1       0.001   9.197  23.008  0.00  0.00    +0.000 A 
ATOM      8  N   UNL     1       0.638   8.779  21.954  0.00  0.00    +0.000 NA
ATOM      9  C   UNL     1       0.593   9.606  20.860  0.00  0.00    +0.000 A 
ENDROOT
BRANCH   5  10
ATOM     10  C   UNL     1      -1.501  12.530  22.073  0.00  0.00    +0.000 A 
ATOM     11  C   UNL     1      -2.775  12.624  21.497  0.00  0.00    +0.000 A 
ATOM     12  C   UNL     1      -3.496  13.817  21.577  0.00  0.00    +0.000 A 
ATOM     13  C   UNL     1      -2.952  14.923  22.227  0.00  0.00    +0.000 A 
ATOM     14  C   UNL     1      -1.678  14.844  22.786  0.00  0.00    +0.000 A 
ATOM     15  C   UNL     1      -0.952  13.653  22.707  0.00  0.00    +0.000 A 
ENDBRANCH   5  10
BRANCH   1  17
ATOM     16  O   UNL     1       1.929   8.240  17.766  0.00  0.00    +0.000 OA
ATOM     17  C   UNL     1       1.818   8.358  18.983  0.00  0.00    +0.000 C 
ATOM     18  N   UNL     1       2.365   7.466  19.872  0.00  0.00    +0.000 N 
ATOM     19  H   UNL     1       2.171   7.599  20.861  0.00  0.00    +0.000 HD
BRANCH  18  20
ATOM     20  C   UNL     1       3.089   6.297  19.440  0.00  0.00    +0.000 C 
ATOM     21  C   UNL     1       3.503   6.371  17.955  0.00  0.00    +0.000 C 
ATOM     22  C   UNL     1       3.540   4.924  17.440  0.00  0.00    +0.000 C 
ATOM     23  C   UNL     1       2.490   4.285  18.295  0.00  0.00    +0.000 A 
ATOM     24  C   UNL     1       1.847   3.075  18.092  0.00  0.00    +0.000 A 
ATOM     25  C   UNL     1       0.931   2.644  19.054  0.00  0.00    +0.000 A 
ATOM     26  C   UNL     1       0.687   3.408  20.204  0.00  0.00    +0.000 A 
ATOM     27  C   UNL     1       1.350   4.621  20.406  0.00  0.00    +0.000 A 
ATOM     28  C   UNL     1       2.239   5.057  19.436  0.00  0.00    +0.000 A 
ENDBRANCH  18  20
ENDBRANCH   1  17
TORSDOF 3
ENDMDL
MODEL 4
REMARK VINA RESULT:      -9.1      0.608      1.155
REMARK  Name = 
REMARK  3 active torsions:
REMARK  status: ('A' for Active; 'I' for Inactive)
REMARK    1  A    between atoms: C_2  and  C_13
REMARK    2  A    between atoms: N_3  and  C_4
REMARK    3  A    between atoms: C_17  and  C_18
REMARK                            x       y       z     vdW  Elec       q    Type
REMARK                         _______ _______ _______ _____ _____    ______ ____
ROOT
ATOM      1  C   UNL     1       0.894   9.368  20.460  0.00  0.00    +0.000 A 
ATOM      2  C   UNL     1       0.979   9.591  21.850  0.00  0.00    +0.000 A 
ATOM      3  N   UNL     1       0.124  10.509  22.293  0.00  0.00    +0.000 NA
ATOM      4  N   UNL     1      -0.538  10.925  21.182  0.00  0.00    +0.000 N 
ATOM      5  C   UNL     1      -1.516  11.932  21.079  0.00  0.00    +0.000 A 
ATOM      6  C   UNL     1      -2.067  12.199  19.883  0.00  0.00    +0.000 A 
ATOM      7  C   UNL     1      -1.583  11.365  18.751  0.00  0.00    +0.000 A 
ATOM      8  N   UNL     1      -0.674  10.437  18.806  0.00  0.00    +0.000 NA
ATOM      9  C   UNL     1      -0.120  10.215  20.042  0.00  0.00    +0.000 A 
ENDROOT
BRANCH   5  10
ATOM     10  C   UNL     1      -1.925  12.711  22.260  0.00  0.00    +0.000 A 
ATOM     11  C   UNL     1      -3.136  12.433  22.908  0.00  0.00    +0.000 A 
ATOM     12  C   UNL     1      -3.492  13.133  24.063  0.00  0.00    +0.000 A 
ATOM     13  C   UNL     1      -2.647  14.115  24.575  0.00  0.00    +0.000 A 
ATOM     14  C   UNL     1      -1.451  14.412  23.926  0.00  0.00    +0.000 A 
ATOM     15  C   UNL     1      -1.091  13.716  22.769  0.00  0.00    +0.000 A 
ENDBRANCH   5  10
BRANCH   1  17
ATOM     16  O   UNL     1       2.147   8.755  18.582  0.00  0.00    +0.000 OA
ATOM     17  C   UNL     1       1.708   8.451  19.687  0.00  0.00    +0.000 C 
ATOM     18  N   UNL     1       1.950   7.234  20.275  0.00  0.00    +0.000 N 
ATOM     19  H   UNL     1       1.495   7.035  21.163  0.00  0.00    +0.000 HD
BRANCH  18  20
ATOM     20  C   UNL     1       2.716   6.203  19.622  0.00  0.00    +0.000 C 
ATOM     21  C   UNL     1       2.440   6.130  18.106  0.00  0.00    +0.000 C 
ATOM     22  C   UNL     1       2.650   4.664  17.695  0.00  0.00    +0.000 C 
ATOM     23  C   UNL     1       2.265   3.952  18.953  0.00  0.00    +0.000 A 
ATOM     24  C   UNL     1       1.950   2.612  19.112  0.00  0.00    +0.000 A 
ATOM     25  C   UNL     1       1.669   2.146  20.398  0.00  0.00    +0.000 A 
ATOM     26  C   UNL     1       1.728   3.010  21.501  0.00  0.00    +0.000 A 
ATOM     27  C   UNL     1       2.060   4.357  21.334  0.00  0.00    +0.000 A 
ATOM     28  C   UNL     1       2.312   4.820  20.051  0.00  0.00    +0.000 A 
ENDBRANCH  18  20
ENDBRANCH   1  17
TORSDOF 3
ENDMDL
MODEL 5
REMARK VINA RESULT:      -9.0      1.884      8.792
REMARK  Name = 
REMARK  3 active torsions:
REMARK  status: ('A' for Active; 'I' for Inactive)
REMARK    1  A    between atoms: C_2  and  C_13
REMARK    2  A    between atoms: N_3  and  C_4
REMARK    3  A    between atoms: C_17  and  C_18
REMARK                            x       y       z     vdW  Elec       q    Type
REMARK                         _______ _______ _______ _____ _____    ______ ____
ROOT
ATOM      1  C   UNL     1       1.269  10.208  19.062  0.00  0.00    +0.000 A 
ATOM      2  C   UNL     1       1.865  10.092  17.790  0.00  0.00    +0.000 A 
ATOM      3  N   UNL     1       2.371   8.886  17.549  0.00  0.00    +0.000 NA
ATOM      4  N   UNL     1       2.128   8.180  18.684  0.00  0.00    +0.000 N 
ATOM      5  C   UNL     1       2.508   6.858  18.983  0.00  0.00    +0.000 A 
ATOM      6  C   UNL     1       2.165   6.324  20.167  0.00  0.00    +0.000 A 
ATOM      7  C   UNL     1       1.378   7.207  21.068  0.00  0.00    +0.000 A 
ATOM      8  N   UNL     1       1.021   8.434  20.831  0.00  0.00    +0.000 NA
ATOM      9  C   UNL     1       1.414   8.948  19.620  0.00  0.00    +0.000 A 
ENDROOT
BRANCH   5  10
ATOM     10  C   UNL     1       3.295   6.063  18.025  0.00  0.00    +0.000 A 
ATOM     11  C   UNL     1       4.424   6.614  17.404  0.00  0.00    +0.000 A 
ATOM     12  C   UNL     1       5.202   5.838  16.543  0.00  0.00    +0.000 A 
ATOM     13  C   UNL     1       4.859   4.511  16.294  0.00  0.00    +0.000 A 
ATOM     14  C   UNL     1       3.727   3.960  16.892  0.00  0.00    +0.000 A 
ATOM     15  C   UNL     1       2.944   4.733  17.753  0.00  0.00    +0.000 A 
ENDBRANCH   5  10
BRANCH   1  17
ATOM     16  O   UNL     1       0.995  12.523  19.257  0.00  0.00    +0.000 OA
ATOM     17  C   UNL     1       0.658  11.399  19.618  0.00  0.00    +0.000 C 
ATOM     18  N   UNL     1      -0.314  11.180  20.563  0.00  0.00    +0.000 N 
ATOM     19  H   UNL     1      -0.489  10.222  20.854  0.00  0.00    +0.000 HD
BRANCH  18  20
ATOM     20  C   UNL     1      -0.995  12.261  21.230  0.00  0.00    +0.000 C 
ATOM     21  C   UNL     1      -1.090  12.049  22.756  0.00  0.00    +0.000 C 
ATOM     22  C   UNL     1      -2.379  12.750  23.213  0.00  0.00    +0.000 C 
ATOM     23  C   UNL     1      -3.234  12.612  21.993  0.00  0.00    +0.000 A 
ATOM     24  C   UNL     1      -4.607  12.767  21.892  0.00  0.00    +0.000 A 
ATOM     25  C   UNL     1      -5.196  12.642  20.633  0.00  0.00    +0.000 A 
ATOM     26  C   UNL     1      -4.413  12.387  19.498  0.00  0.00    +0.000 A 
ATOM     27  C   UNL     1      -3.028  12.244  19.607  0.00  0.00    +0.000 A 
ATOM     28  C   UNL     1      -2.451  12.344  20.863  0.00  0.00    +0.000 A 
ENDBRANCH  18  20
ENDBRANCH   1  17
TORSDOF 3
ENDMDL
MODEL 6
REMARK VINA RESULT:      -8.9      2.551      9.448
REMARK  Name = 
REMARK  3 active torsions:
REMARK  status: ('A' for Active; 'I' for Inactive)
REMARK    1  A    between atoms: C_2  and  C_13
REMARK    2  A    between atoms: N_3  and  C_4
REMARK    3  A    between atoms: C_17  and  C_18
REMARK                            x       y       z     vdW  Elec       q    Type
REMARK                         _______ _______ _______ _____ _____    ______ ____
ROOT
ATOM      1  C   UNL     1       2.047   7.933  19.273  0.00  0.00    +0.000 A 
ATOM      2  C   UNL     1       2.776   8.291  18.120  0.00  0.00    +0.000 A 
ATOM      3  N   UNL     1       3.567   7.320  17.671  0.00  0.00    +0.000 NA
ATOM      4  N   UNL     1       3.382   6.296  18.544  0.00  0.00    +0.000 N 
ATOM      5  C   UNL     1       4.026   5.044  18.563  0.00  0.00    +0.000 A 
ATOM      6  C   UNL     1       3.700   4.149  19.510  0.00  0.00    +0.000 A 
ATOM      7  C   UNL     1       2.646   4.578  20.468  0.00  0.00    +0.000 A 
ATOM      8  N   UNL     1       2.041   5.729  20.488  0.00  0.00    +0.000 NA
ATOM      9  C   UNL     1       2.422   6.622  19.518  0.00  0.00    +0.000 A 
ENDROOT
BRANCH   5  10
ATOM     10  C   UNL     1       5.064   4.713  17.573  0.00  0.00    +0.000 A 
ATOM     11  C   UNL     1       4.708   4.264  16.295  0.00  0.00    +0.000 A 
ATOM     12  C   UNL     1       5.694   4.009  15.339  0.00  0.00    +0.000 A 
ATOM     13  C   UNL     1       7.039   4.195  15.654  0.00  0.00    +0.000 A 
ATOM     14  C   UNL     1       7.403   4.623  16.929  0.00  0.00    +0.000 A 
ATOM     15  C   UNL     1       6.420   4.879  17.888  0.00  0.00    +0.000 A 
ENDBRANCH   5  10
BRANCH   1  17
ATOM     16  O   UNL     1       0.943   8.643  21.210  0.00  0.00    +0.000 OA
ATOM     17  C   UNL     1       1.126   8.782  20.004  0.00  0.00    +0.000 C 
ATOM     18  N   UNL     1       0.485   9.740  19.258  0.00  0.00    +0.000 N 
ATOM     19  H   UNL     1       0.642   9.746  18.253  0.00  0.00    +0.000 HD
BRANCH  18  20
ATOM     20  C   UNL     1      -0.482  10.641  19.831  0.00  0.00    +0.000 C 
ATOM     21  C   UNL     1      -1.687  10.889  18.900  0.00  0.00    +0.000 C 
ATOM     22  C   UNL     1      -2.189  12.309  19.205  0.00  0.00    +0.000 C 
ATOM     23  C   UNL     1      -0.919  12.983  19.621  0.00  0.00    +0.000 A 
ATOM     24  C   UNL     1      -0.667  14.341  19.716  0.00  0.00    +0.000 A 
ATOM     25  C   UNL     1       0.585  14.752  20.180  0.00  0.00    +0.000 A 
ATOM     26  C   UNL     1       1.552  13.809  20.560  0.00  0.00    +0.000 A 
ATOM     27  C   UNL     1       1.284  12.441  20.473  0.00  0.00    +0.000 A 
ATOM     28  C   UNL     1       0.049  12.039  19.987  0.00  0.00    +0.000 A 
ENDBRANCH  18  20
ENDBRANCH   1  17
TORSDOF 3
ENDMDL
MODEL 7
REMARK VINA RESULT:      -8.7      1.493      2.058
REMARK  Name = 
REMARK  3 active torsions:
REMARK  status: ('A' for Active; 'I' for Inactive)
REMARK    1  A    between atoms: C_2  and  C_13
REMARK    2  A    between atoms: N_3  and  C_4
REMARK    3  A    between atoms: C_17  and  C_18
REMARK                            x       y       z     vdW  Elec       q    Type
REMARK                         _______ _______ _______ _____ _____    ______ ____
ROOT
ATOM      1  C   UNL     1       1.414   9.139  19.406  0.00  0.00    +0.000 A 
ATOM      2  C   UNL     1       1.234  10.335  18.682  0.00  0.00    +0.000 A 
ATOM      3  N   UNL     1       0.567  11.267  19.357  0.00  0.00    +0.000 NA
ATOM      4  N   UNL     1       0.277  10.685  20.550  0.00  0.00    +0.000 N 
ATOM      5  C   UNL     1      -0.469  11.218  21.618  0.00  0.00    +0.000 A 
ATOM      6  C   UNL     1      -0.643  10.487  22.732  0.00  0.00    +0.000 A 
ATOM      7  C   UNL     1       0.004   9.148  22.731  0.00  0.00    +0.000 A 
ATOM      8  N   UNL     1       0.687   8.619  21.759  0.00  0.00    +0.000 NA
ATOM      9  C   UNL     1       0.819   9.391  20.631  0.00  0.00    +0.000 A 
ENDROOT
BRANCH   5  10
ATOM     10  C   UNL     1      -1.078  12.555  21.522  0.00  0.00    +0.000 A 
ATOM     11  C   UNL     1      -0.333  13.698  21.839  0.00  0.00    +0.000 A 
ATOM     12  C   UNL     1      -0.894  14.968  21.689  0.00  0.00    +0.000 A 
ATOM     13  C   UNL     1      -2.201  15.105  21.226  0.00  0.00    +0.000 A 
ATOM     14  C   UNL     1      -2.956  13.973  20.926  0.00  0.00    +0.000 A 
ATOM     15  C   UNL     1      -2.399  12.701  21.076  0.00  0.00    +0.000 A 
ENDBRANCH   5  10
BRANCH   1  17
ATOM     16  O   UNL     1       2.095   7.645  17.739  0.00  0.00    +0.000 OA
ATOM     17  C   UNL     1       2.077   7.940  18.930  0.00  0.00    +0.000 C 
ATOM     18  N   UNL     1       2.677   7.172  19.897  0.00  0.00    +0.000 N 
ATOM     19  H   UNL     1       2.560   7.451  20.868  0.00  0.00    +0.000 HD
BRANCH  18  20
ATOM     20  C   UNL     1       3.350   5.935  19.589  0.00  0.00    +0.000 C 
ATOM     21  C   UNL     1       4.023   5.957  18.201  0.00  0.00    +0.000 C 
ATOM     22  C   UNL     1       4.011   4.509  17.688  0.00  0.00    +0.000 C 
ATOM     23  C   UNL     1       2.771   3.981  18.339  0.00  0.00    +0.000 A 
ATOM     24  C   UNL     1       2.060   2.837  18.016  0.00  0.00    +0.000 A 
ATOM     25  C   UNL     1       0.952   2.503  18.798  0.00  0.00    +0.000 A 
ATOM     26  C   UNL     1       0.584   3.297  19.894  0.00  0.00    +0.000 A 
ATOM     27  C   UNL     1       1.315   4.442  20.220  0.00  0.00    +0.000 A 
ATOM     28  C   UNL     1       2.399   4.782  19.425  0.00  0.00    +0.000 A 
ENDBRANCH  18  20
ENDBRANCH   1  17
TORSDOF 3
ENDMDL
MODEL 8
REMARK VINA RESULT:      -8.7      1.432      1.629
REMARK  Name = 
REMARK  3 active torsions:
REMARK  status: ('A' for Active; 'I' for Inactive)
REMARK    1  A    between atoms: C_2  and  C_13
REMARK    2  A    between atoms: N_3  and  C_4
REMARK    3  A    between atoms: C_17  and  C_18
REMARK                            x       y       z     vdW  Elec       q    Type
REMARK                         _______ _______ _______ _____ _____    ______ ____
ROOT
ATOM      1  C   UNL     1       0.234   9.747  21.817  0.00  0.00    +0.000 A 
ATOM      2  C   UNL     1      -0.403   9.855  23.070  0.00  0.00    +0.000 A 
ATOM      3  N   UNL     1      -1.364  10.775  23.099  0.00  0.00    +0.000 NA
ATOM      4  N   UNL     1      -1.365  11.308  21.849  0.00  0.00    +0.000 N 
ATOM      5  C   UNL     1      -2.153  12.365  21.357  0.00  0.00    +0.000 A 
ATOM      6  C   UNL     1      -2.016  12.751  20.077  0.00  0.00    +0.000 A 
ATOM      7  C   UNL     1      -1.022  11.986  19.277  0.00  0.00    +0.000 A 
ATOM      8  N   UNL     1      -0.269  11.015  19.701  0.00  0.00    +0.000 NA
ATOM      9  C   UNL     1      -0.424  10.671  21.021  0.00  0.00    +0.000 A 
ENDROOT
BRANCH   5  10
ATOM     10  C   UNL     1      -3.108  13.067  22.231  0.00  0.00    +0.000 A 
ATOM     11  C   UNL     1      -2.661  14.049  23.124  0.00  0.00    +0.000 A 
ATOM     12  C   UNL     1      -3.577  14.756  23.908  0.00  0.00    +0.000 A 
ATOM     13  C   UNL     1      -4.940  14.484  23.808  0.00  0.00    +0.000 A 
ATOM     14  C   UNL     1      -5.391  13.495  22.936  0.00  0.00    +0.000 A 
ATOM     15  C   UNL     1      -4.479  12.785  22.152  0.00  0.00    +0.000 A 
ENDBRANCH   5  10
BRANCH   1  17
ATOM     16  O   UNL     1       2.191   8.563  22.307  0.00  0.00    +0.000 OA
ATOM     17  C   UNL     1       1.328   8.856  21.485  0.00  0.00    +0.000 C 
ATOM     18  N   UNL     1       1.327   8.369  20.201  0.00  0.00    +0.000 N 
ATOM     19  H   UNL     1       0.614   8.712  19.562  0.00  0.00    +0.000 HD
BRANCH  18  20
ATOM     20  C   UNL     1       2.362   7.496  19.708  0.00  0.00    +0.000 C 
ATOM     21  C   UNL     1       2.678   7.733  18.217  0.00  0.00    +0.000 C 
ATOM     22  C   UNL     1       3.144   6.384  17.650  0.00  0.00    +0.000 C 
ATOM     23  C   UNL     1       2.378   5.427  18.509  0.00  0.00    +0.000 A 
ATOM     24  C   UNL     1       2.137   4.082  18.282  0.00  0.00    +0.000 A 
ATOM     25  C   UNL     1       1.437   3.362  19.252  0.00  0.00    +0.000 A 
ATOM     26  C   UNL     1       1.009   3.983  20.435  0.00  0.00    +0.000 A 
ATOM     27  C   UNL     1       1.269   5.337  20.662  0.00  0.00    +0.000 A 
ATOM     28  C   UNL     1       1.942   6.053  19.684  0.00  0.00    +0.000 A 
ENDBRANCH  18  20
ENDBRANCH   1  17
TORSDOF 3
ENDMDL
MODEL 9
REMARK VINA RESULT:      -8.7      2.988      4.274
REMARK  Name = 
REMARK  3 active torsions:
REMARK  status: ('A' for Active; 'I' for Inactive)
REMARK    1  A    between atoms: C_2  and  C_13
REMARK    2  A    between atoms: N_3  and  C_4
REMARK    3  A    between atoms: C_17  and  C_18
REMARK                            x       y       z     vdW  Elec       q    Type
REMARK                         _______ _______ _______ _____ _____    ______ ____
ROOT
ATOM      1  C   UNL     1      -0.925  10.989  19.060  0.00  0.00    +0.000 A 
ATOM      2  C   UNL     1      -1.616  11.804  19.979  0.00  0.00    +0.000 A 
ATOM      3  N   UNL     1      -2.887  12.017  19.647  0.00  0.00    +0.000 NA
ATOM      4  N   UNL     1      -3.051  11.348  18.476  0.00  0.00    +0.000 N 
ATOM      5  C   UNL     1      -4.198  11.292  17.662  0.00  0.00    +0.000 A 
ATOM      6  C   UNL     1      -4.172  10.563  16.533  0.00  0.00    +0.000 A 
ATOM      7  C   UNL     1      -2.895   9.853  16.255  0.00  0.00    +0.000 A 
ATOM      8  N   UNL     1      -1.814   9.893  16.976  0.00  0.00    +0.000 NA
ATOM      9  C   UNL     1      -1.877  10.669  18.107  0.00  0.00    +0.000 A 
ENDROOT
BRANCH   5  10
ATOM     10  C   UNL     1      -5.417  12.037  18.019  0.00  0.00    +0.000 A 
ATOM     11  C   UNL     1      -5.935  11.968  19.319  0.00  0.00    +0.000 A 
ATOM     12  C   UNL     1      -7.056  12.723  19.670  0.00  0.00    +0.000 A 
ATOM     13  C   UNL     1      -7.667  13.549  18.729  0.00  0.00    +0.000 A 
ATOM     14  C   UNL     1      -7.170  13.609  17.428  0.00  0.00    +0.000 A 
ATOM     15  C   UNL     1      -6.050  12.854  17.072  0.00  0.00    +0.000 A 
ENDBRANCH   5  10
BRANCH   1  17
ATOM     16  O   UNL     1       1.355  11.425  19.360  0.00  0.00    +0.000 OA
ATOM     17  C   UNL     1       0.470  10.602  19.138  0.00  0.00    +0.000 C 
ATOM     18  N   UNL     1       0.726   9.266  18.948  0.00  0.00    +0.000 N 
ATOM     19  H   UNL     1      -0.054   8.662  18.703  0.00  0.00    +0.000 HD
BRANCH  18  20
ATOM     20  C   UNL     1       2.063   8.730  18.965  0.00  0.00    +0.000 C 
ATOM     21  C   UNL     1       2.645   8.542  17.548  0.00  0.00    +0.000 C 
ATOM     22  C   UNL     1       3.619   7.357  17.630  0.00  0.00    +0.000 C 
ATOM     23  C   UNL     1       2.991   6.540  18.716  0.00  0.00    +0.000 A 
ATOM     24  C   UNL     1       3.228   5.211  19.028  0.00  0.00    +0.000 A 
ATOM     25  C   UNL     1       2.564   4.660  20.125  0.00  0.00    +0.000 A 
ATOM     26  C   UNL     1       1.695   5.441  20.902  0.00  0.00    +0.000 A 
ATOM     27  C   UNL     1       1.473   6.784  20.588  0.00  0.00    +0.000 A 
ATOM     28  C   UNL     1       2.115   7.318  19.482  0.00  0.00    +0.000 A 
ENDBRANCH  18  20
ENDBRANCH   1  17
TORSDOF 3
ENDMDL
