MODEL 1
REMARK VINA RESULT:      -8.9      0.000      0.000
REMARK  Name = 
REMARK  4 active torsions:
REMARK  status: ('A' for Active; 'I' for Inactive)
REMARK    1  A    between atoms: C_1  and  N_2
REMARK    2  A    between atoms: N_2  and  C_3
REMARK    3  A    between atoms: N_2  and  C_13
REMARK    4  A    between atoms: C_3  and  C_4
REMARK                            x       y       z     vdW  Elec       q    Type
REMARK                         _______ _______ _______ _____ _____    ______ ____
ROOT
ATOM      1  C   UNL     1       2.602   6.101  19.295  0.00  0.00    +0.000 A 
ATOM      2  C   UNL     1       1.838   6.402  20.525  0.00  0.00    +0.000 A 
ATOM      3  N   UNL     1       1.213   7.484  20.824  0.00  0.00    +0.000 NA
ATOM      4  N   UNL     1       1.267   8.520  19.918  0.00  0.00    +0.000 N 
ATOM      5  C   UNL     1       0.584   9.659  20.339  0.00  0.00    +0.000 A 
ATOM      6  N   UNL     1       0.400  10.859  19.820  0.00  0.00    +0.000 NA
ATOM      7  C   UNL     1      -0.273  11.586  20.788  0.00  0.00    +0.000 A 
ATOM      8  C   UNL     1      -0.699  12.924  20.808  0.00  0.00    +0.000 A 
ATOM      9  C   UNL     1      -1.296  13.423  21.980  0.00  0.00    +0.000 A 
ATOM     10  C   UNL     1      -1.476  12.612  23.104  0.00  0.00    +0.000 A 
ATOM     11  C   UNL     1      -1.100  11.270  23.088  0.00  0.00    +0.000 A 
ATOM     12  C   UNL     1      -0.513  10.808  21.913  0.00  0.00    +0.000 A 
ATOM     13  N   UNL     1      -0.043   9.585  21.560  0.00  0.00    +0.000 N 
ATOM     14  C   UNL     1       2.025   8.495  18.747  0.00  0.00    +0.000 A 
ATOM     15  O   UNL     1       2.165   9.419  17.952  0.00  0.00    +0.000 OA
ATOM     16  C   UNL     1       2.718   7.168  18.487  0.00  0.00    +0.000 A 
ATOM     17 CL   UNL     1       3.630   7.079  17.009  0.00  0.00    +0.000 Cl
ATOM     18  H   UNL     1      -0.044   8.741  22.110  0.00  0.00    +0.000 HD
ENDROOT
BRANCH   1  20
ATOM     19  C   UNL     1       2.372   3.707  18.604  0.00  0.00    +0.000 C 
ATOM     20  N   UNL     1       3.142   4.806  19.198  0.00  0.00    +0.000 N 
BRANCH  20  21
ATOM     21  C   UNL     1       4.583   4.538  19.394  0.00  0.00    +0.000 C 
BRANCH  21  22
ATOM     22  C   UNL     1       5.439   4.745  18.158  0.00  0.00    +0.000 A 
ATOM     23  C   UNL     1       6.482   5.707  18.230  0.00  0.00    +0.000 A 
ATOM     24  C   UNL     1       7.304   5.981  17.132  0.00  0.00    +0.000 A 
ATOM     25  C   UNL     1       7.060   5.291  15.967  0.00  0.00    +0.000 A 
ATOM     26  C   UNL     1       6.062   4.350  15.882  0.00  0.00    +0.000 A 
ATOM     27  C   UNL     1       5.246   4.049  16.955  0.00  0.00    +0.000 A 
ATOM     28  O   UNL     1       5.985   3.791  14.645  0.00  0.00    +0.000 OA
ATOM     29  C   UNL     1       7.001   4.538  13.945  0.00  0.00    +0.000 C 
ATOM     30  O   UNL     1       7.734   5.444  14.797  0.00  0.00    +0.000 OA
ENDBRANCH  21  22
ENDBRANCH  20  21
ENDBRANCH   1  20
TORSDOF 3
ENDMDL
MODEL 2
REMARK VINA RESULT:      -8.5      2.363      3.349
REMARK  Name = 
REMARK  4 active torsions:
REMARK  status: ('A' for Active; 'I' for Inactive)
REMARK    1  A    between atoms: C_1  and  N_2
REMARK    2  A    between atoms: N_2  and  C_3
REMARK    3  A    between atoms: N_2  and  C_13
REMARK    4  A    between atoms: C_3  and  C_4
REMARK                            x       y       z     vdW  Elec       q    Type
REMARK                         _______ _______ _______ _____ _____    ______ ____
ROOT
ATOM      1  C   UNL     1       3.406   4.468  18.334  0.00  0.00    +0.000 A 
ATOM      2  C   UNL     1       3.017   5.795  17.812  0.00  0.00    +0.000 A 
ATOM      3  N   UNL     1       2.484   6.773  18.453  0.00  0.00    +0.000 NA
ATOM      4  N   UNL     1       2.202   6.580  19.786  0.00  0.00    +0.000 N 
ATOM      5  C   UNL     1       1.603   7.683  20.391  0.00  0.00    +0.000 A 
ATOM      6  N   UNL     1       1.151   7.926  21.607  0.00  0.00    +0.000 NA
ATOM      7  C   UNL     1       0.553   9.175  21.541  0.00  0.00    +0.000 A 
ATOM      8  C   UNL     1      -0.124   9.926  22.515  0.00  0.00    +0.000 A 
ATOM      9  C   UNL     1      -0.711  11.146  22.136  0.00  0.00    +0.000 A 
ATOM     10  C   UNL     1      -0.619  11.618  20.823  0.00  0.00    +0.000 A 
ATOM     11  C   UNL     1       0.086  10.907  19.853  0.00  0.00    +0.000 A 
ATOM     12  C   UNL     1       0.654   9.704  20.262  0.00  0.00    +0.000 A 
ATOM     13  N   UNL     1       1.394   8.784  19.594  0.00  0.00    +0.000 N 
ATOM     14  C   UNL     1       2.380   5.368  20.455  0.00  0.00    +0.000 A 
ATOM     15  O   UNL     1       2.072   5.128  21.619  0.00  0.00    +0.000 OA
ATOM     16  C   UNL     1       3.022   4.282  19.608  0.00  0.00    +0.000 A 
ATOM     17 CL   UNL     1       3.310   2.773  20.421  0.00  0.00    +0.000 Cl
ATOM     18  H   UNL     1       1.692   8.811  18.633  0.00  0.00    +0.000 HD
ENDROOT
BRANCH   1  20
ATOM     19  C   UNL     1       3.460   2.279  17.124  0.00  0.00    +0.000 C 
ATOM     20  N   UNL     1       4.030   3.597  17.422  0.00  0.00    +0.000 N 
BRANCH  20  21
ATOM     21  C   UNL     1       5.094   4.052  16.502  0.00  0.00    +0.000 C 
BRANCH  21  22
ATOM     22  C   UNL     1       6.066   5.050  17.104  0.00  0.00    +0.000 A 
ATOM     23  C   UNL     1       6.891   4.608  18.173  0.00  0.00    +0.000 A 
ATOM     24  C   UNL     1       7.797   5.467  18.803  0.00  0.00    +0.000 A 
ATOM     25  C   UNL     1       7.857   6.766  18.358  0.00  0.00    +0.000 A 
ATOM     26  C   UNL     1       7.075   7.209  17.318  0.00  0.00    +0.000 A 
ATOM     27  C   UNL     1       6.182   6.380  16.668  0.00  0.00    +0.000 A 
ATOM     28  O   UNL     1       7.283   8.524  17.040  0.00  0.00    +0.000 OA
ATOM     29  C   UNL     1       8.232   8.872  18.069  0.00  0.00    +0.000 C 
ATOM     30  O   UNL     1       8.653   7.745  18.864  0.00  0.00    +0.000 OA
ENDBRANCH  21  22
ENDBRANCH  20  21
ENDBRANCH   1  20
TORSDOF 3
ENDMDL
MODEL 3
REMARK VINA RESULT:      -8.4      1.230      1.950
REMARK  Name = 
REMARK  4 active torsions:
REMARK  status: ('A' for Active; 'I' for Inactive)
REMARK    1  A    between atoms: C_1  and  N_2
REMARK    2  A    between atoms: N_2  and  C_3
REMARK    3  A    between atoms: N_2  and  C_13
REMARK    4  A    between atoms: C_3  and  C_4
REMARK                            x       y       z     vdW  Elec       q    Type
REMARK                         _______ _______ _______ _____ _____    ______ ____
ROOT
ATOM      1  C   UNL     1       3.726   5.572  18.584  0.00  0.00    +0.000 A 
ATOM      2  C   UNL     1       2.995   5.636  19.868  0.00  0.00    +0.000 A 
ATOM      3  N   UNL     1       2.208   6.562  20.286  0.00  0.00    +0.000 NA
ATOM      4  N   UNL     1       2.026   7.656  19.470  0.00  0.00    +0.000 N 
ATOM      5  C   UNL     1       1.178   8.618  20.016  0.00  0.00    +0.000 A 
ATOM      6  N   UNL     1       0.756   9.801  19.610  0.00  0.00    +0.000 NA
ATOM      7  C   UNL     1       0.024  10.320  20.666  0.00  0.00    +0.000 A 
ATOM      8  C   UNL     1      -0.629  11.553  20.819  0.00  0.00    +0.000 A 
ATOM      9  C   UNL     1      -1.234  11.846  22.055  0.00  0.00    +0.000 A 
ATOM     10  C   UNL     1      -1.202  10.933  23.112  0.00  0.00    +0.000 A 
ATOM     11  C   UNL     1      -0.596   9.685  22.965  0.00  0.00    +0.000 A 
ATOM     12  C   UNL     1      -0.008   9.428  21.730  0.00  0.00    +0.000 A 
ATOM     13  N   UNL     1       0.648   8.340  21.254  0.00  0.00    +0.000 N 
ATOM     14  C   UNL     1       2.706   7.857  18.269  0.00  0.00    +0.000 A 
ATOM     15  O   UNL     1       2.633   8.849  17.550  0.00  0.00    +0.000 OA
ATOM     16  C   UNL     1       3.605   6.700  17.865  0.00  0.00    +0.000 A 
ATOM     17 CL   UNL     1       4.429   6.889  16.346  0.00  0.00    +0.000 Cl
ATOM     18  H   UNL     1       0.828   7.471  21.729  0.00  0.00    +0.000 HD
ENDROOT
BRANCH   1  20
ATOM     19  C   UNL     1       3.824   3.109  18.155  0.00  0.00    +0.000 C 
ATOM     20  N   UNL     1       4.479   4.406  18.353  0.00  0.00    +0.000 N 
BRANCH  20  21
ATOM     21  C   UNL     1       5.913   4.455  17.996  0.00  0.00    +0.000 C 
BRANCH  21  22
ATOM     22  C   UNL     1       6.195   4.464  16.505  0.00  0.00    +0.000 A 
ATOM     23  C   UNL     1       5.379   3.650  15.673  0.00  0.00    +0.000 A 
ATOM     24  C   UNL     1       5.583   3.578  14.291  0.00  0.00    +0.000 A 
ATOM     25  C   UNL     1       6.614   4.318  13.761  0.00  0.00    +0.000 A 
ATOM     26  C   UNL     1       7.406   5.118  14.549  0.00  0.00    +0.000 A 
ATOM     27  C   UNL     1       7.218   5.220  15.913  0.00  0.00    +0.000 A 
ATOM     28  O   UNL     1       8.368   5.758  13.831  0.00  0.00    +0.000 OA
ATOM     29  C   UNL     1       8.133   5.213  12.516  0.00  0.00    +0.000 C 
ATOM     30  O   UNL     1       6.977   4.352  12.452  0.00  0.00    +0.000 OA
ENDBRANCH  21  22
ENDBRANCH  20  21
ENDBRANCH   1  20
TORSDOF 3
ENDMDL
MODEL 4
REMARK VINA RESULT:      -8.3      3.824      9.834
REMARK  Name = 
REMARK  4 active torsions:
REMARK  status: ('A' for Active; 'I' for Inactive)
REMARK    1  A    between atoms: C_1  and  N_2
REMARK    2  A    between atoms: N_2  and  C_3
REMARK    3  A    between atoms: N_2  and  C_13
REMARK    4  A    between atoms: C_3  and  C_4
REMARK                            x       y       z     vdW  Elec       q    Type
REMARK                         _______ _______ _______ _____ _____    ______ ____
ROOT
ATOM      1  C   UNL     1       0.278  10.565  19.980  0.00  0.00    +0.000 A 
ATOM      2  C   UNL     1       1.105  10.495  18.756  0.00  0.00    +0.000 A 
ATOM      3  N   UNL     1       1.820   9.512  18.339  0.00  0.00    +0.000 NA
ATOM      4  N   UNL     1       1.864   8.381  19.123  0.00  0.00    +0.000 N 
ATOM      5  C   UNL     1       2.684   7.381  18.605  0.00  0.00    +0.000 A 
ATOM      6  N   UNL     1       3.033   6.178  19.021  0.00  0.00    +0.000 NA
ATOM      7  C   UNL     1       3.978   5.727  18.113  0.00  0.00    +0.000 A 
ATOM      8  C   UNL     1       4.721   4.536  18.069  0.00  0.00    +0.000 A 
ATOM      9  C   UNL     1       5.685   4.383  17.057  0.00  0.00    +0.000 A 
ATOM     10  C   UNL     1       5.901   5.381  16.103  0.00  0.00    +0.000 A 
ATOM     11  C   UNL     1       5.143   6.551  16.104  0.00  0.00    +0.000 A 
ATOM     12  C   UNL     1       4.197   6.671  17.119  0.00  0.00    +0.000 A 
ATOM     13  N   UNL     1       3.306   7.652  17.409  0.00  0.00    +0.000 N 
ATOM     14  C   UNL     1       1.254   8.273  20.372  0.00  0.00    +0.000 A 
ATOM     15  O   UNL     1       1.330   7.316  21.138  0.00  0.00    +0.000 OA
ATOM     16  C   UNL     1       0.429   9.486  20.766  0.00  0.00    +0.000 A 
ATOM     17 CL   UNL     1      -0.392   9.368  22.294  0.00  0.00    +0.000 Cl
ATOM     18  H   UNL     1       3.151   8.513  16.910  0.00  0.00    +0.000 HD
ENDROOT
BRANCH   1  20
ATOM     19  C   UNL     1      -0.338  12.526  21.406  0.00  0.00    +0.000 C 
ATOM     20  N   UNL     1      -0.458  11.749  20.168  0.00  0.00    +0.000 N 
BRANCH  20  21
ATOM     21  C   UNL     1      -1.144  12.435  19.052  0.00  0.00    +0.000 C 
BRANCH  21  22
ATOM     22  C   UNL     1      -2.581  12.000  18.831  0.00  0.00    +0.000 A 
ATOM     23  C   UNL     1      -2.851  11.141  17.732  0.00  0.00    +0.000 A 
ATOM     24  C   UNL     1      -4.150  10.712  17.439  0.00  0.00    +0.000 A 
ATOM     25  C   UNL     1      -5.166  11.160  18.249  0.00  0.00    +0.000 A 
ATOM     26  C   UNL     1      -4.923  11.983  19.323  0.00  0.00    +0.000 A 
ATOM     27  C   UNL     1      -3.650  12.410  19.644  0.00  0.00    +0.000 A 
ATOM     28  O   UNL     1      -6.062  12.314  19.987  0.00  0.00    +0.000 OA
ATOM     29  C   UNL     1      -7.054  11.663  19.167  0.00  0.00    +0.000 C 
ATOM     30  O   UNL     1      -6.486  10.872  18.102  0.00  0.00    +0.000 OA
ENDBRANCH  21  22
ENDBRANCH  20  21
ENDBRANCH   1  20
TORSDOF 3
ENDMDL
MODEL 5
REMARK VINA RESULT:      -8.2      3.620      9.584
REMARK  Name = 
REMARK  4 active torsions:
REMARK  status: ('A' for Active; 'I' for Inactive)
REMARK    1  A    between atoms: C_1  and  N_2
REMARK    2  A    between atoms: N_2  and  C_3
REMARK    3  A    between atoms: N_2  and  C_13
REMARK    4  A    between atoms: C_3  and  C_4
REMARK                            x       y       z     vdW  Elec       q    Type
REMARK                         _______ _______ _______ _____ _____    ______ ____
ROOT
ATOM      1  C   UNL     1       0.697  11.066  19.628  0.00  0.00    +0.000 A 
ATOM      2  C   UNL     1       1.446  10.521  18.476  0.00  0.00    +0.000 A 
ATOM      3  N   UNL     1       1.928   9.339  18.332  0.00  0.00    +0.000 NA
ATOM      4  N   UNL     1       1.766   8.456  19.375  0.00  0.00    +0.000 N 
ATOM      5  C   UNL     1       2.343   7.209  19.140  0.00  0.00    +0.000 A 
ATOM      6  N   UNL     1       2.451   6.102  19.851  0.00  0.00    +0.000 NA
ATOM      7  C   UNL     1       3.249   5.252  19.102  0.00  0.00    +0.000 A 
ATOM      8  C   UNL     1       3.728   3.961  19.371  0.00  0.00    +0.000 A 
ATOM      9  C   UNL     1       4.603   3.361  18.447  0.00  0.00    +0.000 A 
ATOM     10  C   UNL     1       4.985   4.022  17.277  0.00  0.00    +0.000 A 
ATOM     11  C   UNL     1       4.485   5.287  16.971  0.00  0.00    +0.000 A 
ATOM     12  C   UNL     1       3.622   5.851  17.907  0.00  0.00    +0.000 A 
ATOM     13  N   UNL     1       2.964   7.038  17.925  0.00  0.00    +0.000 N 
ATOM     14  C   UNL     1       1.192   8.792  20.601  0.00  0.00    +0.000 A 
ATOM     15  O   UNL     1       1.097   8.062  21.584  0.00  0.00    +0.000 OA
ATOM     16  C   UNL     1       0.650  10.210  20.663  0.00  0.00    +0.000 A 
ATOM     17 CL   UNL     1      -0.121  10.651  22.158  0.00  0.00    +0.000 Cl
ATOM     18  H   UNL     1       2.971   7.759  17.223  0.00  0.00    +0.000 HD
ENDROOT
BRANCH   1  20
ATOM     19  C   UNL     1       0.792  13.471  20.309  0.00  0.00    +0.000 C 
ATOM     20  N   UNL     1       0.228  12.386  19.500  0.00  0.00    +0.000 N 
BRANCH  20  21
ATOM     21  C   UNL     1      -0.618  12.813  18.366  0.00  0.00    +0.000 C 
BRANCH  21  22
ATOM     22  C   UNL     1      -2.019  12.230  18.366  0.00  0.00    +0.000 A 
ATOM     23  C   UNL     1      -2.383  11.380  17.287  0.00  0.00    +0.000 A 
ATOM     24  C   UNL     1      -3.661  10.820  17.194  0.00  0.00    +0.000 A 
ATOM     25  C   UNL     1      -4.565  11.127  18.183  0.00  0.00    +0.000 A 
ATOM     26  C   UNL     1      -4.227  11.938  19.241  0.00  0.00    +0.000 A 
ATOM     27  C   UNL     1      -2.969  12.493  19.366  0.00  0.00    +0.000 A 
ATOM     28  O   UNL     1      -5.264  12.120  20.102  0.00  0.00    +0.000 OA
ATOM     29  C   UNL     1      -6.309  11.390  19.428  0.00  0.00    +0.000 C 
ATOM     30  O   UNL     1      -5.853  10.700  18.245  0.00  0.00    +0.000 OA
ENDBRANCH  21  22
ENDBRANCH  20  21
ENDBRANCH   1  20
TORSDOF 3
ENDMDL
MODEL 6
REMARK VINA RESULT:      -8.2      3.650      9.705
REMARK  Name = 
REMARK  4 active torsions:
REMARK  status: ('A' for Active; 'I' for Inactive)
REMARK    1  A    between atoms: C_1  and  N_2
REMARK    2  A    between atoms: N_2  and  C_3
REMARK    3  A    between atoms: N_2  and  C_13
REMARK    4  A    between atoms: C_3  and  C_4
REMARK                            x       y       z     vdW  Elec       q    Type
REMARK                         _______ _______ _______ _____ _____    ______ ____
ROOT
ATOM      1  C   UNL     1      -0.117  10.460  20.684  0.00  0.00    +0.000 A 
ATOM      2  C   UNL     1      -0.116   9.181  21.426  0.00  0.00    +0.000 A 
ATOM      3  N   UNL     1       0.594   8.134  21.200  0.00  0.00    +0.000 NA
ATOM      4  N   UNL     1       1.449   8.168  20.121  0.00  0.00    +0.000 N 
ATOM      5  C   UNL     1       2.157   6.982  19.938  0.00  0.00    +0.000 A 
ATOM      6  N   UNL     1       3.037   6.571  19.045  0.00  0.00    +0.000 NA
ATOM      7  C   UNL     1       3.278   5.239  19.342  0.00  0.00    +0.000 A 
ATOM      8  C   UNL     1       4.092   4.285  18.711  0.00  0.00    +0.000 A 
ATOM      9  C   UNL     1       4.076   2.963  19.191  0.00  0.00    +0.000 A 
ATOM     10  C   UNL     1       3.279   2.597  20.279  0.00  0.00    +0.000 A 
ATOM     11  C   UNL     1       2.498   3.539  20.946  0.00  0.00    +0.000 A 
ATOM     12  C   UNL     1       2.537   4.837  20.445  0.00  0.00    +0.000 A 
ATOM     13  N   UNL     1       1.917   5.977  20.845  0.00  0.00    +0.000 N 
ATOM     14  C   UNL     1       1.525   9.229  19.218  0.00  0.00    +0.000 A 
ATOM     15  O   UNL     1       2.213   9.271  18.202  0.00  0.00    +0.000 OA
ATOM     16  C   UNL     1       0.650  10.416  19.582  0.00  0.00    +0.000 A 
ATOM     17 CL   UNL     1       0.758  11.781  18.510  0.00  0.00    +0.000 Cl
ATOM     18  H   UNL     1       1.293   6.099  21.625  0.00  0.00    +0.000 HD
ENDROOT
BRANCH   1  20
ATOM     19  C   UNL     1      -1.108  11.684  22.628  0.00  0.00    +0.000 C 
ATOM     20  N   UNL     1      -0.957  11.471  21.185  0.00  0.00    +0.000 N 
BRANCH  20  21
ATOM     21  C   UNL     1      -1.486  12.551  20.325  0.00  0.00    +0.000 C 
BRANCH  21  22
ATOM     22  C   UNL     1      -2.829  12.249  19.684  0.00  0.00    +0.000 A 
ATOM     23  C   UNL     1      -2.828  11.593  18.424  0.00  0.00    +0.000 A 
ATOM     24  C   UNL     1      -4.017  11.298  17.750  0.00  0.00    +0.000 A 
ATOM     25  C   UNL     1      -5.197  11.676  18.346  0.00  0.00    +0.000 A 
ATOM     26  C   UNL     1      -5.218  12.302  19.570  0.00  0.00    +0.000 A 
ATOM     27  C   UNL     1      -4.060  12.591  20.264  0.00  0.00    +0.000 A 
ATOM     28  O   UNL     1      -6.482  12.594  19.978  0.00  0.00    +0.000 OA
ATOM     29  C   UNL     1      -7.245  12.145  18.839  0.00  0.00    +0.000 C 
ATOM     30  O   UNL     1      -6.442  11.498  17.831  0.00  0.00    +0.000 OA
ENDBRANCH  21  22
ENDBRANCH  20  21
ENDBRANCH   1  20
TORSDOF 3
ENDMDL
MODEL 7
REMARK VINA RESULT:      -8.1      3.469      9.101
REMARK  Name = 
REMARK  4 active torsions:
REMARK  status: ('A' for Active; 'I' for Inactive)
REMARK    1  A    between atoms: C_1  and  N_2
REMARK    2  A    between atoms: N_2  and  C_3
REMARK    3  A    between atoms: N_2  and  C_13
REMARK    4  A    between atoms: C_3  and  C_4
REMARK                            x       y       z     vdW  Elec       q    Type
REMARK                         _______ _______ _______ _____ _____    ______ ____
ROOT
ATOM      1  C   UNL     1       0.784  11.134  19.922  0.00  0.00    +0.000 A 
ATOM      2  C   UNL     1       1.560  10.700  18.740  0.00  0.00    +0.000 A 
ATOM      3  N   UNL     1       2.022   9.529  18.483  0.00  0.00    +0.000 NA
ATOM      4  N   UNL     1       1.809   8.542  19.419  0.00  0.00    +0.000 N 
ATOM      5  C   UNL     1       2.367   7.315  19.067  0.00  0.00    +0.000 A 
ATOM      6  N   UNL     1       2.430   6.136  19.657  0.00  0.00    +0.000 NA
ATOM      7  C   UNL     1       3.235   5.353  18.845  0.00  0.00    +0.000 A 
ATOM      8  C   UNL     1       3.679   4.029  18.986  0.00  0.00    +0.000 A 
ATOM      9  C   UNL     1       4.571   3.513  18.029  0.00  0.00    +0.000 A 
ATOM     10  C   UNL     1       5.005   4.287  16.950  0.00  0.00    +0.000 A 
ATOM     11  C   UNL     1       4.540   5.589  16.768  0.00  0.00    +0.000 A 
ATOM     12  C   UNL     1       3.659   6.069  17.733  0.00  0.00    +0.000 A 
ATOM     13  N   UNL     1       3.024   7.262  17.861  0.00  0.00    +0.000 N 
ATOM     14  C   UNL     1       1.202   8.758  20.657  0.00  0.00    +0.000 A 
ATOM     15  O   UNL     1       1.060   7.929  21.551  0.00  0.00    +0.000 OA
ATOM     16  C   UNL     1       0.687  10.173  20.856  0.00  0.00    +0.000 A 
ATOM     17 CL   UNL     1      -0.124  10.468  22.365  0.00  0.00    +0.000 Cl
ATOM     18  H   UNL     1       3.069   8.054  17.242  0.00  0.00    +0.000 HD
ENDROOT
BRANCH   1  20
ATOM     19  C   UNL     1       1.183  13.542  19.373  0.00  0.00    +0.000 C 
ATOM     20  N   UNL     1       0.346  12.471  19.924  0.00  0.00    +0.000 N 
BRANCH  20  21
ATOM     21  C   UNL     1      -1.062  12.837  20.188  0.00  0.00    +0.000 C 
BRANCH  21  22
ATOM     22  C   UNL     1      -2.050  12.338  19.150  0.00  0.00    +0.000 A 
ATOM     23  C   UNL     1      -3.420  12.265  19.521  0.00  0.00    +0.000 A 
ATOM     24  C   UNL     1      -4.395  11.793  18.637  0.00  0.00    +0.000 A 
ATOM     25  C   UNL     1      -3.981  11.389  17.389  0.00  0.00    +0.000 A 
ATOM     26  C   UNL     1      -2.662  11.462  17.009  0.00  0.00    +0.000 A 
ATOM     27  C   UNL     1      -1.681  11.937  17.856  0.00  0.00    +0.000 A 
ATOM     28  O   UNL     1      -2.465  11.009  15.742  0.00  0.00    +0.000 OA
ATOM     29  C   UNL     1      -3.798  10.578  15.398  0.00  0.00    +0.000 C 
ATOM     30  O   UNL     1      -4.777  10.880  16.413  0.00  0.00    +0.000 OA
ENDBRANCH  21  22
ENDBRANCH  20  21
ENDBRANCH   1  20
TORSDOF 3
ENDMDL
MODEL 8
REMARK VINA RESULT:      -8.1      1.759      2.372
REMARK  Name = 
REMARK  4 active torsions:
REMARK  status: ('A' for Active; 'I' for Inactive)
REMARK    1  A    between atoms: C_1  and  N_2
REMARK    2  A    between atoms: N_2  and  C_3
REMARK    3  A    between atoms: N_2  and  C_13
REMARK    4  A    between atoms: C_3  and  C_4
REMARK                            x       y       z     vdW  Elec       q    Type
REMARK                         _______ _______ _______ _____ _____    ______ ____
ROOT
ATOM      1  C   UNL     1       2.582   5.603  18.929  0.00  0.00    +0.000 A 
ATOM      2  C   UNL     1       2.545   6.768  18.019  0.00  0.00    +0.000 A 
ATOM      3  N   UNL     1       2.197   7.974  18.291  0.00  0.00    +0.000 NA
ATOM      4  N   UNL     1       1.775   8.240  19.574  0.00  0.00    +0.000 N 
ATOM      5  C   UNL     1       1.394   9.566  19.768  0.00  0.00    +0.000 A 
ATOM      6  N   UNL     1       0.914  10.238  20.798  0.00  0.00    +0.000 NA
ATOM      7  C   UNL     1       0.620  11.503  20.315  0.00  0.00    +0.000 A 
ATOM      8  C   UNL     1       0.056  12.624  20.945  0.00  0.00    +0.000 A 
ATOM      9  C   UNL     1      -0.209  13.768  20.172  0.00  0.00    +0.000 A 
ATOM     10  C   UNL     1       0.090  13.807  18.807  0.00  0.00    +0.000 A 
ATOM     11  C   UNL     1       0.691  12.720  18.173  0.00  0.00    +0.000 A 
ATOM     12  C   UNL     1       0.939  11.604  18.967  0.00  0.00    +0.000 A 
ATOM     13  N   UNL     1       1.503  10.402  18.683  0.00  0.00    +0.000 N 
ATOM     14  C   UNL     1       1.622   7.267  20.563  0.00  0.00    +0.000 A 
ATOM     15  O   UNL     1       1.176   7.444  21.693  0.00  0.00    +0.000 OA
ATOM     16  C   UNL     1       2.066   5.878  20.139  0.00  0.00    +0.000 A 
ATOM     17 CL   UNL     1       1.941   4.648  21.362  0.00  0.00    +0.000 Cl
ATOM     18  H   UNL     1       1.874  10.088  17.802  0.00  0.00    +0.000 HD
ENDROOT
BRANCH   1  20
ATOM     19  C   UNL     1       2.287   3.657  17.384  0.00  0.00    +0.000 C 
ATOM     20  N   UNL     1       3.064   4.399  18.383  0.00  0.00    +0.000 N 
BRANCH  20  21
ATOM     21  C   UNL     1       4.470   3.972  18.539  0.00  0.00    +0.000 C 
BRANCH  21  22
ATOM     22  C   UNL     1       5.384   4.376  17.396  0.00  0.00    +0.000 A 
ATOM     23  C   UNL     1       6.291   5.446  17.620  0.00  0.00    +0.000 A 
ATOM     24  C   UNL     1       7.152   5.900  16.615  0.00  0.00    +0.000 A 
ATOM     25  C   UNL     1       7.083   5.280  15.390  0.00  0.00    +0.000 A 
ATOM     26  C   UNL     1       6.219   4.236  15.158  0.00  0.00    +0.000 A 
ATOM     27  C   UNL     1       5.369   3.758  16.136  0.00  0.00    +0.000 A 
ATOM     28  O   UNL     1       6.305   3.770  13.884  0.00  0.00    +0.000 OA
ATOM     29  C   UNL     1       7.269   4.685  13.324  0.00  0.00    +0.000 C 
ATOM     30  O   UNL     1       7.818   5.601  14.293  0.00  0.00    +0.000 OA
ENDBRANCH  21  22
ENDBRANCH  20  21
ENDBRANCH   1  20
TORSDOF 3
ENDMDL
MODEL 9
REMARK VINA RESULT:      -8.1      3.594      9.004
REMARK  Name = 
REMARK  4 active torsions:
REMARK  status: ('A' for Active; 'I' for Inactive)
REMARK    1  A    between atoms: C_1  and  N_2
REMARK    2  A    between atoms: N_2  and  C_3
REMARK    3  A    between atoms: N_2  and  C_13
REMARK    4  A    between atoms: C_3  and  C_4
REMARK                            x       y       z     vdW  Elec       q    Type
REMARK                         _______ _______ _______ _____ _____    ______ ____
ROOT
ATOM      1  C   UNL     1       0.581  10.161  19.485  0.00  0.00    +0.000 A 
ATOM      2  C   UNL     1       1.409  10.072  18.264  0.00  0.00    +0.000 A 
ATOM      3  N   UNL     1       2.176   9.110  17.895  0.00  0.00    +0.000 NA
ATOM      4  N   UNL     1       2.282   8.025  18.736  0.00  0.00    +0.000 N 
ATOM      5  C   UNL     1       3.154   7.045  18.267  0.00  0.00    +0.000 A 
ATOM      6  N   UNL     1       3.569   5.885  18.743  0.00  0.00    +0.000 NA
ATOM      7  C   UNL     1       4.535   5.440  17.856  0.00  0.00    +0.000 A 
ATOM      8  C   UNL     1       5.342   4.291  17.870  0.00  0.00    +0.000 A 
ATOM      9  C   UNL     1       6.312   4.137  16.863  0.00  0.00    +0.000 A 
ATOM     10  C   UNL     1       6.472   5.095  15.859  0.00  0.00    +0.000 A 
ATOM     11  C   UNL     1       5.651   6.221  15.803  0.00  0.00    +0.000 A 
ATOM     12  C   UNL     1       4.702   6.342  16.814  0.00  0.00    +0.000 A 
ATOM     13  N   UNL     1       3.760   7.288  17.057  0.00  0.00    +0.000 N 
ATOM     14  C   UNL     1       1.680   7.948  19.992  0.00  0.00    +0.000 A 
ATOM     15  O   UNL     1       1.809   7.038  20.805  0.00  0.00    +0.000 OA
ATOM     16  C   UNL     1       0.791   9.134  20.326  0.00  0.00    +0.000 A 
ATOM     17 CL   UNL     1      -0.021   9.051  21.861  0.00  0.00    +0.000 Cl
ATOM     18  H   UNL     1       3.558   8.111  16.514  0.00  0.00    +0.000 HD
ENDROOT
BRANCH   1  20
ATOM     19  C   UNL     1       0.333  12.648  19.364  0.00  0.00    +0.000 C 
ATOM     20  N   UNL     1      -0.218  11.312  19.616  0.00  0.00    +0.000 N 
BRANCH  20  21
ATOM     21  C   UNL     1      -1.692  11.239  19.709  0.00  0.00    +0.000 C 
BRANCH  21  22
ATOM     22  C   UNL     1      -2.404  11.118  18.375  0.00  0.00    +0.000 A 
ATOM     23  C   UNL     1      -3.677  11.738  18.246  0.00  0.00    +0.000 A 
ATOM     24  C   UNL     1      -4.415  11.656  17.061  0.00  0.00    +0.000 A 
ATOM     25  C   UNL     1      -3.871  10.941  16.020  0.00  0.00    +0.000 A 
ATOM     26  C   UNL     1      -2.637  10.344  16.123  0.00  0.00    +0.000 A 
ATOM     27  C   UNL     1      -1.880  10.421  17.275  0.00  0.00    +0.000 A 
ATOM     28  O   UNL     1      -2.288   9.684  14.987  0.00  0.00    +0.000 OA
ATOM     29  C   UNL     1      -3.471   9.876  14.186  0.00  0.00    +0.000 C 
ATOM     30  O   UNL     1      -4.452  10.731  14.809  0.00  0.00    +0.000 OA
ENDBRANCH  21  22
ENDBRANCH  20  21
ENDBRANCH   1  20
TORSDOF 3
ENDMDL
