MODEL 1
REMARK VINA RESULT:      -8.7      0.000      0.000
REMARK  Name = 
REMARK  5 active torsions:
REMARK  status: ('A' for Active; 'I' for Inactive)
REMARK    1  A    between atoms: C_1  and  O_2
REMARK    2  A    between atoms: O_2  and  C_3
REMARK    3  A    between atoms: C_3  and  C_5
REMARK    4  A    between atoms: C_8  and  N_9
REMARK    5  A    between atoms: C_10  and  C_12
REMARK                            x       y       z     vdW  Elec       q    Type
REMARK                         _______ _______ _______ _____ _____    ______ ____
ROOT
ATOM      1  C   UNL     1       1.536   8.866  18.378  0.00  0.00    +0.000 A 
ATOM      2  C   UNL     1       1.770   8.337  19.660  0.00  0.00    +0.000 A 
ATOM      3  C   UNL     1       2.278   7.025  19.785  0.00  0.00    +0.000 A 
ATOM      4  C   UNL     1       2.611   6.361  18.617  0.00  0.00    +0.000 A 
ATOM      5  C   UNL     1       3.012   4.963  18.328  0.00  0.00    +0.000 A 
ATOM      6  O   UNL     1       2.197   4.038  18.402  0.00  0.00    +0.000 OA
ATOM      7  N   UNL     1       4.301   4.872  17.832  0.00  0.00    +0.000 N 
ATOM      8  C   UNL     1       5.100   5.960  18.140  0.00  0.00    +0.000 A 
ATOM      9  N   UNL     1       4.654   7.169  17.884  0.00  0.00    +0.000 NA
ATOM     10  C   UNL     1       3.183   7.192  17.685  0.00  0.00    +0.000 A 
ATOM     11  C   UNL     1       2.365   8.312  17.380  0.00  0.00    +0.000 A 
ATOM     12  C   UNL     1       6.405   5.400  18.743  0.00  0.00    +0.000 C 
ATOM     13  C   UNL     1       7.551   5.014  17.811  0.00  0.00    +0.000 C 
ATOM     14  C   UNL     1       7.181   4.363  16.476  0.00  0.00    +0.000 C 
ATOM     15  C   UNL     1       5.887   4.875  15.845  0.00  0.00    +0.000 C 
ATOM     16  C   UNL     1       4.600   4.303  16.521  0.00  0.00    +0.000 C 
ENDROOT
BRANCH   1  18
ATOM     17  N   UNL     1      -0.757   9.559  17.437  0.00  0.00    +0.000 N 
ATOM     18  C   UNL     1       0.357   9.879  18.232  0.00  0.00    +0.000 C 
ATOM     19  O   UNL     1       0.425  10.919  18.892  0.00  0.00    +0.000 OA
ATOM     20  H   UNL     1      -0.692   8.702  16.912  0.00  0.00    +0.000 HD
BRANCH  17  24
ATOM     21  C   UNL     1      -4.556  11.727  17.234  0.00  0.00    +0.000 A 
ATOM     22  C   UNL     1      -3.940  11.280  16.050  0.00  0.00    +0.000 A 
ATOM     23  C   UNL     1      -2.689  10.570  16.066  0.00  0.00    +0.000 A 
ATOM     24  C   UNL     1      -2.016  10.280  17.263  0.00  0.00    +0.000 A 
ATOM     25  C   UNL     1      -2.643  10.771  18.434  0.00  0.00    +0.000 A 
ATOM     26  C   UNL     1      -3.878  11.472  18.428  0.00  0.00    +0.000 A 
BRANCH  21  27
ATOM     27  C   UNL     1      -5.899  12.405  17.224  0.00  0.00    +0.000 C 
ATOM     28  O   UNL     1      -6.121  13.460  16.638  0.00  0.00    +0.000 OA
BRANCH  27  30
ATOM     29  C   UNL     1      -7.509  12.420  18.996  0.00  0.00    +0.000 C 
ATOM     30  O   UNL     1      -6.804  11.707  17.971  0.00  0.00    +0.000 OA
ENDBRANCH  27  30
ENDBRANCH  21  27
ENDBRANCH  17  24
ENDBRANCH   1  18
TORSDOF 4
ENDMDL
MODEL 2
REMARK VINA RESULT:      -8.4      0.670      1.054
REMARK  Name = 
REMARK  5 active torsions:
REMARK  status: ('A' for Active; 'I' for Inactive)
REMARK    1  A    between atoms: C_1  and  O_2
REMARK    2  A    between atoms: O_2  and  C_3
REMARK    3  A    between atoms: C_3  and  C_5
REMARK    4  A    between atoms: C_8  and  N_9
REMARK    5  A    between atoms: C_10  and  C_12
REMARK                            x       y       z     vdW  Elec       q    Type
REMARK                         _______ _______ _______ _____ _____    ______ ____
ROOT
ATOM      1  C   UNL     1       1.685   8.862  18.555  0.00  0.00    +0.000 A 
ATOM      2  C   UNL     1       1.856   8.172  19.770  0.00  0.00    +0.000 A 
ATOM      3  C   UNL     1       2.300   6.831  19.746  0.00  0.00    +0.000 A 
ATOM      4  C   UNL     1       2.639   6.297  18.515  0.00  0.00    +0.000 A 
ATOM      5  C   UNL     1       2.984   4.926  18.068  0.00  0.00    +0.000 A 
ATOM      6  O   UNL     1       2.127   4.039  18.008  0.00  0.00    +0.000 OA
ATOM      7  N   UNL     1       4.283   4.832  17.597  0.00  0.00    +0.000 N 
ATOM      8  C   UNL     1       5.120   5.835  18.054  0.00  0.00    +0.000 A 
ATOM      9  N   UNL     1       4.737   7.086  17.936  0.00  0.00    +0.000 NA
ATOM     10  C   UNL     1       3.275   7.205  17.705  0.00  0.00    +0.000 A 
ATOM     11  C   UNL     1       2.518   8.392  17.518  0.00  0.00    +0.000 A 
ATOM     12  C   UNL     1       6.380   5.144  18.617  0.00  0.00    +0.000 C 
ATOM     13  C   UNL     1       7.535   4.818  17.674  0.00  0.00    +0.000 C 
ATOM     14  C   UNL     1       7.176   4.351  16.261  0.00  0.00    +0.000 C 
ATOM     15  C   UNL     1       5.926   4.998  15.665  0.00  0.00    +0.000 C 
ATOM     16  C   UNL     1       4.595   4.411  16.234  0.00  0.00    +0.000 C 
ENDROOT
BRANCH   1  18
ATOM     17  N   UNL     1      -0.771   9.564  18.245  0.00  0.00    +0.000 N 
ATOM     18  C   UNL     1       0.558   9.941  18.504  0.00  0.00    +0.000 C 
ATOM     19  O   UNL     1       0.881  11.103  18.766  0.00  0.00    +0.000 OA
ATOM     20  H   UNL     1      -0.916   8.597  18.008  0.00  0.00    +0.000 HD
BRANCH  17  24
ATOM     21  C   UNL     1      -4.521  11.820  18.094  0.00  0.00    +0.000 A 
ATOM     22  C   UNL     1      -3.547  12.143  19.057  0.00  0.00    +0.000 A 
ATOM     23  C   UNL     1      -2.303  11.426  19.150  0.00  0.00    +0.000 A 
ATOM     24  C   UNL     1      -1.991  10.368  18.282  0.00  0.00    +0.000 A 
ATOM     25  C   UNL     1      -3.003  10.045  17.346  0.00  0.00    +0.000 A 
ATOM     26  C   UNL     1      -4.233  10.748  17.247  0.00  0.00    +0.000 A 
BRANCH  21  27
ATOM     27  C   UNL     1      -5.789  12.616  17.949  0.00  0.00    +0.000 C 
ATOM     28  O   UNL     1      -6.176  13.086  16.882  0.00  0.00    +0.000 OA
BRANCH  27  30
ATOM     29  C   UNL     1      -7.323  11.731  19.561  0.00  0.00    +0.000 C 
ATOM     30  O   UNL     1      -6.414  12.763  19.154  0.00  0.00    +0.000 OA
ENDBRANCH  27  30
ENDBRANCH  21  27
ENDBRANCH  17  24
ENDBRANCH   1  18
TORSDOF 4
ENDMDL
MODEL 3
REMARK VINA RESULT:      -8.2      2.902      3.285
REMARK  Name = 
REMARK  5 active torsions:
REMARK  status: ('A' for Active; 'I' for Inactive)
REMARK    1  A    between atoms: C_1  and  O_2
REMARK    2  A    between atoms: O_2  and  C_3
REMARK    3  A    between atoms: C_3  and  C_5
REMARK    4  A    between atoms: C_8  and  N_9
REMARK    5  A    between atoms: C_10  and  C_12
REMARK                            x       y       z     vdW  Elec       q    Type
REMARK                         _______ _______ _______ _____ _____    ______ ____
ROOT
ATOM      1  C   UNL     1       1.815   8.508  19.056  0.00  0.00    +0.000 A 
ATOM      2  C   UNL     1       2.004   7.589  20.105  0.00  0.00    +0.000 A 
ATOM      3  C   UNL     1       2.405   6.268  19.803  0.00  0.00    +0.000 A 
ATOM      4  C   UNL     1       2.684   5.978  18.479  0.00  0.00    +0.000 A 
ATOM      5  C   UNL     1       2.971   4.713  17.759  0.00  0.00    +0.000 A 
ATOM      6  O   UNL     1       2.084   3.877  17.562  0.00  0.00    +0.000 OA
ATOM      7  N   UNL     1       4.249   4.682  17.228  0.00  0.00    +0.000 N 
ATOM      8  C   UNL     1       5.133   5.555  17.839  0.00  0.00    +0.000 A 
ATOM      9  N   UNL     1       4.786   6.814  17.982  0.00  0.00    +0.000 NA
ATOM     10  C   UNL     1       3.321   7.012  17.837  0.00  0.00    +0.000 A 
ATOM     11  C   UNL     1       2.597   8.230  17.915  0.00  0.00    +0.000 A 
ATOM     12  C   UNL     1       6.388   4.736  18.206  0.00  0.00    +0.000 C 
ATOM     13  C   UNL     1       7.500   4.573  17.172  0.00  0.00    +0.000 C 
ATOM     14  C   UNL     1       7.078   4.402  15.710  0.00  0.00    +0.000 C 
ATOM     15  C   UNL     1       5.830   5.183  15.302  0.00  0.00    +0.000 C 
ATOM     16  C   UNL     1       4.501   4.529  15.798  0.00  0.00    +0.000 C 
ENDROOT
BRANCH   1  18
ATOM     17  N   UNL     1       0.226   9.876  20.548  0.00  0.00    +0.000 N 
ATOM     18  C   UNL     1       0.722   9.603  19.261  0.00  0.00    +0.000 C 
ATOM     19  O   UNL     1       0.378  10.247  18.266  0.00  0.00    +0.000 OA
ATOM     20  H   UNL     1       0.546   9.266  21.281  0.00  0.00    +0.000 HD
BRANCH  17  24
ATOM     21  C   UNL     1      -2.446  12.939  22.175  0.00  0.00    +0.000 A 
ATOM     22  C   UNL     1      -2.339  12.771  20.782  0.00  0.00    +0.000 A 
ATOM     23  C   UNL     1      -1.469  11.783  20.201  0.00  0.00    +0.000 A 
ATOM     24  C   UNL     1      -0.684  10.930  20.992  0.00  0.00    +0.000 A 
ATOM     25  C   UNL     1      -0.789  11.145  22.387  0.00  0.00    +0.000 A 
ATOM     26  C   UNL     1      -1.645  12.117  22.970  0.00  0.00    +0.000 A 
BRANCH  21  27
ATOM     27  C   UNL     1      -3.409  13.922  22.785  0.00  0.00    +0.000 C 
ATOM     28  O   UNL     1      -3.570  15.063  22.362  0.00  0.00    +0.000 OA
BRANCH  27  30
ATOM     29  C   UNL     1      -5.421  13.034  23.733  0.00  0.00    +0.000 C 
ATOM     30  O   UNL     1      -4.036  13.381  23.871  0.00  0.00    +0.000 OA
ENDBRANCH  27  30
ENDBRANCH  21  27
ENDBRANCH  17  24
ENDBRANCH   1  18
TORSDOF 4
ENDMDL
MODEL 4
REMARK VINA RESULT:      -8.0      4.240      5.304
REMARK  Name = 
REMARK  5 active torsions:
REMARK  status: ('A' for Active; 'I' for Inactive)
REMARK    1  A    between atoms: C_1  and  O_2
REMARK    2  A    between atoms: O_2  and  C_3
REMARK    3  A    between atoms: C_3  and  C_5
REMARK    4  A    between atoms: C_8  and  N_9
REMARK    5  A    between atoms: C_10  and  C_12
REMARK                            x       y       z     vdW  Elec       q    Type
REMARK                         _______ _______ _______ _____ _____    ______ ____
ROOT
ATOM      1  C   UNL     1       1.443   8.340  20.519  0.00  0.00    +0.000 A 
ATOM      2  C   UNL     1       1.331   8.541  19.131  0.00  0.00    +0.000 A 
ATOM      3  C   UNL     1       2.186   7.831  18.258  0.00  0.00    +0.000 A 
ATOM      4  C   UNL     1       3.032   6.894  18.823  0.00  0.00    +0.000 A 
ATOM      5  C   UNL     1       4.152   6.086  18.282  0.00  0.00    +0.000 A 
ATOM      6  O   UNL     1       5.231   6.608  17.988  0.00  0.00    +0.000 OA
ATOM      7  N   UNL     1       3.889   4.727  18.313  0.00  0.00    +0.000 N 
ATOM      8  C   UNL     1       2.542   4.416  18.372  0.00  0.00    +0.000 A 
ATOM      9  N   UNL     1       1.796   4.992  19.288  0.00  0.00    +0.000 NA
ATOM     10  C   UNL     1       2.440   6.205  19.853  0.00  0.00    +0.000 A 
ATOM     11  C   UNL     1       1.937   7.064  20.865  0.00  0.00    +0.000 A 
ATOM     12  C   UNL     1       2.270   3.388  17.254  0.00  0.00    +0.000 C 
ATOM     13  C   UNL     1       2.470   1.902  17.543  0.00  0.00    +0.000 C 
ATOM     14  C   UNL     1       3.649   1.515  18.440  0.00  0.00    +0.000 C 
ATOM     15  C   UNL     1       3.966   2.511  19.555  0.00  0.00    +0.000 C 
ATOM     16  C   UNL     1       4.721   3.782  19.053  0.00  0.00    +0.000 C 
ENDROOT
BRANCH   1  18
ATOM     17  N   UNL     1       0.057  10.422  21.123  0.00  0.00    +0.000 N 
ATOM     18  C   UNL     1       1.118   9.556  21.441  0.00  0.00    +0.000 C 
ATOM     19  O   UNL     1       1.783   9.671  22.474  0.00  0.00    +0.000 OA
ATOM     20  H   UNL     1      -0.394  10.258  20.238  0.00  0.00    +0.000 HD
BRANCH  17  24
ATOM     21  C   UNL     1      -1.392  13.912  23.335  0.00  0.00    +0.000 A 
ATOM     22  C   UNL     1      -2.038  12.670  23.484  0.00  0.00    +0.000 A 
ATOM     23  C   UNL     1      -1.602  11.498  22.772  0.00  0.00    +0.000 A 
ATOM     24  C   UNL     1      -0.507  11.527  21.895  0.00  0.00    +0.000 A 
ATOM     25  C   UNL     1       0.101  12.796  21.742  0.00  0.00    +0.000 A 
ATOM     26  C   UNL     1      -0.321  13.959  22.440  0.00  0.00    +0.000 A 
BRANCH  21  27
ATOM     27  C   UNL     1      -1.800  15.120  24.132  0.00  0.00    +0.000 C 
ATOM     28  O   UNL     1      -2.845  15.737  23.941  0.00  0.00    +0.000 OA
BRANCH  27  30
ATOM     29  C   UNL     1      -1.261  16.198  26.202  0.00  0.00    +0.000 C 
ATOM     30  O   UNL     1      -0.847  15.442  25.055  0.00  0.00    +0.000 OA
ENDBRANCH  27  30
ENDBRANCH  21  27
ENDBRANCH  17  24
ENDBRANCH   1  18
TORSDOF 4
ENDMDL
MODEL 5
REMARK VINA RESULT:      -8.0      3.926     10.477
REMARK  Name = 
REMARK  5 active torsions:
REMARK  status: ('A' for Active; 'I' for Inactive)
REMARK    1  A    between atoms: C_1  and  O_2
REMARK    2  A    between atoms: O_2  and  C_3
REMARK    3  A    between atoms: C_3  and  C_5
REMARK    4  A    between atoms: C_8  and  N_9
REMARK    5  A    between atoms: C_10  and  C_12
REMARK                            x       y       z     vdW  Elec       q    Type
REMARK                         _______ _______ _______ _____ _____    ______ ____
ROOT
ATOM      1  C   UNL     1       0.789   9.608  20.811  0.00  0.00    +0.000 A 
ATOM      2  C   UNL     1       1.174  10.810  20.188  0.00  0.00    +0.000 A 
ATOM      3  C   UNL     1       0.246  11.872  20.101  0.00  0.00    +0.000 A 
ATOM      4  C   UNL     1      -0.976  11.698  20.727  0.00  0.00    +0.000 A 
ATOM      5  C   UNL     1      -2.232  12.486  20.729  0.00  0.00    +0.000 A 
ATOM      6  O   UNL     1      -2.959  12.530  19.732  0.00  0.00    +0.000 OA
ATOM      7  N   UNL     1      -2.538  12.994  21.980  0.00  0.00    +0.000 N 
ATOM      8  C   UNL     1      -1.449  13.090  22.830  0.00  0.00    +0.000 A 
ATOM      9  N   UNL     1      -0.680  12.039  22.998  0.00  0.00    +0.000 NA
ATOM     10  C   UNL     1      -0.864  11.032  21.923  0.00  0.00    +0.000 A 
ATOM     11  C   UNL     1      -0.216   9.776  21.787  0.00  0.00    +0.000 A 
ATOM     12  C   UNL     1      -1.447  14.526  23.394  0.00  0.00    +0.000 C 
ATOM     13  C   UNL     1      -2.261  14.835  24.648  0.00  0.00    +0.000 C 
ATOM     14  C   UNL     1      -3.614  14.134  24.797  0.00  0.00    +0.000 C 
ATOM     15  C   UNL     1      -3.669  12.713  24.239  0.00  0.00    +0.000 C 
ATOM     16  C   UNL     1      -3.775  12.663  22.682  0.00  0.00    +0.000 C 
ENDROOT
BRANCH   1  18
ATOM     17  N   UNL     1       1.922   8.231  18.955  0.00  0.00    +0.000 N 
ATOM     18  C   UNL     1       1.431   8.292  20.271  0.00  0.00    +0.000 C 
ATOM     19  O   UNL     1       1.544   7.355  21.067  0.00  0.00    +0.000 OA
ATOM     20  H   UNL     1       1.744   9.038  18.382  0.00  0.00    +0.000 HD
BRANCH  17  24
ATOM     21  C   UNL     1       4.352   5.273  16.830  0.00  0.00    +0.000 A 
ATOM     22  C   UNL     1       3.218   4.859  17.553  0.00  0.00    +0.000 A 
ATOM     23  C   UNL     1       2.393   5.793  18.273  0.00  0.00    +0.000 A 
ATOM     24  C   UNL     1       2.672   7.168  18.289  0.00  0.00    +0.000 A 
ATOM     25  C   UNL     1       3.836   7.550  17.580  0.00  0.00    +0.000 A 
ATOM     26  C   UNL     1       4.656   6.635  16.866  0.00  0.00    +0.000 A 
BRANCH  21  27
ATOM     27  C   UNL     1       5.172   4.308  16.018  0.00  0.00    +0.000 C 
ATOM     28  O   UNL     1       5.572   3.230  16.449  0.00  0.00    +0.000 OA
BRANCH  27  30
ATOM     29  C   UNL     1       6.770   4.709  14.280  0.00  0.00    +0.000 C 
ATOM     30  O   UNL     1       5.427   4.809  14.774  0.00  0.00    +0.000 OA
ENDBRANCH  27  30
ENDBRANCH  21  27
ENDBRANCH  17  24
ENDBRANCH   1  18
TORSDOF 4
ENDMDL
MODEL 6
REMARK VINA RESULT:      -8.0      3.958      4.851
REMARK  Name = 
REMARK  5 active torsions:
REMARK  status: ('A' for Active; 'I' for Inactive)
REMARK    1  A    between atoms: C_1  and  O_2
REMARK    2  A    between atoms: O_2  and  C_3
REMARK    3  A    between atoms: C_3  and  C_5
REMARK    4  A    between atoms: C_8  and  N_9
REMARK    5  A    between atoms: C_10  and  C_12
REMARK                            x       y       z     vdW  Elec       q    Type
REMARK                         _______ _______ _______ _____ _____    ______ ____
ROOT
ATOM      1  C   UNL     1       1.438   8.378  20.469  0.00  0.00    +0.000 A 
ATOM      2  C   UNL     1       1.353   8.594  19.082  0.00  0.00    +0.000 A 
ATOM      3  C   UNL     1       2.227   7.896  18.218  0.00  0.00    +0.000 A 
ATOM      4  C   UNL     1       3.066   6.956  18.791  0.00  0.00    +0.000 A 
ATOM      5  C   UNL     1       4.200   6.158  18.265  0.00  0.00    +0.000 A 
ATOM      6  O   UNL     1       5.283   6.688  17.998  0.00  0.00    +0.000 OA
ATOM      7  N   UNL     1       3.942   4.798  18.276  0.00  0.00    +0.000 N 
ATOM      8  C   UNL     1       2.595   4.481  18.305  0.00  0.00    +0.000 A 
ATOM      9  N   UNL     1       1.829   5.045  19.212  0.00  0.00    +0.000 NA
ATOM     10  C   UNL     1       2.456   6.254  19.802  0.00  0.00    +0.000 A 
ATOM     11  C   UNL     1       1.930   7.101  20.812  0.00  0.00    +0.000 A 
ATOM     12  C   UNL     1       2.350   3.464  17.171  0.00  0.00    +0.000 C 
ATOM     13  C   UNL     1       2.550   1.976  17.449  0.00  0.00    +0.000 C 
ATOM     14  C   UNL     1       3.713   1.584  18.365  0.00  0.00    +0.000 C 
ATOM     15  C   UNL     1       4.003   2.570  19.496  0.00  0.00    +0.000 C 
ATOM     16  C   UNL     1       4.763   3.849  19.023  0.00  0.00    +0.000 C 
ENDROOT
BRANCH   1  18
ATOM     17  N   UNL     1       0.111  10.516  21.010  0.00  0.00    +0.000 N 
ATOM     18  C   UNL     1       1.089   9.584  21.397  0.00  0.00    +0.000 C 
ATOM     19  O   UNL     1       1.656   9.632  22.493  0.00  0.00    +0.000 OA
ATOM     20  H   UNL     1      -0.260  10.404  20.081  0.00  0.00    +0.000 HD
BRANCH  17  24
ATOM     21  C   UNL     1      -1.837  13.644  23.375  0.00  0.00    +0.000 A 
ATOM     22  C   UNL     1      -0.779  13.977  22.508  0.00  0.00    +0.000 A 
ATOM     23  C   UNL     1      -0.104  12.983  21.717  0.00  0.00    +0.000 A 
ATOM     24  C   UNL     1      -0.467  11.628  21.762  0.00  0.00    +0.000 A 
ATOM     25  C   UNL     1      -1.511  11.319  22.667  0.00  0.00    +0.000 A 
ATOM     26  C   UNL     1      -2.184  12.294  23.451  0.00  0.00    +0.000 A 
BRANCH  21  27
ATOM     27  C   UNL     1      -2.591  14.692  24.148  0.00  0.00    +0.000 C 
ATOM     28  O   UNL     1      -2.072  15.413  24.995  0.00  0.00    +0.000 OA
BRANCH  27  30
ATOM     29  C   UNL     1      -4.255  15.234  22.514  0.00  0.00    +0.000 C 
ATOM     30  O   UNL     1      -3.911  14.700  23.800  0.00  0.00    +0.000 OA
ENDBRANCH  27  30
ENDBRANCH  21  27
ENDBRANCH  17  24
ENDBRANCH   1  18
TORSDOF 4
ENDMDL
MODEL 7
REMARK VINA RESULT:      -8.0      4.057      5.082
REMARK  Name = 
REMARK  5 active torsions:
REMARK  status: ('A' for Active; 'I' for Inactive)
REMARK    1  A    between atoms: C_1  and  O_2
REMARK    2  A    between atoms: O_2  and  C_3
REMARK    3  A    between atoms: C_3  and  C_5
REMARK    4  A    between atoms: C_8  and  N_9
REMARK    5  A    between atoms: C_10  and  C_12
REMARK                            x       y       z     vdW  Elec       q    Type
REMARK                         _______ _______ _______ _____ _____    ______ ____
ROOT
ATOM      1  C   UNL     1       1.515   8.831  19.118  0.00  0.00    +0.000 A 
ATOM      2  C   UNL     1       1.690   8.745  17.725  0.00  0.00    +0.000 A 
ATOM      3  C   UNL     1       2.670   7.870  17.204  0.00  0.00    +0.000 A 
ATOM      4  C   UNL     1       3.345   7.066  18.106  0.00  0.00    +0.000 A 
ATOM      5  C   UNL     1       4.514   6.163  17.977  0.00  0.00    +0.000 A 
ATOM      6  O   UNL     1       5.652   6.612  17.811  0.00  0.00    +0.000 OA
ATOM      7  N   UNL     1       4.191   4.839  18.224  0.00  0.00    +0.000 N 
ATOM      8  C   UNL     1       2.847   4.550  18.068  0.00  0.00    +0.000 A 
ATOM      9  N   UNL     1       1.960   5.302  18.679  0.00  0.00    +0.000 NA
ATOM     10  C   UNL     1       2.530   6.604  19.110  0.00  0.00    +0.000 A 
ATOM     11  C   UNL     1       1.874   7.653  19.805  0.00  0.00    +0.000 A 
ATOM     12  C   UNL     1       2.759   3.315  17.146  0.00  0.00    +0.000 C 
ATOM     13  C   UNL     1       2.833   1.920  17.761  0.00  0.00    +0.000 C 
ATOM     14  C   UNL     1       3.791   1.722  18.939  0.00  0.00    +0.000 C 
ATOM     15  C   UNL     1       3.923   2.924  19.873  0.00  0.00    +0.000 C 
ATOM     16  C   UNL     1       4.817   4.064  19.292  0.00  0.00    +0.000 C 
ENDROOT
BRANCH   1  18
ATOM     17  N   UNL     1       0.241  10.270  20.830  0.00  0.00    +0.000 N 
ATOM     18  C   UNL     1       1.066  10.212  19.693  0.00  0.00    +0.000 C 
ATOM     19  O   UNL     1       1.520  11.221  19.148  0.00  0.00    +0.000 OA
ATOM     20  H   UNL     1      -0.102   9.388  21.170  0.00  0.00    +0.000 HD
BRANCH  17  24
ATOM     21  C   UNL     1      -1.276  13.561  23.288  0.00  0.00    +0.000 A 
ATOM     22  C   UNL     1      -0.223  13.791  22.382  0.00  0.00    +0.000 A 
ATOM     23  C   UNL     1       0.313  12.739  21.559  0.00  0.00    +0.000 A 
ATOM     24  C   UNL     1      -0.187  11.429  21.611  0.00  0.00    +0.000 A 
ATOM     25  C   UNL     1      -1.223  11.222  22.553  0.00  0.00    +0.000 A 
ATOM     26  C   UNL     1      -1.759  12.254  23.370  0.00  0.00    +0.000 A 
BRANCH  21  27
ATOM     27  C   UNL     1      -1.886  14.675  24.095  0.00  0.00    +0.000 C 
ATOM     28  O   UNL     1      -3.095  14.876  24.167  0.00  0.00    +0.000 OA
BRANCH  27  30
ATOM     29  C   UNL     1      -1.106  15.775  26.074  0.00  0.00    +0.000 C 
ATOM     30  O   UNL     1      -0.919  15.429  24.695  0.00  0.00    +0.000 OA
ENDBRANCH  27  30
ENDBRANCH  21  27
ENDBRANCH  17  24
ENDBRANCH   1  18
TORSDOF 4
ENDMDL
MODEL 8
REMARK VINA RESULT:      -7.9      0.842      1.036
REMARK  Name = 
REMARK  5 active torsions:
REMARK  status: ('A' for Active; 'I' for Inactive)
REMARK    1  A    between atoms: C_1  and  O_2
REMARK    2  A    between atoms: O_2  and  C_3
REMARK    3  A    between atoms: C_3  and  C_5
REMARK    4  A    between atoms: C_8  and  N_9
REMARK    5  A    between atoms: C_10  and  C_12
REMARK                            x       y       z     vdW  Elec       q    Type
REMARK                         _______ _______ _______ _____ _____    ______ ____
ROOT
ATOM      1  C   UNL     1       1.585   8.575  18.913  0.00  0.00    +0.000 A 
ATOM      2  C   UNL     1       1.903   7.886  20.098  0.00  0.00    +0.000 A 
ATOM      3  C   UNL     1       2.411   6.570  20.018  0.00  0.00    +0.000 A 
ATOM      4  C   UNL     1       2.659   6.063  18.755  0.00  0.00    +0.000 A 
ATOM      5  C   UNL     1       3.030   4.715  18.261  0.00  0.00    +0.000 A 
ATOM      6  O   UNL     1       2.217   3.786  18.271  0.00  0.00    +0.000 OA
ATOM      7  N   UNL     1       4.282   4.692  17.670  0.00  0.00    +0.000 N 
ATOM      8  C   UNL     1       5.107   5.733  18.059  0.00  0.00    +0.000 A 
ATOM      9  N   UNL     1       4.651   6.964  17.992  0.00  0.00    +0.000 NA
ATOM     10  C   UNL     1       3.170   7.009  17.900  0.00  0.00    +0.000 A 
ATOM     11  C   UNL     1       2.340   8.156  17.798  0.00  0.00    +0.000 A 
ATOM     12  C   UNL     1       6.447   5.104  18.495  0.00  0.00    +0.000 C 
ATOM     13  C   UNL     1       7.524   4.845  17.444  0.00  0.00    +0.000 C 
ATOM     14  C   UNL     1       7.058   4.370  16.065  0.00  0.00    +0.000 C 
ATOM     15  C   UNL     1       5.727   4.955  15.596  0.00  0.00    +0.000 C 
ATOM     16  C   UNL     1       4.487   4.297  16.279  0.00  0.00    +0.000 C 
ENDROOT
BRANCH   1  18
ATOM     17  N   UNL     1      -0.651   9.517  18.055  0.00  0.00    +0.000 N 
ATOM     18  C   UNL     1       0.405   9.595  18.980  0.00  0.00    +0.000 C 
ATOM     19  O   UNL     1       0.417  10.408  19.909  0.00  0.00    +0.000 OA
ATOM     20  H   UNL     1      -0.541   8.842  17.317  0.00  0.00    +0.000 HD
BRANCH  17  24
ATOM     21  C   UNL     1      -4.312  11.916  18.175  0.00  0.00    +0.000 A 
ATOM     22  C   UNL     1      -4.185  10.879  17.233  0.00  0.00    +0.000 A 
ATOM     23  C   UNL     1      -2.998  10.068  17.151  0.00  0.00    +0.000 A 
ATOM     24  C   UNL     1      -1.906  10.265  18.009  0.00  0.00    +0.000 A 
ATOM     25  C   UNL     1      -2.050  11.337  18.923  0.00  0.00    +0.000 A 
ATOM     26  C   UNL     1      -3.217  12.141  19.012  0.00  0.00    +0.000 A 
BRANCH  21  27
ATOM     27  C   UNL     1      -5.580  12.716  18.310  0.00  0.00    +0.000 C 
ATOM     28  O   UNL     1      -5.959  13.210  19.368  0.00  0.00    +0.000 OA
BRANCH  27  30
ATOM     29  C   UNL     1      -6.770  14.055  16.722  0.00  0.00    +0.000 C 
ATOM     30  O   UNL     1      -6.245  12.781  17.120  0.00  0.00    +0.000 OA
ENDBRANCH  27  30
ENDBRANCH  21  27
ENDBRANCH  17  24
ENDBRANCH   1  18
TORSDOF 4
ENDMDL
MODEL 9
REMARK VINA RESULT:      -7.9      4.307     10.083
REMARK  Name = 
REMARK  5 active torsions:
REMARK  status: ('A' for Active; 'I' for Inactive)
REMARK    1  A    between atoms: C_1  and  O_2
REMARK    2  A    between atoms: O_2  and  C_3
REMARK    3  A    between atoms: C_3  and  C_5
REMARK    4  A    between atoms: C_8  and  N_9
REMARK    5  A    between atoms: C_10  and  C_12
REMARK                            x       y       z     vdW  Elec       q    Type
REMARK                         _______ _______ _______ _____ _____    ______ ____
ROOT
ATOM      1  C   UNL     1       1.138  10.373  19.038  0.00  0.00    +0.000 A 
ATOM      2  C   UNL     1       0.156  10.580  20.025  0.00  0.00    +0.000 A 
ATOM      3  C   UNL     1       0.146  11.794  20.747  0.00  0.00    +0.000 A 
ATOM      4  C   UNL     1       1.058  12.763  20.369  0.00  0.00    +0.000 A 
ATOM      5  C   UNL     1       1.455  14.064  20.961  0.00  0.00    +0.000 A 
ATOM      6  O   UNL     1       2.115  14.115  22.004  0.00  0.00    +0.000 OA
ATOM      7  N   UNL     1       1.149  15.136  20.141  0.00  0.00    +0.000 N 
ATOM      8  C   UNL     1       0.155  14.869  19.214  0.00  0.00    +0.000 A 
ATOM      9  N   UNL     1       0.262  13.800  18.458  0.00  0.00    +0.000 NA
ATOM     10  C   UNL     1       1.232  12.819  19.008  0.00  0.00    +0.000 A 
ATOM     11  C   UNL     1       1.610  11.568  18.455  0.00  0.00    +0.000 A 
ATOM     12  C   UNL     1      -0.886  16.002  19.336  0.00  0.00    +0.000 C 
ATOM     13  C   UNL     1      -0.689  17.283  18.530  0.00  0.00    +0.000 C 
ATOM     14  C   UNL     1       0.743  17.800  18.372  0.00  0.00    +0.000 C 
ATOM     15  C   UNL     1       1.813  16.714  18.262  0.00  0.00    +0.000 C 
ATOM     16  C   UNL     1       2.165  16.052  19.632  0.00  0.00    +0.000 C 
ENDROOT
BRANCH   1  18
ATOM     17  N   UNL     1       1.992   8.109  19.914  0.00  0.00    +0.000 N 
ATOM     18  C   UNL     1       1.623   8.906  18.816  0.00  0.00    +0.000 C 
ATOM     19  O   UNL     1       1.599   8.476  17.660  0.00  0.00    +0.000 OA
ATOM     20  H   UNL     1       2.011   8.572  20.807  0.00  0.00    +0.000 HD
BRANCH  17  24
ATOM     21  C   UNL     1       3.285   3.926  19.854  0.00  0.00    +0.000 A 
ATOM     22  C   UNL     1       2.096   4.283  20.518  0.00  0.00    +0.000 A 
ATOM     23  C   UNL     1       1.635   5.645  20.570  0.00  0.00    +0.000 A 
ATOM     24  C   UNL     1       2.343   6.691  19.959  0.00  0.00    +0.000 A 
ATOM     25  C   UNL     1       3.550   6.306  19.327  0.00  0.00    +0.000 A 
ATOM     26  C   UNL     1       4.013   4.964  19.270  0.00  0.00    +0.000 A 
BRANCH  21  27
ATOM     27  C   UNL     1       3.730   2.493  19.736  0.00  0.00    +0.000 C 
ATOM     28  O   UNL     1       4.785   2.071  20.202  0.00  0.00    +0.000 OA
BRANCH  27  30
ATOM     29  C   UNL     1       2.616   2.113  17.652  0.00  0.00    +0.000 C 
ATOM     30  O   UNL     1       2.826   1.758  19.025  0.00  0.00    +0.000 OA
ENDBRANCH  27  30
ENDBRANCH  21  27
ENDBRANCH  17  24
ENDBRANCH   1  18
TORSDOF 4
ENDMDL
