MODEL 1
REMARK VINA RESULT:      -8.3      0.000      0.000
REMARK  Name = 
REMARK  4 active torsions:
REMARK  status: ('A' for Active; 'I' for Inactive)
REMARK    1  A    between atoms: C_1  and  C_2
REMARK    2  A    between atoms: C_2  and  C_3
REMARK    3  A    between atoms: C_3  and  N_4
REMARK    4  A    between atoms: C_7  and  C_9
REMARK                            x       y       z     vdW  Elec       q    Type
REMARK                         _______ _______ _______ _____ _____    ______ ____
ROOT
ATOM      1  N   UNL     1      -0.654  12.125  19.722  0.00  0.00    +0.000 N 
ATOM      2  C   UNL     1      -0.191  10.991  20.360  0.00  0.00    +0.000 A 
ATOM      3  N   UNL     1       0.246   9.804  19.809  0.00  0.00    +0.000 N 
ATOM      4  C   UNL     1       1.259   9.718  18.877  0.00  0.00    +0.000 C 
ATOM      5  O   UNL     1       1.791  10.643  18.271  0.00  0.00    +0.000 OA
ATOM      6  N   UNL     1      -0.369  11.077  21.662  0.00  0.00    +0.000 NA
ATOM      7  C   UNL     1      -0.873  12.327  21.893  0.00  0.00    +0.000 A 
ATOM      8  C   UNL     1      -1.205  12.924  23.121  0.00  0.00    +0.000 A 
ATOM      9  C   UNL     1      -1.779  14.194  23.119  0.00  0.00    +0.000 A 
ATOM     10  C   UNL     1      -2.006  14.862  21.915  0.00  0.00    +0.000 A 
ATOM     11  C   UNL     1      -1.667  14.288  20.679  0.00  0.00    +0.000 A 
ATOM     12  C   UNL     1      -1.086  13.013  20.700  0.00  0.00    +0.000 A 
ATOM     13  H   UNL     1       0.232   9.063  20.500  0.00  0.00    +0.000 HD
ENDROOT
BRANCH   4  14
ATOM     14  C   UNL     1       1.838   8.337  18.789  0.00  0.00    +0.000 A 
ATOM     15  C   UNL     1       2.718   8.068  17.733  0.00  0.00    +0.000 A 
ATOM     16  C   UNL     1       3.619   7.017  17.856  0.00  0.00    +0.000 A 
ATOM     17  C   UNL     1       3.515   6.186  18.963  0.00  0.00    +0.000 A 
ATOM     18  C   UNL     1       4.526   5.173  19.271  0.00  0.00    +0.000 A 
ATOM     19  O   UNL     1       5.725   5.406  19.177  0.00  0.00    +0.000 OA
ATOM     20  N   UNL     1       3.962   4.000  19.645  0.00  0.00    +0.000 N 
ATOM     21  C   UNL     1       2.618   3.903  19.967  0.00  0.00    +0.000 A 
ATOM     22  N   UNL     1       1.845   4.924  20.190  0.00  0.00    +0.000 NA
ATOM     23  C   UNL     1       2.363   6.178  19.745  0.00  0.00    +0.000 A 
ATOM     24  C   UNL     1       1.606   7.353  19.772  0.00  0.00    +0.000 A 
ATOM     25  C   UNL     1       2.257   2.439  19.920  0.00  0.00    +0.000 C 
ATOM     26  C   UNL     1       3.463   1.852  19.152  0.00  0.00    +0.000 C 
ATOM     27  C   UNL     1       4.607   2.720  19.632  0.00  0.00    +0.000 C 
ENDBRANCH   4  14
BRANCH   1  28
ATOM     28  C   UNL     1      -0.896  12.304  18.306  0.00  0.00    +0.000 C 
BRANCH  28  30
ATOM     29  C   UNL     1      -2.097  10.374  17.123  0.00  0.00    +0.000 C 
ATOM     30  C   UNL     1      -2.226  11.728  17.811  0.00  0.00    +0.000 C 
ENDBRANCH  28  30
ENDBRANCH   1  28
TORSDOF 3
ENDMDL
MODEL 2
REMARK VINA RESULT:      -8.3      2.216      9.285
REMARK  Name = 
REMARK  4 active torsions:
REMARK  status: ('A' for Active; 'I' for Inactive)
REMARK    1  A    between atoms: C_1  and  C_2
REMARK    2  A    between atoms: C_2  and  C_3
REMARK    3  A    between atoms: C_3  and  N_4
REMARK    4  A    between atoms: C_7  and  C_9
REMARK                            x       y       z     vdW  Elec       q    Type
REMARK                         _______ _______ _______ _____ _____    ______ ____
ROOT
ATOM      1  N   UNL     1       2.708   5.945  18.699  0.00  0.00    +0.000 N 
ATOM      2  C   UNL     1       2.621   7.305  18.478  0.00  0.00    +0.000 A 
ATOM      3  N   UNL     1       1.687   8.202  18.952  0.00  0.00    +0.000 N 
ATOM      4  C   UNL     1       1.405   8.381  20.291  0.00  0.00    +0.000 C 
ATOM      5  O   UNL     1       1.780   7.683  21.228  0.00  0.00    +0.000 OA
ATOM      6  N   UNL     1       3.485   7.689  17.561  0.00  0.00    +0.000 NA
ATOM      7  C   UNL     1       4.215   6.579  17.240  0.00  0.00    +0.000 A 
ATOM      8  C   UNL     1       5.284   6.466  16.334  0.00  0.00    +0.000 A 
ATOM      9  C   UNL     1       5.841   5.209  16.105  0.00  0.00    +0.000 A 
ATOM     10  C   UNL     1       5.351   4.088  16.775  0.00  0.00    +0.000 A 
ATOM     11  C   UNL     1       4.294   4.184  17.695  0.00  0.00    +0.000 A 
ATOM     12  C   UNL     1       3.749   5.456  17.917  0.00  0.00    +0.000 A 
ATOM     13  H   UNL     1       1.689   9.049  18.396  0.00  0.00    +0.000 HD
ENDROOT
BRANCH   4  14
ATOM     14  C   UNL     1       0.720   9.688  20.561  0.00  0.00    +0.000 A 
ATOM     15  C   UNL     1       0.546  10.564  19.483  0.00  0.00    +0.000 A 
ATOM     16  C   UNL     1      -0.454  11.528  19.552  0.00  0.00    +0.000 A 
ATOM     17  C   UNL     1      -1.145  11.676  20.745  0.00  0.00    +0.000 A 
ATOM     18  C   UNL     1      -2.329  12.531  20.856  0.00  0.00    +0.000 A 
ATOM     19  O   UNL     1      -3.200  12.543  19.997  0.00  0.00    +0.000 OA
ATOM     20  N   UNL     1      -2.306  13.272  21.989  0.00  0.00    +0.000 N 
ATOM     21  C   UNL     1      -1.417  13.012  23.019  0.00  0.00    +0.000 A 
ATOM     22  N   UNL     1      -0.720  11.919  23.122  0.00  0.00    +0.000 NA
ATOM     23  C   UNL     1      -0.651  11.136  21.930  0.00  0.00    +0.000 A 
ATOM     24  C   UNL     1       0.172  10.011  21.820  0.00  0.00    +0.000 A 
ATOM     25  C   UNL     1      -1.381  14.240  23.894  0.00  0.00    +0.000 C 
ATOM     26  C   UNL     1      -2.041  15.290  22.973  0.00  0.00    +0.000 C 
ATOM     27  C   UNL     1      -3.066  14.465  22.223  0.00  0.00    +0.000 C 
ENDBRANCH   4  14
BRANCH   1  28
ATOM     28  C   UNL     1       1.765   5.103  19.405  0.00  0.00    +0.000 C 
BRANCH  28  30
ATOM     29  C   UNL     1       1.512   3.246  21.152  0.00  0.00    +0.000 C 
ATOM     30  C   UNL     1       2.326   4.439  20.666  0.00  0.00    +0.000 C 
ENDBRANCH  28  30
ENDBRANCH   1  28
TORSDOF 3
ENDMDL
MODEL 3
REMARK VINA RESULT:      -8.1      2.338      3.750
REMARK  Name = 
REMARK  4 active torsions:
REMARK  status: ('A' for Active; 'I' for Inactive)
REMARK    1  A    between atoms: C_1  and  C_2
REMARK    2  A    between atoms: C_2  and  C_3
REMARK    3  A    between atoms: C_3  and  N_4
REMARK    4  A    between atoms: C_7  and  C_9
REMARK                            x       y       z     vdW  Elec       q    Type
REMARK                         _______ _______ _______ _____ _____    ______ ____
ROOT
ATOM      1  N   UNL     1      -1.016  11.208  19.962  0.00  0.00    +0.000 N 
ATOM      2  C   UNL     1      -0.686  10.237  19.038  0.00  0.00    +0.000 A 
ATOM      3  N   UNL     1       0.504   9.556  18.884  0.00  0.00    +0.000 N 
ATOM      4  C   UNL     1       1.110   8.833  19.892  0.00  0.00    +0.000 C 
ATOM      5  O   UNL     1       0.811   8.823  21.081  0.00  0.00    +0.000 OA
ATOM      6  N   UNL     1      -1.627  10.115  18.125  0.00  0.00    +0.000 NA
ATOM      7  C   UNL     1      -2.635  10.956  18.507  0.00  0.00    +0.000 A 
ATOM      8  C   UNL     1      -3.878  11.172  17.886  0.00  0.00    +0.000 A 
ATOM      9  C   UNL     1      -4.733  12.139  18.412  0.00  0.00    +0.000 A 
ATOM     10  C   UNL     1      -4.362  12.869  19.541  0.00  0.00    +0.000 A 
ATOM     11  C   UNL     1      -3.132  12.657  20.184  0.00  0.00    +0.000 A 
ATOM     12  C   UNL     1      -2.286  11.677  19.645  0.00  0.00    +0.000 A 
ATOM     13  H   UNL     1       0.563   9.141  17.962  0.00  0.00    +0.000 HD
ENDROOT
BRANCH   4  14
ATOM     14  C   UNL     1       2.106   7.843  19.364  0.00  0.00    +0.000 A 
ATOM     15  C   UNL     1       2.272   6.648  20.074  0.00  0.00    +0.000 A 
ATOM     16  C   UNL     1       2.793   5.539  19.416  0.00  0.00    +0.000 A 
ATOM     17  C   UNL     1       3.262   5.702  18.121  0.00  0.00    +0.000 A 
ATOM     18  C   UNL     1       3.655   4.563  17.289  0.00  0.00    +0.000 A 
ATOM     19  O   UNL     1       2.993   3.534  17.246  0.00  0.00    +0.000 OA
ATOM     20  N   UNL     1       4.807   4.806  16.620  0.00  0.00    +0.000 N 
ATOM     21  C   UNL     1       5.349   6.078  16.530  0.00  0.00    +0.000 A 
ATOM     22  N   UNL     1       4.708   7.167  16.838  0.00  0.00    +0.000 NA
ATOM     23  C   UNL     1       3.523   6.970  17.609  0.00  0.00    +0.000 A 
ATOM     24  C   UNL     1       2.795   8.035  18.148  0.00  0.00    +0.000 A 
ATOM     25  C   UNL     1       6.786   5.918  16.104  0.00  0.00    +0.000 C 
ATOM     26  C   UNL     1       7.019   4.415  16.375  0.00  0.00    +0.000 C 
ATOM     27  C   UNL     1       5.669   3.813  16.049  0.00  0.00    +0.000 C 
ENDBRANCH   4  14
BRANCH   1  28
ATOM     28  C   UNL     1      -0.146  11.831  20.938  0.00  0.00    +0.000 C 
BRANCH  28  30
ATOM     29  C   UNL     1      -1.046  10.737  23.073  0.00  0.00    +0.000 C 
ATOM     30  C   UNL     1      -0.781  12.033  22.317  0.00  0.00    +0.000 C 
ENDBRANCH  28  30
ENDBRANCH   1  28
TORSDOF 3
ENDMDL
MODEL 4
REMARK VINA RESULT:      -8.1      2.610      3.446
REMARK  Name = 
REMARK  4 active torsions:
REMARK  status: ('A' for Active; 'I' for Inactive)
REMARK    1  A    between atoms: C_1  and  C_2
REMARK    2  A    between atoms: C_2  and  C_3
REMARK    3  A    between atoms: C_3  and  N_4
REMARK    4  A    between atoms: C_7  and  C_9
REMARK                            x       y       z     vdW  Elec       q    Type
REMARK                         _______ _______ _______ _____ _____    ______ ____
ROOT
ATOM      1  N   UNL     1       1.008  13.663  19.194  0.00  0.00    +0.000 N 
ATOM      2  C   UNL     1       1.921  12.690  18.838  0.00  0.00    +0.000 A 
ATOM      3  N   UNL     1       1.933  11.350  19.165  0.00  0.00    +0.000 N 
ATOM      4  C   UNL     1       0.886  10.489  18.909  0.00  0.00    +0.000 C 
ATOM      5  O   UNL     1      -0.245  10.786  18.537  0.00  0.00    +0.000 OA
ATOM      6  N   UNL     1       2.968  13.223  18.241  0.00  0.00    +0.000 NA
ATOM      7  C   UNL     1       2.696  14.557  18.122  0.00  0.00    +0.000 A 
ATOM      8  C   UNL     1       3.480  15.561  17.527  0.00  0.00    +0.000 A 
ATOM      9  C   UNL     1       3.038  16.882  17.582  0.00  0.00    +0.000 A 
ATOM     10  C   UNL     1       1.831  17.195  18.207  0.00  0.00    +0.000 A 
ATOM     11  C   UNL     1       1.026  16.204  18.792  0.00  0.00    +0.000 A 
ATOM     12  C   UNL     1       1.483  14.882  18.724  0.00  0.00    +0.000 A 
ATOM     13  H   UNL     1       2.857  10.957  19.030  0.00  0.00    +0.000 HD
ENDROOT
BRANCH   4  14
ATOM     14  C   UNL     1       1.310   9.051  18.933  0.00  0.00    +0.000 A 
ATOM     15  C   UNL     1       1.789   8.495  17.740  0.00  0.00    +0.000 A 
ATOM     16  C   UNL     1       2.609   7.373  17.800  0.00  0.00    +0.000 A 
ATOM     17  C   UNL     1       2.803   6.764  19.031  0.00  0.00    +0.000 A 
ATOM     18  C   UNL     1       3.787   5.697  19.222  0.00  0.00    +0.000 A 
ATOM     19  O   UNL     1       4.907   5.755  18.731  0.00  0.00    +0.000 OA
ATOM     20  N   UNL     1       3.291   4.687  19.976  0.00  0.00    +0.000 N 
ATOM     21  C   UNL     1       2.114   4.819  20.695  0.00  0.00    +0.000 A 
ATOM     22  N   UNL     1       1.524   5.954  20.927  0.00  0.00    +0.000 NA
ATOM     23  C   UNL     1       1.960   7.037  20.106  0.00  0.00    +0.000 A 
ATOM     24  C   UNL     1       1.334   8.286  20.119  0.00  0.00    +0.000 A 
ATOM     25  C   UNL     1       1.657   3.427  21.054  0.00  0.00    +0.000 C 
ATOM     26  C   UNL     1       2.514   2.569  20.097  0.00  0.00    +0.000 C 
ATOM     27  C   UNL     1       3.808   3.352  20.030  0.00  0.00    +0.000 C 
ENDBRANCH   4  14
BRANCH   1  28
ATOM     28  C   UNL     1      -0.116  13.530  20.098  0.00  0.00    +0.000 C 
BRANCH  28  30
ATOM     29  C   UNL     1      -0.525  11.997  22.110  0.00  0.00    +0.000 C 
ATOM     30  C   UNL     1       0.266  13.167  21.536  0.00  0.00    +0.000 C 
ENDBRANCH  28  30
ENDBRANCH   1  28
TORSDOF 3
ENDMDL
MODEL 5
REMARK VINA RESULT:      -8.0      1.785      2.459
REMARK  Name = 
REMARK  4 active torsions:
REMARK  status: ('A' for Active; 'I' for Inactive)
REMARK    1  A    between atoms: C_1  and  C_2
REMARK    2  A    between atoms: C_2  and  C_3
REMARK    3  A    between atoms: C_3  and  N_4
REMARK    4  A    between atoms: C_7  and  C_9
REMARK                            x       y       z     vdW  Elec       q    Type
REMARK                         _______ _______ _______ _____ _____    ______ ____
ROOT
ATOM      1  N   UNL     1      -1.594  11.856  20.014  0.00  0.00    +0.000 N 
ATOM      2  C   UNL     1      -0.824  10.874  20.604  0.00  0.00    +0.000 A 
ATOM      3  N   UNL     1      -0.104   9.861  20.006  0.00  0.00    +0.000 N 
ATOM      4  C   UNL     1       0.866  10.071  19.047  0.00  0.00    +0.000 C 
ATOM      5  O   UNL     1       1.111  11.120  18.458  0.00  0.00    +0.000 OA
ATOM      6  N   UNL     1      -0.977  10.878  21.912  0.00  0.00    +0.000 NA
ATOM      7  C   UNL     1      -1.790  11.940  22.194  0.00  0.00    +0.000 A 
ATOM      8  C   UNL     1      -2.230  12.397  23.449  0.00  0.00    +0.000 A 
ATOM      9  C   UNL     1      -3.123  13.467  23.500  0.00  0.00    +0.000 A 
ATOM     10  C   UNL     1      -3.558  14.078  22.324  0.00  0.00    +0.000 A 
ATOM     11  C   UNL     1      -3.117  13.645  21.062  0.00  0.00    +0.000 A 
ATOM     12  C   UNL     1      -2.217  12.572  21.029  0.00  0.00    +0.000 A 
ATOM     13  H   UNL     1       0.104   9.127  20.673  0.00  0.00    +0.000 HD
ENDROOT
BRANCH   4  14
ATOM     14  C   UNL     1       1.790   8.900  18.902  0.00  0.00    +0.000 A 
ATOM     15  C   UNL     1       1.856   7.990  19.964  0.00  0.00    +0.000 A 
ATOM     16  C   UNL     1       2.299   6.695  19.717  0.00  0.00    +0.000 A 
ATOM     17  C   UNL     1       2.794   6.397  18.456  0.00  0.00    +0.000 A 
ATOM     18  C   UNL     1       3.110   5.027  18.049  0.00  0.00    +0.000 A 
ATOM     19  O   UNL     1       2.372   4.087  18.316  0.00  0.00    +0.000 OA
ATOM     20  N   UNL     1       4.284   4.961  17.378  0.00  0.00    +0.000 N 
ATOM     21  C   UNL     1       4.922   6.096  16.903  0.00  0.00    +0.000 A 
ATOM     22  N   UNL     1       4.362   7.267  16.821  0.00  0.00    +0.000 NA
ATOM     23  C   UNL     1       3.157   7.411  17.572  0.00  0.00    +0.000 A 
ATOM     24  C   UNL     1       2.505   8.640  17.714  0.00  0.00    +0.000 A 
ATOM     25  C   UNL     1       6.348   5.709  16.602  0.00  0.00    +0.000 C 
ATOM     26  C   UNL     1       6.463   4.363  17.351  0.00  0.00    +0.000 C 
ATOM     27  C   UNL     1       5.075   3.781  17.189  0.00  0.00    +0.000 C 
ENDBRANCH   4  14
BRANCH   1  28
ATOM     28  C   UNL     1      -1.920  11.998  18.610  0.00  0.00    +0.000 C 
BRANCH  28  30
ATOM     29  C   UNL     1      -2.859   9.828  17.623  0.00  0.00    +0.000 C 
ATOM     30  C   UNL     1      -3.162  11.220  18.165  0.00  0.00    +0.000 C 
ENDBRANCH  28  30
ENDBRANCH   1  28
TORSDOF 3
ENDMDL
MODEL 6
REMARK VINA RESULT:      -8.0      2.397      3.741
REMARK  Name = 
REMARK  4 active torsions:
REMARK  status: ('A' for Active; 'I' for Inactive)
REMARK    1  A    between atoms: C_1  and  C_2
REMARK    2  A    between atoms: C_2  and  C_3
REMARK    3  A    between atoms: C_3  and  N_4
REMARK    4  A    between atoms: C_7  and  C_9
REMARK                            x       y       z     vdW  Elec       q    Type
REMARK                         _______ _______ _______ _____ _____    ______ ____
ROOT
ATOM      1  N   UNL     1      -1.155  11.253  19.588  0.00  0.00    +0.000 N 
ATOM      2  C   UNL     1      -0.818  10.200  18.760  0.00  0.00    +0.000 A 
ATOM      3  N   UNL     1       0.394   9.555  18.628  0.00  0.00    +0.000 N 
ATOM      4  C   UNL     1       1.072   8.971  19.679  0.00  0.00    +0.000 C 
ATOM      5  O   UNL     1       0.820   9.081  20.875  0.00  0.00    +0.000 OA
ATOM      6  N   UNL     1      -1.789   9.942  17.908  0.00  0.00    +0.000 NA
ATOM      7  C   UNL     1      -2.817  10.778  18.242  0.00  0.00    +0.000 A 
ATOM      8  C   UNL     1      -4.092  10.874  17.658  0.00  0.00    +0.000 A 
ATOM      9  C   UNL     1      -4.968  11.858  18.113  0.00  0.00    +0.000 A 
ATOM     10  C   UNL     1      -4.586  12.722  19.140  0.00  0.00    +0.000 A 
ATOM     11  C   UNL     1      -3.322  12.631  19.746  0.00  0.00    +0.000 A 
ATOM     12  C   UNL     1      -2.456  11.633  19.279  0.00  0.00    +0.000 A 
ATOM     13  H   UNL     1       0.434   9.044  17.754  0.00  0.00    +0.000 HD
ENDROOT
BRANCH   4  14
ATOM     14  C   UNL     1       2.089   7.971  19.218  0.00  0.00    +0.000 A 
ATOM     15  C   UNL     1       2.261   6.816  19.991  0.00  0.00    +0.000 A 
ATOM     16  C   UNL     1       2.807   5.683  19.399  0.00  0.00    +0.000 A 
ATOM     17  C   UNL     1       3.293   5.785  18.104  0.00  0.00    +0.000 A 
ATOM     18  C   UNL     1       3.714   4.611  17.338  0.00  0.00    +0.000 A 
ATOM     19  O   UNL     1       3.067   3.572  17.339  0.00  0.00    +0.000 OA
ATOM     20  N   UNL     1       4.872   4.837  16.672  0.00  0.00    +0.000 N 
ATOM     21  C   UNL     1       5.397   6.110  16.525  0.00  0.00    +0.000 A 
ATOM     22  N   UNL     1       4.737   7.204  16.766  0.00  0.00    +0.000 NA
ATOM     23  C   UNL     1       3.544   7.030  17.530  0.00  0.00    +0.000 A 
ATOM     24  C   UNL     1       2.793   8.110  18.003  0.00  0.00    +0.000 A 
ATOM     25  C   UNL     1       6.843   5.950  16.127  0.00  0.00    +0.000 C 
ATOM     26  C   UNL     1       7.093   4.467  16.480  0.00  0.00    +0.000 C 
ATOM     27  C   UNL     1       5.756   3.829  16.166  0.00  0.00    +0.000 C 
ENDBRANCH   4  14
BRANCH   1  28
ATOM     28  C   UNL     1      -0.275  12.014  20.451  0.00  0.00    +0.000 C 
BRANCH  28  30
ATOM     29  C   UNL     1       1.845  12.797  19.245  0.00  0.00    +0.000 C 
ATOM     30  C   UNL     1       0.457  13.166  19.756  0.00  0.00    +0.000 C 
ENDBRANCH  28  30
ENDBRANCH   1  28
TORSDOF 3
ENDMDL
MODEL 7
REMARK VINA RESULT:      -7.9      2.174      9.267
REMARK  Name = 
REMARK  4 active torsions:
REMARK  status: ('A' for Active; 'I' for Inactive)
REMARK    1  A    between atoms: C_1  and  C_2
REMARK    2  A    between atoms: C_2  and  C_3
REMARK    3  A    between atoms: C_3  and  N_4
REMARK    4  A    between atoms: C_7  and  C_9
REMARK                            x       y       z     vdW  Elec       q    Type
REMARK                         _______ _______ _______ _____ _____    ______ ____
ROOT
ATOM      1  N   UNL     1       3.505   5.761  18.253  0.00  0.00    +0.000 N 
ATOM      2  C   UNL     1       2.442   6.354  18.906  0.00  0.00    +0.000 A 
ATOM      3  N   UNL     1       2.216   7.692  19.155  0.00  0.00    +0.000 N 
ATOM      4  C   UNL     1       2.177   8.660  18.171  0.00  0.00    +0.000 C 
ATOM      5  O   UNL     1       2.504   8.535  16.995  0.00  0.00    +0.000 OA
ATOM      6  N   UNL     1       1.671   5.448  19.471  0.00  0.00    +0.000 NA
ATOM      7  C   UNL     1       2.184   4.235  19.106  0.00  0.00    +0.000 A 
ATOM      8  C   UNL     1       1.705   2.951  19.421  0.00  0.00    +0.000 A 
ATOM      9  C   UNL     1       2.433   1.840  19.000  0.00  0.00    +0.000 A 
ATOM     10  C   UNL     1       3.608   2.003  18.267  0.00  0.00    +0.000 A 
ATOM     11  C   UNL     1       4.094   3.277  17.928  0.00  0.00    +0.000 A 
ATOM     12  C   UNL     1       3.347   4.384  18.356  0.00  0.00    +0.000 A 
ATOM     13  H   UNL     1       1.538   7.808  19.899  0.00  0.00    +0.000 HD
ENDROOT
BRANCH   4  14
ATOM     14  C   UNL     1       1.479   9.907  18.624  0.00  0.00    +0.000 A 
ATOM     15  C   UNL     1       0.317   9.759  19.392  0.00  0.00    +0.000 A 
ATOM     16  C   UNL     1      -0.090  10.807  20.209  0.00  0.00    +0.000 A 
ATOM     17  C   UNL     1       0.592  12.012  20.124  0.00  0.00    +0.000 A 
ATOM     18  C   UNL     1       0.356  13.106  21.068  0.00  0.00    +0.000 A 
ATOM     19  O   UNL     1       0.238  12.908  22.270  0.00  0.00    +0.000 OA
ATOM     20  N   UNL     1       0.283  14.303  20.439  0.00  0.00    +0.000 N 
ATOM     21  C   UNL     1       0.679  14.465  19.121  0.00  0.00    +0.000 A 
ATOM     22  N   UNL     1       1.375  13.591  18.457  0.00  0.00    +0.000 NA
ATOM     23  C   UNL     1       1.422  12.290  19.040  0.00  0.00    +0.000 A 
ATOM     24  C   UNL     1       2.001  11.197  18.389  0.00  0.00    +0.000 A 
ATOM     25  C   UNL     1       0.084  15.763  18.637  0.00  0.00    +0.000 C 
ATOM     26  C   UNL     1      -0.978  16.037  19.724  0.00  0.00    +0.000 C 
ATOM     27  C   UNL     1      -0.313  15.493  20.971  0.00  0.00    +0.000 C 
ENDBRANCH   4  14
BRANCH   1  28
ATOM     28  C   UNL     1       4.706   6.401  17.758  0.00  0.00    +0.000 C 
BRANCH  28  30
ATOM     29  C   UNL     1       6.157   5.525  15.837  0.00  0.00    +0.000 C 
ATOM     30  C   UNL     1       4.905   6.293  16.244  0.00  0.00    +0.000 C 
ENDBRANCH  28  30
ENDBRANCH   1  28
TORSDOF 3
ENDMDL
MODEL 8
REMARK VINA RESULT:      -7.9      1.715      9.073
REMARK  Name = 
REMARK  4 active torsions:
REMARK  status: ('A' for Active; 'I' for Inactive)
REMARK    1  A    between atoms: C_1  and  C_2
REMARK    2  A    between atoms: C_2  and  C_3
REMARK    3  A    between atoms: C_3  and  N_4
REMARK    4  A    between atoms: C_7  and  C_9
REMARK                            x       y       z     vdW  Elec       q    Type
REMARK                         _______ _______ _______ _____ _____    ______ ____
ROOT
ATOM      1  N   UNL     1       3.414   5.715  18.495  0.00  0.00    +0.000 N 
ATOM      2  C   UNL     1       2.336   6.206  19.205  0.00  0.00    +0.000 A 
ATOM      3  N   UNL     1       2.038   7.512  19.534  0.00  0.00    +0.000 N 
ATOM      4  C   UNL     1       1.915   8.528  18.607  0.00  0.00    +0.000 C 
ATOM      5  O   UNL     1       2.217   8.488  17.419  0.00  0.00    +0.000 OA
ATOM      6  N   UNL     1       1.635   5.225  19.736  0.00  0.00    +0.000 NA
ATOM      7  C   UNL     1       2.209   4.067  19.291  0.00  0.00    +0.000 A 
ATOM      8  C   UNL     1       1.815   2.742  19.545  0.00  0.00    +0.000 A 
ATOM      9  C   UNL     1       2.596   1.701  19.044  0.00  0.00    +0.000 A 
ATOM     10  C   UNL     1       3.740   1.975  18.294  0.00  0.00    +0.000 A 
ATOM     11  C   UNL     1       4.139   3.293  18.016  0.00  0.00    +0.000 A 
ATOM     12  C   UNL     1       3.341   4.327  18.523  0.00  0.00    +0.000 A 
ATOM     13  H   UNL     1       1.375   7.546  20.299  0.00  0.00    +0.000 HD
ENDROOT
BRANCH   4  14
ATOM     14  C   UNL     1       1.158   9.704  19.146  0.00  0.00    +0.000 A 
ATOM     15  C   UNL     1       0.813  10.722  18.247  0.00  0.00    +0.000 A 
ATOM     16  C   UNL     1      -0.249  11.564  18.557  0.00  0.00    +0.000 A 
ATOM     17  C   UNL     1      -0.835  11.454  19.810  0.00  0.00    +0.000 A 
ATOM     18  C   UNL     1      -2.067  12.164  20.156  0.00  0.00    +0.000 A 
ATOM     19  O   UNL     1      -3.013  12.232  19.383  0.00  0.00    +0.000 OA
ATOM     20  N   UNL     1      -1.997  12.714  21.392  0.00  0.00    +0.000 N 
ATOM     21  C   UNL     1      -0.997  12.376  22.289  0.00  0.00    +0.000 A 
ATOM     22  N   UNL     1      -0.209  11.351  22.151  0.00  0.00    +0.000 NA
ATOM     23  C   UNL     1      -0.189  10.779  20.844  0.00  0.00    +0.000 A 
ATOM     24  C   UNL     1       0.706   9.769  20.481  0.00  0.00    +0.000 A 
ATOM     25  C   UNL     1      -0.976  13.446  23.352  0.00  0.00    +0.000 C 
ATOM     26  C   UNL     1      -1.801  14.563  22.676  0.00  0.00    +0.000 C 
ATOM     27  C   UNL     1      -2.824  13.777  21.883  0.00  0.00    +0.000 C 
ENDBRANCH   4  14
BRANCH   1  28
ATOM     28  C   UNL     1       4.561   6.453  18.008  0.00  0.00    +0.000 C 
BRANCH  28  30
ATOM     29  C   UNL     1       6.114   5.773  16.087  0.00  0.00    +0.000 C 
ATOM     30  C   UNL     1       4.773   6.371  16.493  0.00  0.00    +0.000 C 
ENDBRANCH  28  30
ENDBRANCH   1  28
TORSDOF 3
ENDMDL
MODEL 9
REMARK VINA RESULT:      -7.9      2.128      3.387
REMARK  Name = 
REMARK  4 active torsions:
REMARK  status: ('A' for Active; 'I' for Inactive)
REMARK    1  A    between atoms: C_1  and  C_2
REMARK    2  A    between atoms: C_2  and  C_3
REMARK    3  A    between atoms: C_3  and  N_4
REMARK    4  A    between atoms: C_7  and  C_9
REMARK                            x       y       z     vdW  Elec       q    Type
REMARK                         _______ _______ _______ _____ _____    ______ ____
ROOT
ATOM      1  N   UNL     1      -0.624  13.073  20.330  0.00  0.00    +0.000 N 
ATOM      2  C   UNL     1       0.557  12.580  19.811  0.00  0.00    +0.000 A 
ATOM      3  N   UNL     1       1.107  11.323  19.950  0.00  0.00    +0.000 N 
ATOM      4  C   UNL     1       0.450  10.156  19.615  0.00  0.00    +0.000 C 
ATOM      5  O   UNL     1      -0.736  10.029  19.328  0.00  0.00    +0.000 OA
ATOM      6  N   UNL     1       1.265  13.542  19.257  0.00  0.00    +0.000 NA
ATOM      7  C   UNL     1       0.496  14.669  19.332  0.00  0.00    +0.000 A 
ATOM      8  C   UNL     1       0.784  15.959  18.853  0.00  0.00    +0.000 A 
ATOM      9  C   UNL     1      -0.123  16.988  19.105  0.00  0.00    +0.000 A 
ATOM     10  C   UNL     1      -1.300  16.733  19.810  0.00  0.00    +0.000 A 
ATOM     11  C   UNL     1      -1.612  15.448  20.282  0.00  0.00    +0.000 A 
ATOM     12  C   UNL     1      -0.692  14.425  20.015  0.00  0.00    +0.000 A 
ATOM     13  H   UNL     1       2.096  11.338  19.729  0.00  0.00    +0.000 HD
ENDROOT
BRANCH   4  14
ATOM     14  C   UNL     1       1.392   9.004  19.426  0.00  0.00    +0.000 A 
ATOM     15  C   UNL     1       1.520   8.091  20.480  0.00  0.00    +0.000 A 
ATOM     16  C   UNL     1       1.979   6.807  20.208  0.00  0.00    +0.000 A 
ATOM     17  C   UNL     1       2.428   6.526  18.925  0.00  0.00    +0.000 A 
ATOM     18  C   UNL     1       2.755   5.164  18.498  0.00  0.00    +0.000 A 
ATOM     19  O   UNL     1       2.048   4.208  18.790  0.00  0.00    +0.000 OA
ATOM     20  N   UNL     1       3.902   5.126  17.780  0.00  0.00    +0.000 N 
ATOM     21  C   UNL     1       4.496   6.276  17.286  0.00  0.00    +0.000 A 
ATOM     22  N   UNL     1       3.910   7.435  17.233  0.00  0.00    +0.000 NA
ATOM     23  C   UNL     1       2.733   7.551  18.033  0.00  0.00    +0.000 A 
ATOM     24  C   UNL     1       2.063   8.765  18.208  0.00  0.00    +0.000 A 
ATOM     25  C   UNL     1       5.917   5.920  16.924  0.00  0.00    +0.000 C 
ATOM     26  C   UNL     1       6.090   4.574  17.661  0.00  0.00    +0.000 C 
ATOM     27  C   UNL     1       4.709   3.964  17.552  0.00  0.00    +0.000 C 
ENDBRANCH   4  14
BRANCH   1  28
ATOM     28  C   UNL     1      -1.529  12.411  21.246  0.00  0.00    +0.000 C 
BRANCH  28  30
ATOM     29  C   UNL     1      -0.880  10.729  23.067  0.00  0.00    +0.000 C 
ATOM     30  C   UNL     1      -0.963  12.194  22.653  0.00  0.00    +0.000 C 
ENDBRANCH  28  30
ENDBRANCH   1  28
TORSDOF 3
ENDMDL
