MODEL 1
REMARK VINA RESULT:      -8.5      0.000      0.000
REMARK  Name = 
REMARK  6 active torsions:
REMARK  status: ('A' for Active; 'I' for Inactive)
REMARK    1  A    between atoms: C_1  and  C_2
REMARK    2  A    between atoms: C_2  and  C_3
REMARK    3  A    between atoms: C_2  and  C_4
REMARK    4  A    between atoms: C_8  and  N_9
REMARK    5  A    between atoms: C_10  and  C_12
REMARK    6  A    between atoms: C_12  and  N_13
REMARK                            x       y       z     vdW  Elec       q    Type
REMARK                         _______ _______ _______ _____ _____    ______ ____
ROOT
ATOM      1  N   UNL     1       2.670   6.574  20.168  0.00  0.00    +0.000 N 
ATOM      2  C   UNL     1       2.160   5.287  20.392  0.00  0.00    +0.000 C 
ATOM      3  O   UNL     1       0.976   5.004  20.527  0.00  0.00    +0.000 OA
ATOM      4  H   UNL     1       3.626   6.637  19.819  0.00  0.00    +0.000 HD
ENDROOT
BRANCH   1   9
ATOM      5  C   UNL     1      -0.799  11.098  21.369  0.00  0.00    +0.000 A 
ATOM      6  N   UNL     1      -0.364  10.042  22.032  0.00  0.00    +0.000 NA
ATOM      7  C   UNL     1       0.387   9.372  21.098  0.00  0.00    +0.000 A 
ATOM      8  C   UNL     1       1.144   8.199  21.204  0.00  0.00    +0.000 A 
ATOM      9  C   UNL     1       1.869   7.741  20.089  0.00  0.00    +0.000 A 
ATOM     10  C   UNL     1       1.808   8.458  18.881  0.00  0.00    +0.000 A 
ATOM     11  C   UNL     1       1.036   9.628  18.750  0.00  0.00    +0.000 A 
ATOM     12  C   UNL     1       0.356  10.036  19.896  0.00  0.00    +0.000 A 
ATOM     13  O   UNL     1      -0.413  11.157  20.051  0.00  0.00    +0.000 OA
BRANCH   5  15
ATOM     14  C   UNL     1      -2.657  12.658  20.814  0.00  0.00    +0.000 C 
ATOM     15  C   UNL     1      -1.619  12.247  21.855  0.00  0.00    +0.000 C 
ATOM     16  C   UNL     1      -2.297  11.911  23.185  0.00  0.00    +0.000 C 
ENDBRANCH   5  15
ENDBRANCH   1   9
BRANCH   2  17
ATOM     17  C   UNL     1       3.199   4.168  20.359  0.00  0.00    +0.000 C 
BRANCH  17  18
ATOM     18  N   UNL     1       3.819   4.062  19.039  0.00  0.00    +0.000 N 
ATOM     19  C   UNL     1       3.086   3.660  17.946  0.00  0.00    +0.000 A 
ATOM     20  N   UNL     1       3.527   3.637  16.728  0.00  0.00    +0.000 NA
ATOM     21  C   UNL     1       4.853   4.031  16.501  0.00  0.00    +0.000 A 
ATOM     22  C   UNL     1       5.364   4.064  15.202  0.00  0.00    +0.000 A 
ATOM     23  C   UNL     1       6.684   4.465  14.963  0.00  0.00    +0.000 A 
ATOM     24  C   UNL     1       7.531   4.771  16.030  0.00  0.00    +0.000 A 
ATOM     25  C   UNL     1       7.037   4.738  17.331  0.00  0.00    +0.000 A 
ATOM     26  C   UNL     1       5.692   4.423  17.544  0.00  0.00    +0.000 A 
ATOM     27  C   UNL     1       5.064   4.611  18.858  0.00  0.00    +0.000 A 
ATOM     28  O   UNL     1       5.620   5.325  19.704  0.00  0.00    +0.000 OA
ENDBRANCH  17  18
ENDBRANCH   2  17
TORSDOF 4
ENDMDL
MODEL 2
REMARK VINA RESULT:      -8.5      1.051      1.591
REMARK  Name = 
REMARK  6 active torsions:
REMARK  status: ('A' for Active; 'I' for Inactive)
REMARK    1  A    between atoms: C_1  and  C_2
REMARK    2  A    between atoms: C_2  and  C_3
REMARK    3  A    between atoms: C_2  and  C_4
REMARK    4  A    between atoms: C_8  and  N_9
REMARK    5  A    between atoms: C_10  and  C_12
REMARK    6  A    between atoms: C_12  and  N_13
REMARK                            x       y       z     vdW  Elec       q    Type
REMARK                         _______ _______ _______ _____ _____    ______ ____
ROOT
ATOM      1  N   UNL     1       2.796   6.397  19.903  0.00  0.00    +0.000 N 
ATOM      2  C   UNL     1       2.278   5.126  20.188  0.00  0.00    +0.000 C 
ATOM      3  O   UNL     1       1.104   4.873  20.427  0.00  0.00    +0.000 OA
ATOM      4  H   UNL     1       3.721   6.433  19.473  0.00  0.00    +0.000 HD
ENDROOT
BRANCH   1   9
ATOM      5  C   UNL     1      -0.571  10.940  21.307  0.00  0.00    +0.000 A 
ATOM      6  N   UNL     1      -0.153   9.850  21.925  0.00  0.00    +0.000 NA
ATOM      7  C   UNL     1       0.578   9.202  20.960  0.00  0.00    +0.000 A 
ATOM      8  C   UNL     1       1.312   8.010  21.014  0.00  0.00    +0.000 A 
ATOM      9  C   UNL     1       2.020   7.582  19.877  0.00  0.00    +0.000 A 
ATOM     10  C   UNL     1       1.965   8.348  18.697  0.00  0.00    +0.000 A 
ATOM     11  C   UNL     1       1.216   9.537  18.618  0.00  0.00    +0.000 A 
ATOM     12  C   UNL     1       0.553   9.914  19.785  0.00  0.00    +0.000 A 
ATOM     13  O   UNL     1      -0.192  11.043  19.989  0.00  0.00    +0.000 OA
BRANCH   5  15
ATOM     14  C   UNL     1      -2.415  12.542  20.837  0.00  0.00    +0.000 C 
ATOM     15  C   UNL     1      -1.364  12.085  21.844  0.00  0.00    +0.000 C 
ATOM     16  C   UNL     1      -2.020  11.718  23.177  0.00  0.00    +0.000 C 
ENDBRANCH   5  15
ENDBRANCH   1   9
BRANCH   2  17
ATOM     17  C   UNL     1       3.284   3.982  20.083  0.00  0.00    +0.000 C 
BRANCH  17  18
ATOM     18  N   UNL     1       4.302   4.266  19.072  0.00  0.00    +0.000 N 
ATOM     19  C   UNL     1       5.593   4.569  19.438  0.00  0.00    +0.000 A 
ATOM     20  N   UNL     1       6.576   4.733  18.610  0.00  0.00    +0.000 NA
ATOM     21  C   UNL     1       6.310   4.612  17.239  0.00  0.00    +0.000 A 
ATOM     22  C   UNL     1       7.344   4.738  16.309  0.00  0.00    +0.000 A 
ATOM     23  C   UNL     1       7.090   4.611  14.938  0.00  0.00    +0.000 A 
ATOM     24  C   UNL     1       5.785   4.424  14.477  0.00  0.00    +0.000 A 
ATOM     25  C   UNL     1       4.744   4.301  15.393  0.00  0.00    +0.000 A 
ATOM     26  C   UNL     1       5.029   4.341  16.760  0.00  0.00    +0.000 A 
ATOM     27  C   UNL     1       4.017   3.976  17.760  0.00  0.00    +0.000 A 
ATOM     28  O   UNL     1       3.011   3.345  17.409  0.00  0.00    +0.000 OA
ENDBRANCH  17  18
ENDBRANCH   2  17
TORSDOF 4
ENDMDL
MODEL 3
REMARK VINA RESULT:      -8.3      1.355      1.840
REMARK  Name = 
REMARK  6 active torsions:
REMARK  status: ('A' for Active; 'I' for Inactive)
REMARK    1  A    between atoms: C_1  and  C_2
REMARK    2  A    between atoms: C_2  and  C_3
REMARK    3  A    between atoms: C_2  and  C_4
REMARK    4  A    between atoms: C_8  and  N_9
REMARK    5  A    between atoms: C_10  and  C_12
REMARK    6  A    between atoms: C_12  and  N_13
REMARK                            x       y       z     vdW  Elec       q    Type
REMARK                         _______ _______ _______ _____ _____    ______ ____
ROOT
ATOM      1  N   UNL     1       2.688   6.415  20.380  0.00  0.00    +0.000 N 
ATOM      2  C   UNL     1       2.206   5.101  20.461  0.00  0.00    +0.000 C 
ATOM      3  O   UNL     1       1.027   4.778  20.529  0.00  0.00    +0.000 OA
ATOM      4  H   UNL     1       3.653   6.535  20.070  0.00  0.00    +0.000 HD
ENDROOT
BRANCH   1   9
ATOM      5  C   UNL     1      -0.366  11.153  18.908  0.00  0.00    +0.000 A 
ATOM      6  N   UNL     1       0.494  10.359  18.297  0.00  0.00    +0.000 NA
ATOM      7  C   UNL     1       0.850   9.466  19.278  0.00  0.00    +0.000 A 
ATOM      8  C   UNL     1       1.699   8.353  19.238  0.00  0.00    +0.000 A 
ATOM      9  C   UNL     1       1.860   7.565  20.391  0.00  0.00    +0.000 A 
ATOM     10  C   UNL     1       1.179   7.916  21.572  0.00  0.00    +0.000 A 
ATOM     11  C   UNL     1       0.339   9.043  21.636  0.00  0.00    +0.000 A 
ATOM     12  C   UNL     1       0.209   9.771  20.455  0.00  0.00    +0.000 A 
ATOM     13  O   UNL     1      -0.581  10.866  20.235  0.00  0.00    +0.000 OA
BRANCH   5  15
ATOM     14  C   UNL     1      -2.505  12.414  19.062  0.00  0.00    +0.000 C 
ATOM     15  C   UNL     1      -1.159  12.291  18.355  0.00  0.00    +0.000 C 
ATOM     16  C   UNL     1      -0.376  13.602  18.457  0.00  0.00    +0.000 C 
ENDBRANCH   5  15
ENDBRANCH   1   9
BRANCH   2  17
ATOM     17  C   UNL     1       3.275   4.015  20.352  0.00  0.00    +0.000 C 
BRANCH  17  18
ATOM     18  N   UNL     1       3.863   3.986  19.013  0.00  0.00    +0.000 N 
ATOM     19  C   UNL     1       3.109   3.630  17.919  0.00  0.00    +0.000 A 
ATOM     20  N   UNL     1       3.521   3.676  16.691  0.00  0.00    +0.000 NA
ATOM     21  C   UNL     1       4.835   4.101  16.453  0.00  0.00    +0.000 A 
ATOM     22  C   UNL     1       5.313   4.208  15.145  0.00  0.00    +0.000 A 
ATOM     23  C   UNL     1       6.621   4.640  14.896  0.00  0.00    +0.000 A 
ATOM     24  C   UNL     1       7.490   4.904  15.957  0.00  0.00    +0.000 A 
ATOM     25  C   UNL     1       7.028   4.797  17.266  0.00  0.00    +0.000 A 
ATOM     26  C   UNL     1       5.694   4.452  17.494  0.00  0.00    +0.000 A 
ATOM     27  C   UNL     1       5.097   4.562  18.831  0.00  0.00    +0.000 A 
ATOM     28  O   UNL     1       5.663   5.240  19.699  0.00  0.00    +0.000 OA
ENDBRANCH  17  18
ENDBRANCH   2  17
TORSDOF 4
ENDMDL
MODEL 4
REMARK VINA RESULT:      -8.1      1.712      2.412
REMARK  Name = 
REMARK  6 active torsions:
REMARK  status: ('A' for Active; 'I' for Inactive)
REMARK    1  A    between atoms: C_1  and  C_2
REMARK    2  A    between atoms: C_2  and  C_3
REMARK    3  A    between atoms: C_2  and  C_4
REMARK    4  A    between atoms: C_8  and  N_9
REMARK    5  A    between atoms: C_10  and  C_12
REMARK    6  A    between atoms: C_12  and  N_13
REMARK                            x       y       z     vdW  Elec       q    Type
REMARK                         _______ _______ _______ _____ _____    ______ ____
ROOT
ATOM      1  N   UNL     1       2.814   6.175  20.055  0.00  0.00    +0.000 N 
ATOM      2  C   UNL     1       2.271   4.885  20.139  0.00  0.00    +0.000 C 
ATOM      3  O   UNL     1       1.083   4.620  20.271  0.00  0.00    +0.000 OA
ATOM      4  H   UNL     1       3.764   6.253  19.691  0.00  0.00    +0.000 HD
ENDROOT
BRANCH   1   9
ATOM      5  C   UNL     1      -0.065  11.097  18.859  0.00  0.00    +0.000 A 
ATOM      6  N   UNL     1       0.720  10.277  18.184  0.00  0.00    +0.000 NA
ATOM      7  C   UNL     1       1.080   9.342  19.124  0.00  0.00    +0.000 A 
ATOM      8  C   UNL     1       1.868   8.190  19.013  0.00  0.00    +0.000 A 
ATOM      9  C   UNL     1       2.048   7.364  20.137  0.00  0.00    +0.000 A 
ATOM     10  C   UNL     1       1.448   7.718  21.360  0.00  0.00    +0.000 A 
ATOM     11  C   UNL     1       0.671   8.884  21.495  0.00  0.00    +0.000 A 
ATOM     12  C   UNL     1       0.518   9.648  20.340  0.00  0.00    +0.000 A 
ATOM     13  O   UNL     1      -0.226  10.786  20.189  0.00  0.00    +0.000 OA
BRANCH   5  15
ATOM     14  C   UNL     1      -2.160  11.871  17.761  0.00  0.00    +0.000 C 
ATOM     15  C   UNL     1      -0.826  12.287  18.376  0.00  0.00    +0.000 C 
ATOM     16  C   UNL     1      -1.046  13.291  19.509  0.00  0.00    +0.000 C 
ENDBRANCH   5  15
ENDBRANCH   1   9
BRANCH   2  17
ATOM     17  C   UNL     1       3.275   3.750  19.946  0.00  0.00    +0.000 C 
BRANCH  17  18
ATOM     18  N   UNL     1       4.294   4.109  18.961  0.00  0.00    +0.000 N 
ATOM     19  C   UNL     1       5.569   4.445  19.356  0.00  0.00    +0.000 A 
ATOM     20  N   UNL     1       6.556   4.676  18.548  0.00  0.00    +0.000 NA
ATOM     21  C   UNL     1       6.311   4.598  17.171  0.00  0.00    +0.000 A 
ATOM     22  C   UNL     1       7.351   4.797  16.260  0.00  0.00    +0.000 A 
ATOM     23  C   UNL     1       7.119   4.712  14.882  0.00  0.00    +0.000 A 
ATOM     24  C   UNL     1       5.827   4.497  14.396  0.00  0.00    +0.000 A 
ATOM     25  C   UNL     1       4.780   4.301  15.293  0.00  0.00    +0.000 A 
ATOM     26  C   UNL     1       5.046   4.299  16.664  0.00  0.00    +0.000 A 
ATOM     27  C   UNL     1       4.036   3.860  17.636  0.00  0.00    +0.000 A 
ATOM     28  O   UNL     1       3.059   3.206  17.247  0.00  0.00    +0.000 OA
ENDBRANCH  17  18
ENDBRANCH   2  17
TORSDOF 4
ENDMDL
MODEL 5
REMARK VINA RESULT:      -8.0      2.085      3.243
REMARK  Name = 
REMARK  6 active torsions:
REMARK  status: ('A' for Active; 'I' for Inactive)
REMARK    1  A    between atoms: C_1  and  C_2
REMARK    2  A    between atoms: C_2  and  C_3
REMARK    3  A    between atoms: C_2  and  C_4
REMARK    4  A    between atoms: C_8  and  N_9
REMARK    5  A    between atoms: C_10  and  C_12
REMARK    6  A    between atoms: C_12  and  N_13
REMARK                            x       y       z     vdW  Elec       q    Type
REMARK                         _______ _______ _______ _____ _____    ______ ____
ROOT
ATOM      1  N   UNL     1       3.771   5.934  17.965  0.00  0.00    +0.000 N 
ATOM      2  C   UNL     1       4.894   5.480  18.671  0.00  0.00    +0.000 C 
ATOM      3  O   UNL     1       5.289   5.925  19.741  0.00  0.00    +0.000 OA
ATOM      4  H   UNL     1       3.405   5.321  17.236  0.00  0.00    +0.000 HD
ENDROOT
BRANCH   1   9
ATOM      5  C   UNL     1       0.296   9.469  21.027  0.00  0.00    +0.000 A 
ATOM      6  N   UNL     1       0.795   8.258  21.198  0.00  0.00    +0.000 NA
ATOM      7  C   UNL     1       1.497   8.041  20.038  0.00  0.00    +0.000 A 
ATOM      8  C   UNL     1       2.283   6.954  19.635  0.00  0.00    +0.000 A 
ATOM      9  C   UNL     1       2.944   7.002  18.394  0.00  0.00    +0.000 A 
ATOM     10  C   UNL     1       2.789   8.132  17.570  0.00  0.00    +0.000 A 
ATOM     11  C   UNL     1       1.986   9.224  17.950  0.00  0.00    +0.000 A 
ATOM     12  C   UNL     1       1.374   9.121  19.198  0.00  0.00    +0.000 A 
ATOM     13  O   UNL     1       0.594  10.056  19.821  0.00  0.00    +0.000 OA
BRANCH   5  15
ATOM     14  C   UNL     1      -0.333   9.826  23.408  0.00  0.00    +0.000 C 
ATOM     15  C   UNL     1      -0.514  10.299  21.968  0.00  0.00    +0.000 C 
ATOM     16  C   UNL     1      -0.153  11.780  21.839  0.00  0.00    +0.000 C 
ENDBRANCH   5  15
ENDBRANCH   1   9
BRANCH   2  17
ATOM     17  C   UNL     1       5.590   4.266  18.061  0.00  0.00    +0.000 C 
BRANCH  17  18
ATOM     18  N   UNL     1       6.074   4.557  16.712  0.00  0.00    +0.000 N 
ATOM     19  C   UNL     1       7.038   5.515  16.500  0.00  0.00    +0.000 A 
ATOM     20  N   UNL     1       7.593   5.764  15.356  0.00  0.00    +0.000 NA
ATOM     21  C   UNL     1       7.175   5.019  14.245  0.00  0.00    +0.000 A 
ATOM     22  C   UNL     1       7.772   5.221  12.999  0.00  0.00    +0.000 A 
ATOM     23  C   UNL     1       7.368   4.476  11.884  0.00  0.00    +0.000 A 
ATOM     24  C   UNL     1       6.310   3.569  11.989  0.00  0.00    +0.000 A 
ATOM     25  C   UNL     1       5.703   3.362  13.224  0.00  0.00    +0.000 A 
ATOM     26  C   UNL     1       6.179   4.048  14.344  0.00  0.00    +0.000 A 
ATOM     27  C   UNL     1       5.742   3.690  15.700  0.00  0.00    +0.000 A 
ATOM     28  O   UNL     1       5.192   2.597  15.896  0.00  0.00    +0.000 OA
ENDBRANCH  17  18
ENDBRANCH   2  17
TORSDOF 4
ENDMDL
MODEL 6
REMARK VINA RESULT:      -7.8      6.582      8.182
REMARK  Name = 
REMARK  6 active torsions:
REMARK  status: ('A' for Active; 'I' for Inactive)
REMARK    1  A    between atoms: C_1  and  C_2
REMARK    2  A    between atoms: C_2  and  C_3
REMARK    3  A    between atoms: C_2  and  C_4
REMARK    4  A    between atoms: C_8  and  N_9
REMARK    5  A    between atoms: C_10  and  C_12
REMARK    6  A    between atoms: C_12  and  N_13
REMARK                            x       y       z     vdW  Elec       q    Type
REMARK                         _______ _______ _______ _____ _____    ______ ____
ROOT
ATOM      1  N   UNL     1       8.931   8.803  18.992  0.00  0.00    +0.000 N 
ATOM      2  C   UNL     1       8.003   8.341  18.048  0.00  0.00    +0.000 C 
ATOM      3  O   UNL     1       7.350   9.045  17.288  0.00  0.00    +0.000 OA
ATOM      4  H   UNL     1       9.584   8.117  19.372  0.00  0.00    +0.000 HD
ENDROOT
BRANCH   1   9
ATOM      5  C   UNL     1      10.147  14.463  18.335  0.00  0.00    +0.000 A 
ATOM      6  N   UNL     1      10.045  13.422  17.529  0.00  0.00    +0.000 NA
ATOM      7  C   UNL     1       9.777  12.385  18.389  0.00  0.00    +0.000 A 
ATOM      8  C   UNL     1       9.520  11.031  18.137  0.00  0.00    +0.000 A 
ATOM      9  C   UNL     1       9.224  10.172  19.211  0.00  0.00    +0.000 A 
ATOM     10  C   UNL     1       9.208  10.683  20.522  0.00  0.00    +0.000 A 
ATOM     11  C   UNL     1       9.484  12.035  20.796  0.00  0.00    +0.000 A 
ATOM     12  C   UNL     1       9.752  12.835  19.687  0.00  0.00    +0.000 A 
ATOM     13  O   UNL     1       9.995  14.181  19.672  0.00  0.00    +0.000 OA
BRANCH   5  15
ATOM     14  C   UNL     1      11.040  16.044  16.633  0.00  0.00    +0.000 C 
ATOM     15  C   UNL     1      10.371  15.900  17.997  0.00  0.00    +0.000 C 
ATOM     16  C   UNL     1       9.055  16.680  18.035  0.00  0.00    +0.000 C 
ENDBRANCH   5  15
ENDBRANCH   1   9
BRANCH   2  17
ATOM     17  C   UNL     1       7.907   6.822  17.931  0.00  0.00    +0.000 C 
BRANCH  17  18
ATOM     18  N   UNL     1       6.513   6.382  17.893  0.00  0.00    +0.000 N 
ATOM     19  C   UNL     1       5.783   6.449  16.729  0.00  0.00    +0.000 A 
ATOM     20  N   UNL     1       4.581   5.989  16.583  0.00  0.00    +0.000 NA
ATOM     21  C   UNL     1       3.964   5.393  17.692  0.00  0.00    +0.000 A 
ATOM     22  C   UNL     1       2.685   4.845  17.575  0.00  0.00    +0.000 A 
ATOM     23  C   UNL     1       2.064   4.241  18.675  0.00  0.00    +0.000 A 
ATOM     24  C   UNL     1       2.688   4.240  19.924  0.00  0.00    +0.000 A 
ATOM     25  C   UNL     1       3.961   4.788  20.056  0.00  0.00    +0.000 A 
ATOM     26  C   UNL     1       4.603   5.306  18.929  0.00  0.00    +0.000 A 
ATOM     27  C   UNL     1       6.025   5.669  18.961  0.00  0.00    +0.000 A 
ATOM     28  O   UNL     1       6.743   5.245  19.877  0.00  0.00    +0.000 OA
ENDBRANCH  17  18
ENDBRANCH   2  17
TORSDOF 4
ENDMDL
MODEL 7
REMARK VINA RESULT:      -7.6      2.315      3.514
REMARK  Name = 
REMARK  6 active torsions:
REMARK  status: ('A' for Active; 'I' for Inactive)
REMARK    1  A    between atoms: C_1  and  C_2
REMARK    2  A    between atoms: C_2  and  C_3
REMARK    3  A    between atoms: C_2  and  C_4
REMARK    4  A    between atoms: C_8  and  N_9
REMARK    5  A    between atoms: C_10  and  C_12
REMARK    6  A    between atoms: C_12  and  N_13
REMARK                            x       y       z     vdW  Elec       q    Type
REMARK                         _______ _______ _______ _____ _____    ______ ____
ROOT
ATOM      1  N   UNL     1       3.605   5.766  18.263  0.00  0.00    +0.000 N 
ATOM      2  C   UNL     1       4.861   5.408  18.771  0.00  0.00    +0.000 C 
ATOM      3  O   UNL     1       5.418   5.931  19.728  0.00  0.00    +0.000 OA
ATOM      4  H   UNL     1       3.149   5.096  17.643  0.00  0.00    +0.000 HD
ENDROOT
BRANCH   1   9
ATOM      5  C   UNL     1       0.589  10.697  19.003  0.00  0.00    +0.000 A 
ATOM      6  N   UNL     1       1.390  10.213  18.071  0.00  0.00    +0.000 NA
ATOM      7  C   UNL     1       1.782   9.003  18.590  0.00  0.00    +0.000 A 
ATOM      8  C   UNL     1       2.598   7.999  18.054  0.00  0.00    +0.000 A 
ATOM      9  C   UNL     1       2.809   6.816  18.785  0.00  0.00    +0.000 A 
ATOM     10  C   UNL     1       2.210   6.667  20.050  0.00  0.00    +0.000 A 
ATOM     11  C   UNL     1       1.405   7.675  20.613  0.00  0.00    +0.000 A 
ATOM     12  C   UNL     1       1.222   8.813  19.830  0.00  0.00    +0.000 A 
ATOM     13  O   UNL     1       0.449   9.904  20.118  0.00  0.00    +0.000 OA
BRANCH   5  15
ATOM     14  C   UNL     1       0.610  13.120  18.438  0.00  0.00    +0.000 C 
ATOM     15  C   UNL     1      -0.206  11.960  19.003  0.00  0.00    +0.000 C 
ATOM     16  C   UNL     1      -1.507  11.786  18.218  0.00  0.00    +0.000 C 
ENDBRANCH   5  15
ENDBRANCH   1   9
BRANCH   2  17
ATOM     17  C   UNL     1       5.504   4.195  18.101  0.00  0.00    +0.000 C 
BRANCH  17  18
ATOM     18  N   UNL     1       6.010   4.533  16.772  0.00  0.00    +0.000 N 
ATOM     19  C   UNL     1       6.968   5.508  16.608  0.00  0.00    +0.000 A 
ATOM     20  N   UNL     1       7.542   5.798  15.484  0.00  0.00    +0.000 NA
ATOM     21  C   UNL     1       7.154   5.083  14.342  0.00  0.00    +0.000 A 
ATOM     22  C   UNL     1       7.773   5.329  13.115  0.00  0.00    +0.000 A 
ATOM     23  C   UNL     1       7.398   4.615  11.970  0.00  0.00    +0.000 A 
ATOM     24  C   UNL     1       6.349   3.695  12.026  0.00  0.00    +0.000 A 
ATOM     25  C   UNL     1       5.720   3.443  13.242  0.00  0.00    +0.000 A 
ATOM     26  C   UNL     1       6.167   4.099  14.392  0.00  0.00    +0.000 A 
ATOM     27  C   UNL     1       5.708   3.695  15.727  0.00  0.00    +0.000 A 
ATOM     28  O   UNL     1       5.167   2.591  15.879  0.00  0.00    +0.000 OA
ENDBRANCH  17  18
ENDBRANCH   2  17
TORSDOF 4
ENDMDL
MODEL 8
REMARK VINA RESULT:      -7.5      1.570      2.119
REMARK  Name = 
REMARK  6 active torsions:
REMARK  status: ('A' for Active; 'I' for Inactive)
REMARK    1  A    between atoms: C_1  and  C_2
REMARK    2  A    between atoms: C_2  and  C_3
REMARK    3  A    between atoms: C_2  and  C_4
REMARK    4  A    between atoms: C_8  and  N_9
REMARK    5  A    between atoms: C_10  and  C_12
REMARK    6  A    between atoms: C_12  and  N_13
REMARK                            x       y       z     vdW  Elec       q    Type
REMARK                         _______ _______ _______ _____ _____    ______ ____
ROOT
ATOM      1  N   UNL     1       1.839   7.191  20.908  0.00  0.00    +0.000 N 
ATOM      2  C   UNL     1       2.298   6.648  19.700  0.00  0.00    +0.000 C 
ATOM      3  O   UNL     1       2.187   7.169  18.598  0.00  0.00    +0.000 OA
ATOM      4  H   UNL     1       2.218   6.792  21.768  0.00  0.00    +0.000 HD
ENDROOT
BRANCH   1   9
ATOM      5  C   UNL     1      -1.144  11.819  22.814  0.00  0.00    +0.000 A 
ATOM      6  N   UNL     1      -0.794  10.650  23.320  0.00  0.00    +0.000 NA
ATOM      7  C   UNL     1      -0.138  10.042  22.279  0.00  0.00    +0.000 A 
ATOM      8  C   UNL     1       0.506   8.800  22.204  0.00  0.00    +0.000 A 
ATOM      9  C   UNL     1       1.153   8.427  21.012  0.00  0.00    +0.000 A 
ATOM     10  C   UNL     1       1.128   9.299  19.908  0.00  0.00    +0.000 A 
ATOM     11  C   UNL     1       0.468  10.541  19.958  0.00  0.00    +0.000 A 
ATOM     12  C   UNL     1      -0.137  10.857  21.173  0.00  0.00    +0.000 A 
ATOM     13  O   UNL     1      -0.791  12.014  21.500  0.00  0.00    +0.000 OA
BRANCH   5  15
ATOM     14  C   UNL     1      -1.299  14.298  22.962  0.00  0.00    +0.000 C 
ATOM     15  C   UNL     1      -1.836  12.965  23.476  0.00  0.00    +0.000 C 
ATOM     16  C   UNL     1      -3.350  12.881  23.270  0.00  0.00    +0.000 C 
ENDBRANCH   5  15
ENDBRANCH   1   9
BRANCH   2  17
ATOM     17  C   UNL     1       3.081   5.344  19.837  0.00  0.00    +0.000 C 
BRANCH  17  18
ATOM     18  N   UNL     1       4.171   5.278  18.865  0.00  0.00    +0.000 N 
ATOM     19  C   UNL     1       5.473   5.505  19.250  0.00  0.00    +0.000 A 
ATOM     20  N   UNL     1       6.505   5.368  18.479  0.00  0.00    +0.000 NA
ATOM     21  C   UNL     1       6.289   4.977  17.151  0.00  0.00    +0.000 A 
ATOM     22  C   UNL     1       7.371   4.774  16.292  0.00  0.00    +0.000 A 
ATOM     23  C   UNL     1       7.165   4.375  14.966  0.00  0.00    +0.000 A 
ATOM     24  C   UNL     1       5.869   4.242  14.463  0.00  0.00    +0.000 A 
ATOM     25  C   UNL     1       4.781   4.446  15.307  0.00  0.00    +0.000 A 
ATOM     26  C   UNL     1       5.006   4.755  16.650  0.00  0.00    +0.000 A 
ATOM     27  C   UNL     1       3.911   4.740  17.629  0.00  0.00    +0.000 A 
ATOM     28  O   UNL     1       2.850   4.165  17.350  0.00  0.00    +0.000 OA
ENDBRANCH  17  18
ENDBRANCH   2  17
TORSDOF 4
ENDMDL
MODEL 9
REMARK VINA RESULT:      -7.5      2.983     10.051
REMARK  Name = 
REMARK  6 active torsions:
REMARK  status: ('A' for Active; 'I' for Inactive)
REMARK    1  A    between atoms: C_1  and  C_2
REMARK    2  A    between atoms: C_2  and  C_3
REMARK    3  A    between atoms: C_2  and  C_4
REMARK    4  A    between atoms: C_8  and  N_9
REMARK    5  A    between atoms: C_10  and  C_12
REMARK    6  A    between atoms: C_12  and  N_13
REMARK                            x       y       z     vdW  Elec       q    Type
REMARK                         _______ _______ _______ _____ _____    ______ ____
ROOT
ATOM      1  N   UNL     1       1.066  10.278  19.777  0.00  0.00    +0.000 N 
ATOM      2  C   UNL     1      -0.255  10.699  19.568  0.00  0.00    +0.000 C 
ATOM      3  O   UNL     1      -1.163  10.004  19.131  0.00  0.00    +0.000 OA
ATOM      4  H   UNL     1       1.648  10.862  20.378  0.00  0.00    +0.000 HD
ENDROOT
BRANCH   1   9
ATOM      5  C   UNL     1       2.421   4.615  19.976  0.00  0.00    +0.000 A 
ATOM      6  N   UNL     1       1.928   5.496  20.827  0.00  0.00    +0.000 NA
ATOM      7  C   UNL     1       1.921   6.663  20.103  0.00  0.00    +0.000 A 
ATOM      8  C   UNL     1       1.472   7.946  20.439  0.00  0.00    +0.000 A 
ATOM      9  C   UNL     1       1.538   8.975  19.482  0.00  0.00    +0.000 A 
ATOM     10  C   UNL     1       2.070   8.703  18.208  0.00  0.00    +0.000 A 
ATOM     11  C   UNL     1       2.546   7.425  17.860  0.00  0.00    +0.000 A 
ATOM     12  C   UNL     1       2.436   6.447  18.847  0.00  0.00    +0.000 A 
ATOM     13  O   UNL     1       2.770   5.124  18.748  0.00  0.00    +0.000 OA
BRANCH   5  15
ATOM     14  C   UNL     1       2.369   2.724  21.593  0.00  0.00    +0.000 C 
ATOM     15  C   UNL     1       2.621   3.145  20.148  0.00  0.00    +0.000 C 
ATOM     16  C   UNL     1       1.721   2.357  19.194  0.00  0.00    +0.000 C 
ENDBRANCH   5  15
ENDBRANCH   1   9
BRANCH   2  17
ATOM     17  C   UNL     1      -0.557  12.123  20.032  0.00  0.00    +0.000 C 
BRANCH  17  18
ATOM     18  N   UNL     1      -1.518  12.126  21.134  0.00  0.00    +0.000 N 
ATOM     19  C   UNL     1      -1.117  11.845  22.420  0.00  0.00    +0.000 A 
ATOM     20  N   UNL     1      -1.878  11.925  23.465  0.00  0.00    +0.000 NA
ATOM     21  C   UNL     1      -3.214  12.309  23.280  0.00  0.00    +0.000 A 
ATOM     22  C   UNL     1      -4.064  12.450  24.378  0.00  0.00    +0.000 A 
ATOM     23  C   UNL     1      -5.397  12.841  24.205  0.00  0.00    +0.000 A 
ATOM     24  C   UNL     1      -5.915  13.026  22.921  0.00  0.00    +0.000 A 
ATOM     25  C   UNL     1      -5.080  12.884  21.816  0.00  0.00    +0.000 A 
ATOM     26  C   UNL     1      -3.731  12.582  22.013  0.00  0.00    +0.000 A 
ATOM     27  C   UNL     1      -2.763  12.660  20.911  0.00  0.00    +0.000 A 
ATOM     28  O   UNL     1      -3.061  13.279  19.880  0.00  0.00    +0.000 OA
ENDBRANCH  17  18
ENDBRANCH   2  17
TORSDOF 4
ENDMDL
