MODEL 1
REMARK VINA RESULT:      -7.8      0.000      0.000
REMARK  Name = 
REMARK  3 active torsions:
REMARK  status: ('A' for Active; 'I' for Inactive)
REMARK    1  A    between atoms: C_1  and  C_2
REMARK    2  A    between atoms: C_8  and  C_9
REMARK    3  A    between atoms: C_17  and  C_18
REMARK                            x       y       z     vdW  Elec       q    Type
REMARK                         _______ _______ _______ _____ _____    ______ ____
ROOT
ATOM      1  C   UNL     1      -5.097  12.636  20.523  0.00  0.00    +0.000 C 
ATOM      2  O   UNL     1      -6.325  12.498  20.523  0.00  0.00    +0.000 OA
ATOM      3  N   UNL     1      -4.307  12.240  19.434  0.00  0.00    +0.000 N 
ATOM      4  C   UNL     1      -5.053  12.196  18.166  0.00  0.00    +0.000 C 
ATOM      5  C   UNL     1      -4.596  11.203  17.123  0.00  0.00    +0.000 C 
ATOM      6  C   UNL     1      -3.107  11.200  16.945  0.00  0.00    +0.000 C 
ATOM      7  C   UNL     1      -2.371  11.339  18.240  0.00  0.00    +0.000 A 
ATOM      8  C   UNL     1      -1.079  10.798  18.229  0.00  0.00    +0.000 A 
ATOM      9  C   UNL     1      -0.260  10.729  19.355  0.00  0.00    +0.000 A 
ATOM     10  C   UNL     1      -0.728  11.378  20.494  0.00  0.00    +0.000 A 
ATOM     11  C   UNL     1      -2.034  11.924  20.521  0.00  0.00    +0.000 A 
ATOM     12  C   UNL     1      -2.906  11.885  19.414  0.00  0.00    +0.000 A 
ENDROOT
BRANCH   1  20
ATOM     13  C   UNL     1      -1.693  18.237  24.045  0.00  0.00    +0.000 C 
ATOM     14  C   UNL     1      -2.343  16.892  24.044  0.00  0.00    +0.000 A 
ATOM     15  C   UNL     1      -2.389  16.106  25.256  0.00  0.00    +0.000 A 
ATOM     16  C   UNL     1      -2.935  14.889  25.265  0.00  0.00    +0.000 A 
ATOM     17  C   UNL     1      -3.506  14.323  24.015  0.00  0.00    +0.000 A 
ATOM     18  N   UNL     1      -3.994  13.122  24.038  0.00  0.00    +0.000 NA
ATOM     19  C   UNL     1      -4.489  12.631  22.861  0.00  0.00    +0.000 A 
ATOM     20  C   UNL     1      -4.512  13.293  21.695  0.00  0.00    +0.000 A 
ATOM     21  C   UNL     1      -4.054  14.696  21.692  0.00  0.00    +0.000 A 
ATOM     22  O   UNL     1      -4.184  15.397  20.692  0.00  0.00    +0.000 OA
ATOM     23  N   UNL     1      -3.474  15.131  22.883  0.00  0.00    +0.000 N 
ATOM     24  C   UNL     1      -2.884  16.384  22.914  0.00  0.00    +0.000 A 
ENDBRANCH   1  20
BRANCH   9  25
ATOM     25  C   UNL     1       0.881   9.793  19.301  0.00  0.00    +0.000 A 
ATOM     26  C   UNL     1       1.536   9.564  18.072  0.00  0.00    +0.000 A 
ATOM     27  C   UNL     1       2.209   8.369  17.825  0.00  0.00    +0.000 A 
ATOM     28  C   UNL     1       2.337   7.429  18.839  0.00  0.00    +0.000 A 
ATOM     29  C   UNL     1       1.833   7.704  20.109  0.00  0.00    +0.000 A 
ATOM     30  C   UNL     1       1.111   8.880  20.342  0.00  0.00    +0.000 A 
ENDBRANCH   9  25
TORSDOF 2
ENDMDL
MODEL 2
REMARK VINA RESULT:      -7.5      1.095      1.783
REMARK  Name = 
REMARK  3 active torsions:
REMARK  status: ('A' for Active; 'I' for Inactive)
REMARK    1  A    between atoms: C_1  and  C_2
REMARK    2  A    between atoms: C_8  and  C_9
REMARK    3  A    between atoms: C_17  and  C_18
REMARK                            x       y       z     vdW  Elec       q    Type
REMARK                         _______ _______ _______ _____ _____    ______ ____
ROOT
ATOM      1  C   UNL     1      -4.750  13.073  20.500  0.00  0.00    +0.000 C 
ATOM      2  O   UNL     1      -5.945  12.981  20.806  0.00  0.00    +0.000 OA
ATOM      3  N   UNL     1      -4.186  12.298  19.477  0.00  0.00    +0.000 N 
ATOM      4  C   UNL     1      -5.175  11.837  18.489  0.00  0.00    +0.000 C 
ATOM      5  C   UNL     1      -4.899  10.529  17.785  0.00  0.00    +0.000 C 
ATOM      6  C   UNL     1      -3.480  10.419  17.311  0.00  0.00    +0.000 C 
ATOM      7  C   UNL     1      -2.500  10.979  18.293  0.00  0.00    +0.000 A 
ATOM      8  C   UNL     1      -1.215  10.430  18.200  0.00  0.00    +0.000 A 
ATOM      9  C   UNL     1      -0.179  10.733  19.081  0.00  0.00    +0.000 A 
ATOM     10  C   UNL     1      -0.430  11.753  19.995  0.00  0.00    +0.000 A 
ATOM     11  C   UNL     1      -1.726  12.313  20.103  0.00  0.00    +0.000 A 
ATOM     12  C   UNL     1      -2.804  11.916  19.288  0.00  0.00    +0.000 A 
ENDROOT
BRANCH   1  20
ATOM     13  C   UNL     1      -1.034  15.700  26.385  0.00  0.00    +0.000 C 
ATOM     14  C   UNL     1      -1.518  15.827  24.978  0.00  0.00    +0.000 A 
ATOM     15  C   UNL     1      -1.265  17.037  24.229  0.00  0.00    +0.000 A 
ATOM     16  C   UNL     1      -1.720  17.181  22.984  0.00  0.00    +0.000 A 
ATOM     17  C   UNL     1      -2.501  16.088  22.348  0.00  0.00    +0.000 A 
ATOM     18  N   UNL     1      -2.968  16.268  21.152  0.00  0.00    +0.000 NA
ATOM     19  C   UNL     1      -3.700  15.246  20.613  0.00  0.00    +0.000 A 
ATOM     20  C   UNL     1      -3.967  14.080  21.220  0.00  0.00    +0.000 A 
ATOM     21  C   UNL     1      -3.347  13.833  22.537  0.00  0.00    +0.000 A 
ATOM     22  O   UNL     1      -3.436  12.735  23.077  0.00  0.00    +0.000 OA
ATOM     23  N   UNL     1      -2.686  14.928  23.093  0.00  0.00    +0.000 N 
ATOM     24  C   UNL     1      -2.209  14.826  24.389  0.00  0.00    +0.000 A 
ENDBRANCH   1  20
BRANCH   9  25
ATOM     25  C   UNL     1       0.969   9.802  19.118  0.00  0.00    +0.000 A 
ATOM     26  C   UNL     1       1.667   9.511  17.927  0.00  0.00    +0.000 A 
ATOM     27  C   UNL     1       2.354   8.309  17.769  0.00  0.00    +0.000 A 
ATOM     28  C   UNL     1       2.450   7.426  18.836  0.00  0.00    +0.000 A 
ATOM     29  C   UNL     1       1.902   7.767  20.071  0.00  0.00    +0.000 A 
ATOM     30  C   UNL     1       1.166   8.949  20.215  0.00  0.00    +0.000 A 
ENDBRANCH   9  25
TORSDOF 2
ENDMDL
MODEL 3
REMARK VINA RESULT:      -7.5      2.200      3.603
REMARK  Name = 
REMARK  3 active torsions:
REMARK  status: ('A' for Active; 'I' for Inactive)
REMARK    1  A    between atoms: C_1  and  C_2
REMARK    2  A    between atoms: C_8  and  C_9
REMARK    3  A    between atoms: C_17  and  C_18
REMARK                            x       y       z     vdW  Elec       q    Type
REMARK                         _______ _______ _______ _____ _____    ______ ____
ROOT
ATOM      1  C   UNL     1      -6.597  13.272  23.552  0.00  0.00    +0.000 C 
ATOM      2  O   UNL     1      -7.367  12.854  24.425  0.00  0.00    +0.000 OA
ATOM      3  N   UNL     1      -6.620  12.769  22.243  0.00  0.00    +0.000 N 
ATOM      4  C   UNL     1      -7.917  12.178  21.874  0.00  0.00    +0.000 C 
ATOM      5  C   UNL     1      -7.907  11.058  20.859  0.00  0.00    +0.000 C 
ATOM      6  C   UNL     1      -7.025  11.354  19.683  0.00  0.00    +0.000 C 
ATOM      7  C   UNL     1      -5.754  12.040  20.075  0.00  0.00    +0.000 A 
ATOM      8  C   UNL     1      -4.695  11.841  19.180  0.00  0.00    +0.000 A 
ATOM      9  C   UNL     1      -3.398  12.304  19.402  0.00  0.00    +0.000 A 
ATOM     10  C   UNL     1      -3.224  13.131  20.508  0.00  0.00    +0.000 A 
ATOM     11  C   UNL     1      -4.285  13.336  21.423  0.00  0.00    +0.000 A 
ATOM     12  C   UNL     1      -5.563  12.766  21.257  0.00  0.00    +0.000 A 
ENDROOT
BRANCH   1  20
ATOM     13  C   UNL     1      -0.469  16.108  26.675  0.00  0.00    +0.000 C 
ATOM     14  C   UNL     1      -1.742  16.264  25.908  0.00  0.00    +0.000 A 
ATOM     15  C   UNL     1      -2.204  17.580  25.529  0.00  0.00    +0.000 A 
ATOM     16  C   UNL     1      -3.355  17.741  24.875  0.00  0.00    +0.000 A 
ATOM     17  C   UNL     1      -4.183  16.556  24.527  0.00  0.00    +0.000 A 
ATOM     18  N   UNL     1      -5.318  16.740  23.928  0.00  0.00    +0.000 NA
ATOM     19  C   UNL     1      -6.058  15.625  23.647  0.00  0.00    +0.000 A 
ATOM     20  C   UNL     1      -5.701  14.365  23.938  0.00  0.00    +0.000 A 
ATOM     21  C   UNL     1      -4.365  14.147  24.524  0.00  0.00    +0.000 A 
ATOM     22  O   UNL     1      -3.925  13.012  24.680  0.00  0.00    +0.000 OA
ATOM     23  N   UNL     1      -3.679  15.308  24.879  0.00  0.00    +0.000 N 
ATOM     24  C   UNL     1      -2.485  15.187  25.571  0.00  0.00    +0.000 A 
ENDBRANCH   1  20
BRANCH   9  25
ATOM     25  C   UNL     1      -2.318  11.691  18.602  0.00  0.00    +0.000 A 
ATOM     26  C   UNL     1      -2.646  10.854  17.514  0.00  0.00    +0.000 A 
ATOM     27  C   UNL     1      -1.774   9.858  17.081  0.00  0.00    +0.000 A 
ATOM     28  C   UNL     1      -0.512   9.753  17.651  0.00  0.00    +0.000 A 
ATOM     29  C   UNL     1      -0.108  10.672  18.618  0.00  0.00    +0.000 A 
ATOM     30  C   UNL     1      -1.003  11.638  19.092  0.00  0.00    +0.000 A 
ENDBRANCH   9  25
TORSDOF 2
ENDMDL
MODEL 4
REMARK VINA RESULT:      -7.4      1.692      2.288
REMARK  Name = 
REMARK  3 active torsions:
REMARK  status: ('A' for Active; 'I' for Inactive)
REMARK    1  A    between atoms: C_1  and  C_2
REMARK    2  A    between atoms: C_8  and  C_9
REMARK    3  A    between atoms: C_17  and  C_18
REMARK                            x       y       z     vdW  Elec       q    Type
REMARK                         _______ _______ _______ _____ _____    ______ ____
ROOT
ATOM      1  C   UNL     1      -3.590  12.666  19.966  0.00  0.00    +0.000 C 
ATOM      2  O   UNL     1      -4.811  12.713  20.160  0.00  0.00    +0.000 OA
ATOM      3  N   UNL     1      -3.028  11.834  18.987  0.00  0.00    +0.000 N 
ATOM      4  C   UNL     1      -3.969  11.498  17.906  0.00  0.00    +0.000 C 
ATOM      5  C   UNL     1      -3.783  10.169  17.209  0.00  0.00    +0.000 C 
ATOM      6  C   UNL     1      -2.349   9.896  16.866  0.00  0.00    +0.000 C 
ATOM      7  C   UNL     1      -1.405  10.331  17.942  0.00  0.00    +0.000 A 
ATOM      8  C   UNL     1      -0.190   9.636  17.957  0.00  0.00    +0.000 A 
ATOM      9  C   UNL     1       0.789   9.810  18.934  0.00  0.00    +0.000 A 
ATOM     10  C   UNL     1       0.574  10.849  19.837  0.00  0.00    +0.000 A 
ATOM     11  C   UNL     1      -0.651  11.557  19.835  0.00  0.00    +0.000 A 
ATOM     12  C   UNL     1      -1.689  11.293  18.919  0.00  0.00    +0.000 A 
ENDROOT
BRANCH   1  20
ATOM     13  C   UNL     1      -1.166  15.600  26.359  0.00  0.00    +0.000 C 
ATOM     14  C   UNL     1      -1.125  15.487  24.870  0.00  0.00    +0.000 A 
ATOM     15  C   UNL     1      -0.255  16.346  24.100  0.00  0.00    +0.000 A 
ATOM     16  C   UNL     1      -0.231  16.284  22.768  0.00  0.00    +0.000 A 
ATOM     17  C   UNL     1      -1.110  15.320  22.055  0.00  0.00    +0.000 A 
ATOM     18  N   UNL     1      -1.100  15.307  20.759  0.00  0.00    +0.000 NA
ATOM     19  C   UNL     1      -1.940  14.421  20.142  0.00  0.00    +0.000 A 
ATOM     20  C   UNL     1      -2.764  13.570  20.770  0.00  0.00    +0.000 A 
ATOM     21  C   UNL     1      -2.699  13.511  22.244  0.00  0.00    +0.000 A 
ATOM     22  O   UNL     1      -3.322  12.656  22.867  0.00  0.00    +0.000 OA
ATOM     23  N   UNL     1      -1.902  14.488  22.839  0.00  0.00    +0.000 N 
ATOM     24  C   UNL     1      -1.907  14.597  24.220  0.00  0.00    +0.000 A 
ENDBRANCH   1  20
BRANCH   9  25
ATOM     25  C   UNL     1       1.811   8.752  19.061  0.00  0.00    +0.000 A 
ATOM     26  C   UNL     1       2.596   8.404  17.941  0.00  0.00    +0.000 A 
ATOM     27  C   UNL     1       3.154   7.134  17.817  0.00  0.00    +0.000 A 
ATOM     28  C   UNL     1       3.033   6.224  18.860  0.00  0.00    +0.000 A 
ATOM     29  C   UNL     1       2.397   6.602  20.041  0.00  0.00    +0.000 A 
ATOM     30  C   UNL     1       1.790   7.859  20.145  0.00  0.00    +0.000 A 
ENDBRANCH   9  25
TORSDOF 2
ENDMDL
MODEL 5
REMARK VINA RESULT:      -7.4      0.993      1.067
REMARK  Name = 
REMARK  3 active torsions:
REMARK  status: ('A' for Active; 'I' for Inactive)
REMARK    1  A    between atoms: C_1  and  C_2
REMARK    2  A    between atoms: C_8  and  C_9
REMARK    3  A    between atoms: C_17  and  C_18
REMARK                            x       y       z     vdW  Elec       q    Type
REMARK                         _______ _______ _______ _____ _____    ______ ____
ROOT
ATOM      1  C   UNL     1      -5.340  12.351  19.385  0.00  0.00    +0.000 C 
ATOM      2  O   UNL     1      -6.549  12.167  19.202  0.00  0.00    +0.000 OA
ATOM      3  N   UNL     1      -4.382  11.972  18.435  0.00  0.00    +0.000 N 
ATOM      4  C   UNL     1      -4.925  11.887  17.069  0.00  0.00    +0.000 C 
ATOM      5  C   UNL     1      -4.280  10.899  16.124  0.00  0.00    +0.000 C 
ATOM      6  C   UNL     1      -2.782  10.950  16.173  0.00  0.00    +0.000 C 
ATOM      7  C   UNL     1      -2.257  11.130  17.562  0.00  0.00    +0.000 A 
ATOM      8  C   UNL     1      -0.960  10.638  17.755  0.00  0.00    +0.000 A 
ATOM      9  C   UNL     1      -0.319  10.612  18.992  0.00  0.00    +0.000 A 
ATOM     10  C   UNL     1      -0.976  11.256  20.037  0.00  0.00    +0.000 A 
ATOM     11  C   UNL     1      -2.289  11.754  19.857  0.00  0.00    +0.000 A 
ATOM     12  C   UNL     1      -2.981  11.669  18.632  0.00  0.00    +0.000 A 
ENDROOT
BRANCH   1  20
ATOM     13  C   UNL     1      -3.478  18.333  23.398  0.00  0.00    +0.000 C 
ATOM     14  C   UNL     1      -3.786  16.876  23.284  0.00  0.00    +0.000 A 
ATOM     15  C   UNL     1      -3.676  16.017  24.441  0.00  0.00    +0.000 A 
ATOM     16  C   UNL     1      -3.914  14.708  24.350  0.00  0.00    +0.000 A 
ATOM     17  C   UNL     1      -4.298  14.113  23.043  0.00  0.00    +0.000 A 
ATOM     18  N   UNL     1      -4.484  12.832  22.969  0.00  0.00    +0.000 NA
ATOM     19  C   UNL     1      -4.814  12.323  21.743  0.00  0.00    +0.000 A 
ATOM     20  C   UNL     1      -4.963  13.043  20.621  0.00  0.00    +0.000 A 
ATOM     21  C   UNL     1      -4.855  14.511  20.726  0.00  0.00    +0.000 A 
ATOM     22  O   UNL     1      -5.121  15.230  19.768  0.00  0.00    +0.000 OA
ATOM     23  N   UNL     1      -4.429  14.985  21.966  0.00  0.00    +0.000 N 
ATOM     24  C   UNL     1      -4.158  16.336  22.102  0.00  0.00    +0.000 A 
ENDBRANCH   1  20
BRANCH   9  25
ATOM     25  C   UNL     1       0.850   9.718  19.127  0.00  0.00    +0.000 A 
ATOM     26  C   UNL     1       1.579   9.348  17.977  0.00  0.00    +0.000 A 
ATOM     27  C   UNL     1       2.298   8.155  17.931  0.00  0.00    +0.000 A 
ATOM     28  C   UNL     1       2.395   7.366  19.070  0.00  0.00    +0.000 A 
ATOM     29  C   UNL     1       1.813   7.793  20.263  0.00  0.00    +0.000 A 
ATOM     30  C   UNL     1       1.046   8.963  20.294  0.00  0.00    +0.000 A 
ENDBRANCH   9  25
TORSDOF 2
ENDMDL
MODEL 6
REMARK VINA RESULT:      -7.3      1.459      1.620
REMARK  Name = 
REMARK  3 active torsions:
REMARK  status: ('A' for Active; 'I' for Inactive)
REMARK    1  A    between atoms: C_1  and  C_2
REMARK    2  A    between atoms: C_8  and  C_9
REMARK    3  A    between atoms: C_17  and  C_18
REMARK                            x       y       z     vdW  Elec       q    Type
REMARK                         _______ _______ _______ _____ _____    ______ ____
ROOT
ATOM      1  C   UNL     1      -3.873  12.325  19.978  0.00  0.00    +0.000 C 
ATOM      2  O   UNL     1      -5.110  12.345  19.952  0.00  0.00    +0.000 OA
ATOM      3  N   UNL     1      -3.121  11.726  18.957  0.00  0.00    +0.000 N 
ATOM      4  C   UNL     1      -3.842  11.653  17.675  0.00  0.00    +0.000 C 
ATOM      5  C   UNL     1      -3.497  10.512  16.747  0.00  0.00    +0.000 C 
ATOM      6  C   UNL     1      -2.018  10.302  16.618  0.00  0.00    +0.000 C 
ATOM      7  C   UNL     1      -1.296  10.472  17.917  0.00  0.00    +0.000 A 
ATOM      8  C   UNL     1      -0.085   9.774  17.998  0.00  0.00    +0.000 A 
ATOM      9  C   UNL     1       0.696   9.712  19.151  0.00  0.00    +0.000 A 
ATOM     10  C   UNL     1       0.294  10.525  20.208  0.00  0.00    +0.000 A 
ATOM     11  C   UNL     1      -0.930  11.232  20.141  0.00  0.00    +0.000 A 
ATOM     12  C   UNL     1      -1.778  11.195  19.015  0.00  0.00    +0.000 A 
ENDROOT
BRANCH   1  20
ATOM     13  C   UNL     1       0.691  17.363  23.000  0.00  0.00    +0.000 C 
ATOM     14  C   UNL     1      -0.324  16.273  23.123  0.00  0.00    +0.000 A 
ATOM     15  C   UNL     1      -0.710  15.784  24.427  0.00  0.00    +0.000 A 
ATOM     16  C   UNL     1      -1.588  14.788  24.554  0.00  0.00    +0.000 A 
ATOM     17  C   UNL     1      -2.184  14.166  23.343  0.00  0.00    +0.000 A 
ATOM     18  N   UNL     1      -3.003  13.172  23.490  0.00  0.00    +0.000 NA
ATOM     19  C   UNL     1      -3.511  12.613  22.349  0.00  0.00    +0.000 A 
ATOM     20  C   UNL     1      -3.231  13.014  21.099  0.00  0.00    +0.000 A 
ATOM     21  C   UNL     1      -2.382  14.210  20.935  0.00  0.00    +0.000 A 
ATOM     22  O   UNL     1      -2.207  14.709  19.828  0.00  0.00    +0.000 OA
ATOM     23  N   UNL     1      -1.811  14.695  22.111  0.00  0.00    +0.000 N 
ATOM     24  C   UNL     1      -0.884  15.721  22.024  0.00  0.00    +0.000 A 
ENDBRANCH   1  20
BRANCH   9  25
ATOM     25  C   UNL     1       1.707   8.637  19.223  0.00  0.00    +0.000 A 
ATOM     26  C   UNL     1       2.437   8.289  18.066  0.00  0.00    +0.000 A 
ATOM     27  C   UNL     1       2.969   7.011  17.906  0.00  0.00    +0.000 A 
ATOM     28  C   UNL     1       2.881   6.094  18.945  0.00  0.00    +0.000 A 
ATOM     29  C   UNL     1       2.304   6.470  20.157  0.00  0.00    +0.000 A 
ATOM     30  C   UNL     1       1.721   7.735  20.298  0.00  0.00    +0.000 A 
ENDBRANCH   9  25
TORSDOF 2
ENDMDL
MODEL 7
REMARK VINA RESULT:      -7.1      4.121      7.203
REMARK  Name = 
REMARK  3 active torsions:
REMARK  status: ('A' for Active; 'I' for Inactive)
REMARK    1  A    between atoms: C_1  and  C_2
REMARK    2  A    between atoms: C_8  and  C_9
REMARK    3  A    between atoms: C_17  and  C_18
REMARK                            x       y       z     vdW  Elec       q    Type
REMARK                         _______ _______ _______ _____ _____    ______ ____
ROOT
ATOM      1  C   UNL     1       1.111  11.980  19.809  0.00  0.00    +0.000 C 
ATOM      2  O   UNL     1       1.577  11.251  18.926  0.00  0.00    +0.000 OA
ATOM      3  N   UNL     1       0.489  11.455  20.951  0.00  0.00    +0.000 N 
ATOM      4  C   UNL     1       0.925  10.085  21.268  0.00  0.00    +0.000 C 
ATOM      5  C   UNL     1      -0.066   9.185  21.970  0.00  0.00    +0.000 C 
ATOM      6  C   UNL     1      -0.762   9.872  23.106  0.00  0.00    +0.000 C 
ATOM      7  C   UNL     1      -1.113  11.293  22.793  0.00  0.00    +0.000 A 
ATOM      8  C   UNL     1      -2.200  11.791  23.521  0.00  0.00    +0.000 A 
ATOM      9  C   UNL     1      -2.756  13.052  23.315  0.00  0.00    +0.000 A 
ATOM     10  C   UNL     1      -2.070  13.888  22.436  0.00  0.00    +0.000 A 
ATOM     11  C   UNL     1      -0.972  13.395  21.691  0.00  0.00    +0.000 A 
ATOM     12  C   UNL     1      -0.489  12.077  21.816  0.00  0.00    +0.000 A 
ENDROOT
BRANCH   1  20
ATOM     13  C   UNL     1      -0.535  18.630  16.908  0.00  0.00    +0.000 C 
ATOM     14  C   UNL     1       0.266  17.761  17.821  0.00  0.00    +0.000 A 
ATOM     15  C   UNL     1       1.358  18.321  18.585  0.00  0.00    +0.000 A 
ATOM     16  C   UNL     1       2.105  17.553  19.379  0.00  0.00    +0.000 A 
ATOM     17  C   UNL     1       1.820  16.099  19.487  0.00  0.00    +0.000 A 
ATOM     18  N   UNL     1       2.586  15.365  20.232  0.00  0.00    +0.000 NA
ATOM     19  C   UNL     1       2.302  14.027  20.285  0.00  0.00    +0.000 A 
ATOM     20  C   UNL     1       1.298  13.422  19.633  0.00  0.00    +0.000 A 
ATOM     21  C   UNL     1       0.364  14.272  18.869  0.00  0.00    +0.000 A 
ATOM     22  O   UNL     1      -0.652  13.798  18.370  0.00  0.00    +0.000 OA
ATOM     23  N   UNL     1       0.736  15.612  18.763  0.00  0.00    +0.000 N 
ATOM     24  C   UNL     1      -0.005  16.442  17.939  0.00  0.00    +0.000 A 
ENDBRANCH   1  20
BRANCH   9  25
ATOM     25  C   UNL     1      -4.114  13.286  23.847  0.00  0.00    +0.000 A 
ATOM     26  C   UNL     1      -4.785  12.244  24.523  0.00  0.00    +0.000 A 
ATOM     27  C   UNL     1      -6.177  12.191  24.565  0.00  0.00    +0.000 A 
ATOM     28  C   UNL     1      -6.922  13.234  24.031  0.00  0.00    +0.000 A 
ATOM     29  C   UNL     1      -6.276  14.348  23.500  0.00  0.00    +0.000 A 
ATOM     30  C   UNL     1      -4.879  14.378  23.409  0.00  0.00    +0.000 A 
ENDBRANCH   9  25
TORSDOF 2
ENDMDL
MODEL 8
REMARK VINA RESULT:      -7.1      1.779      2.674
REMARK  Name = 
REMARK  3 active torsions:
REMARK  status: ('A' for Active; 'I' for Inactive)
REMARK    1  A    between atoms: C_1  and  C_2
REMARK    2  A    between atoms: C_8  and  C_9
REMARK    3  A    between atoms: C_17  and  C_18
REMARK                            x       y       z     vdW  Elec       q    Type
REMARK                         _______ _______ _______ _____ _____    ______ ____
ROOT
ATOM      1  C   UNL     1      -6.227  12.927  22.237  0.00  0.00    +0.000 C 
ATOM      2  O   UNL     1      -7.166  12.475  22.903  0.00  0.00    +0.000 OA
ATOM      3  N   UNL     1      -5.927  12.443  20.956  0.00  0.00    +0.000 N 
ATOM      4  C   UNL     1      -7.083  11.820  20.289  0.00  0.00    +0.000 C 
ATOM      5  C   UNL     1      -6.802  10.715  19.297  0.00  0.00    +0.000 C 
ATOM      6  C   UNL     1      -5.679  11.053  18.362  0.00  0.00    +0.000 C 
ATOM      7  C   UNL     1      -4.556  11.768  19.045  0.00  0.00    +0.000 A 
ATOM      8  C   UNL     1      -3.312  11.612  18.422  0.00  0.00    +0.000 A 
ATOM      9  C   UNL     1      -2.118  12.107  18.945  0.00  0.00    +0.000 A 
ATOM     10  C   UNL     1      -2.232  12.923  20.067  0.00  0.00    +0.000 A 
ATOM     11  C   UNL     1      -3.483  13.085  20.709  0.00  0.00    +0.000 A 
ATOM     12  C   UNL     1      -4.669  12.482  20.244  0.00  0.00    +0.000 A 
ENDROOT
BRANCH   1  20
ATOM     13  C   UNL     1      -1.054  15.886  26.691  0.00  0.00    +0.000 C 
ATOM     14  C   UNL     1      -2.129  16.019  25.663  0.00  0.00    +0.000 A 
ATOM     15  C   UNL     1      -2.543  17.327  25.210  0.00  0.00    +0.000 A 
ATOM     16  C   UNL     1      -3.525  17.466  24.318  0.00  0.00    +0.000 A 
ATOM     17  C   UNL     1      -4.211  16.264  23.777  0.00  0.00    +0.000 A 
ATOM     18  N   UNL     1      -5.190  16.425  22.943  0.00  0.00    +0.000 NA
ATOM     19  C   UNL     1      -5.808  15.293  22.486  0.00  0.00    +0.000 A 
ATOM     20  C   UNL     1      -5.480  14.039  22.830  0.00  0.00    +0.000 A 
ATOM     21  C   UNL     1      -4.299  13.851  23.696  0.00  0.00    +0.000 A 
ATOM     22  O   UNL     1      -3.864  12.727  23.928  0.00  0.00    +0.000 OA
ATOM     23  N   UNL     1      -3.752  15.025  24.213  0.00  0.00    +0.000 N 
ATOM     24  C   UNL     1      -2.739  14.926  25.152  0.00  0.00    +0.000 A 
ENDBRANCH   1  20
BRANCH   9  25
ATOM     25  C   UNL     1      -0.862  11.536  18.416  0.00  0.00    +0.000 A 
ATOM     26  C   UNL     1      -0.848  10.206  17.942  0.00  0.00    +0.000 A 
ATOM     27  C   UNL     1       0.323   9.452  17.945  0.00  0.00    +0.000 A 
ATOM     28  C   UNL     1       1.523  10.046  18.315  0.00  0.00    +0.000 A 
ATOM     29  C   UNL     1       1.558  11.402  18.635  0.00  0.00    +0.000 A 
ATOM     30  C   UNL     1       0.373  12.146  18.684  0.00  0.00    +0.000 A 
ENDBRANCH   9  25
TORSDOF 2
ENDMDL
MODEL 9
REMARK VINA RESULT:      -7.0      3.459      4.354
REMARK  Name = 
REMARK  3 active torsions:
REMARK  status: ('A' for Active; 'I' for Inactive)
REMARK    1  A    between atoms: C_1  and  C_2
REMARK    2  A    between atoms: C_8  and  C_9
REMARK    3  A    between atoms: C_17  and  C_18
REMARK                            x       y       z     vdW  Elec       q    Type
REMARK                         _______ _______ _______ _____ _____    ______ ____
ROOT
ATOM      1  C   UNL     1      -1.729  12.833  20.029  0.00  0.00    +0.000 C 
ATOM      2  O   UNL     1      -2.814  13.170  20.518  0.00  0.00    +0.000 OA
ATOM      3  N   UNL     1      -1.641  11.856  19.027  0.00  0.00    +0.000 N 
ATOM      4  C   UNL     1      -2.886  11.704  18.257  0.00  0.00    +0.000 C 
ATOM      5  C   UNL     1      -3.181  10.341  17.673  0.00  0.00    +0.000 C 
ATOM      6  C   UNL     1      -1.985   9.730  17.007  0.00  0.00    +0.000 C 
ATOM      7  C   UNL     1      -0.716   9.978  17.761  0.00  0.00    +0.000 A 
ATOM      8  C   UNL     1       0.282   9.021  17.539  0.00  0.00    +0.000 A 
ATOM      9  C   UNL     1       1.501   9.003  18.215  0.00  0.00    +0.000 A 
ATOM     10  C   UNL     1       1.763  10.098  19.034  0.00  0.00    +0.000 A 
ATOM     11  C   UNL     1       0.761  11.070  19.271  0.00  0.00    +0.000 A 
ATOM     12  C   UNL     1      -0.516  11.017  18.677  0.00  0.00    +0.000 A 
ENDROOT
BRANCH   1  20
ATOM     13  C   UNL     1       4.401  16.952  19.129  0.00  0.00    +0.000 C 
ATOM     14  C   UNL     1       3.413  16.245  19.999  0.00  0.00    +0.000 A 
ATOM     15  C   UNL     1       3.612  16.192  21.429  0.00  0.00    +0.000 A 
ATOM     16  C   UNL     1       2.758  15.536  22.217  0.00  0.00    +0.000 A 
ATOM     17  C   UNL     1       1.583  14.846  21.624  0.00  0.00    +0.000 A 
ATOM     18  N   UNL     1       0.790  14.180  22.405  0.00  0.00    +0.000 NA
ATOM     19  C   UNL     1      -0.266  13.541  21.816  0.00  0.00    +0.000 A 
ATOM     20  C   UNL     1      -0.545  13.553  20.504  0.00  0.00    +0.000 A 
ATOM     21  C   UNL     1       0.295  14.396  19.631  0.00  0.00    +0.000 A 
ATOM     22  O   UNL     1       0.005  14.561  18.450  0.00  0.00    +0.000 OA
ATOM     23  N   UNL     1       1.412  14.957  20.248  0.00  0.00    +0.000 N 
ATOM     24  C   UNL     1       2.331  15.636  19.465  0.00  0.00    +0.000 A 
ENDBRANCH   1  20
BRANCH   9  25
ATOM     25  C   UNL     1       2.270   7.742  18.184  0.00  0.00    +0.000 A 
ATOM     26  C   UNL     1       2.158   6.833  19.258  0.00  0.00    +0.000 A 
ATOM     27  C   UNL     1       3.190   5.948  19.565  0.00  0.00    +0.000 A 
ATOM     28  C   UNL     1       4.304   5.877  18.738  0.00  0.00    +0.000 A 
ATOM     29  C   UNL     1       4.362   6.655  17.583  0.00  0.00    +0.000 A 
ATOM     30  C   UNL     1       3.351   7.582  17.304  0.00  0.00    +0.000 A 
ENDBRANCH   9  25
TORSDOF 2
ENDMDL
