MODEL 1
REMARK VINA RESULT:      -8.8      0.000      0.000
REMARK  Name = 
REMARK  7 active torsions:
REMARK  status: ('A' for Active; 'I' for Inactive)
REMARK    1  A    between atoms: C_2  and  C_4
REMARK    2  A    between atoms: C_4  and  N_5
REMARK    3  A    between atoms: C_4  and  C_25
REMARK    4  A    between atoms: N_8  and  C_9
REMARK    5  A    between atoms: C_9  and  C_10
REMARK    6  A    between atoms: C_13  and  O_14
REMARK    7  A    between atoms: O_14  and  C_15
REMARK                            x       y       z     vdW  Elec       q    Type
REMARK                         _______ _______ _______ _____ _____    ______ ____
ROOT
ATOM      1  N   UNL     1       2.409   7.474  18.180  0.00  0.00    +0.000 N 
ATOM      2  C   UNL     1       1.729   8.383  18.933  0.00  0.00    +0.000 C 
ATOM      3  O   UNL     1       1.723   8.377  20.151  0.00  0.00    +0.000 OA
ATOM      4  N   UNL     1       1.089   9.334  18.179  0.00  0.00    +0.000 N 
ATOM      5  H   UNL     1       2.042   7.265  17.264  0.00  0.00    +0.000 HD
ATOM      6  H   UNL     1       1.398   9.468  17.230  0.00  0.00    +0.000 HD
ENDROOT
BRANCH   1   7
ATOM      7  C   UNL     1       3.174   6.408  18.849  0.00  0.00    +0.000 C 
BRANCH   7   8
ATOM      8  C   UNL     1       2.291   5.187  19.083  0.00  0.00    +0.000 A 
ATOM      9  C   UNL     1       2.013   4.303  18.022  0.00  0.00    +0.000 A 
ATOM     10  C   UNL     1       1.306   3.116  18.240  0.00  0.00    +0.000 A 
ATOM     11  C   UNL     1       0.850   2.802  19.518  0.00  0.00    +0.000 A 
ATOM     12  C   UNL     1       1.082   3.686  20.570  0.00  0.00    +0.000 A 
ATOM     13  C   UNL     1       1.796   4.868  20.357  0.00  0.00    +0.000 A 
ENDBRANCH   7   8
BRANCH   7  15
ATOM     14  N   UNL     1       4.644   6.626  16.843  0.00  0.00    +0.000 N 
ATOM     15  C   UNL     1       4.501   6.094  18.098  0.00  0.00    +0.000 C 
ATOM     16  O   UNL     1       5.405   5.404  18.564  0.00  0.00    +0.000 OA
ATOM     17  H   UNL     1       5.566   6.557  16.432  0.00  0.00    +0.000 HD
ATOM     18  H   UNL     1       4.093   7.439  16.592  0.00  0.00    +0.000 HD
ENDBRANCH   7  15
ENDBRANCH   1   7
BRANCH   4  19
ATOM     19  C   UNL     1       0.390  10.430  18.826  0.00  0.00    +0.000 C 
BRANCH  19  20
ATOM     20  C   UNL     1      -0.975  10.675  18.231  0.00  0.00    +0.000 A 
ATOM     21  C   UNL     1      -1.782  11.740  18.659  0.00  0.00    +0.000 A 
ATOM     22  C   UNL     1      -3.062  11.925  18.121  0.00  0.00    +0.000 A 
ATOM     23  C   UNL     1      -3.555  11.052  17.148  0.00  0.00    +0.000 A 
ATOM     24  C   UNL     1      -2.718  10.044  16.664  0.00  0.00    +0.000 A 
ATOM     25  F   UNL     1      -3.102   9.239  15.662  0.00  0.00    +0.000 F 
ATOM     26  C   UNL     1      -1.461   9.829  17.224  0.00  0.00    +0.000 A 
BRANCH  23  27
ATOM     27  O   UNL     1      -4.842  11.297  16.719  0.00  0.00    +0.000 OA
BRANCH  27  28
ATOM     28  C   UNL     1      -5.808  11.650  17.635  0.00  0.00    +0.000 A 
ATOM     29  C   UNL     1      -6.135  10.674  18.585  0.00  0.00    +0.000 A 
ATOM     30  C   UNL     1      -7.053  10.962  19.600  0.00  0.00    +0.000 A 
ATOM     31  C   UNL     1      -7.648  12.223  19.671  0.00  0.00    +0.000 A 
ATOM     32  C   UNL     1      -7.373  13.175  18.692  0.00  0.00    +0.000 A 
ATOM     33  C   UNL     1      -6.491  12.869  17.660  0.00  0.00    +0.000 A 
ATOM     34  F   UNL     1      -6.303  13.792  16.704  0.00  0.00    +0.000 F 
ENDBRANCH  27  28
ENDBRANCH  23  27
ENDBRANCH  19  20
ENDBRANCH   4  19
TORSDOF 7
ENDMDL
MODEL 2
REMARK VINA RESULT:      -8.6      7.806     10.776
REMARK  Name = 
REMARK  7 active torsions:
REMARK  status: ('A' for Active; 'I' for Inactive)
REMARK    1  A    between atoms: C_2  and  C_4
REMARK    2  A    between atoms: C_4  and  N_5
REMARK    3  A    between atoms: C_4  and  C_25
REMARK    4  A    between atoms: N_8  and  C_9
REMARK    5  A    between atoms: C_9  and  C_10
REMARK    6  A    between atoms: C_13  and  O_14
REMARK    7  A    between atoms: O_14  and  C_15
REMARK                            x       y       z     vdW  Elec       q    Type
REMARK                         _______ _______ _______ _____ _____    ______ ____
ROOT
ATOM      1  N   UNL     1       9.456  10.346  19.357  0.00  0.00    +0.000 N 
ATOM      2  C   UNL     1       8.651   9.929  18.340  0.00  0.00    +0.000 C 
ATOM      3  O   UNL     1       8.216  10.672  17.479  0.00  0.00    +0.000 OA
ATOM      4  N   UNL     1       8.418   8.577  18.359  0.00  0.00    +0.000 N 
ATOM      5  H   UNL     1       9.415   9.828  20.221  0.00  0.00    +0.000 HD
ATOM      6  H   UNL     1       9.054   7.997  18.884  0.00  0.00    +0.000 HD
ENDROOT
BRANCH   1   7
ATOM      7  C   UNL     1       9.822  11.769  19.452  0.00  0.00    +0.000 C 
BRANCH   7   8
ATOM      8  C   UNL     1       9.358  12.351  20.783  0.00  0.00    +0.000 A 
ATOM      9  C   UNL     1       8.787  11.512  21.759  0.00  0.00    +0.000 A 
ATOM     10  C   UNL     1       8.463  12.001  23.029  0.00  0.00    +0.000 A 
ATOM     11  C   UNL     1       8.688  13.340  23.338  0.00  0.00    +0.000 A 
ATOM     12  C   UNL     1       9.215  14.193  22.369  0.00  0.00    +0.000 A 
ATOM     13  C   UNL     1       9.547  13.704  21.102  0.00  0.00    +0.000 A 
ENDBRANCH   7   8
BRANCH   7  15
ATOM     14  N   UNL     1      12.197  11.870  20.215  0.00  0.00    +0.000 N 
ATOM     15  C   UNL     1      11.334  11.995  19.158  0.00  0.00    +0.000 C 
ATOM     16  O   UNL     1      11.782  12.278  18.048  0.00  0.00    +0.000 OA
ATOM     17  H   UNL     1      13.183  11.854  19.986  0.00  0.00    +0.000 HD
ATOM     18  H   UNL     1      11.907  11.326  21.019  0.00  0.00    +0.000 HD
ENDBRANCH   7  15
ENDBRANCH   1   7
BRANCH   4  19
ATOM     19  C   UNL     1       7.653   7.952  17.296  0.00  0.00    +0.000 C 
BRANCH  19  20
ATOM     20  C   UNL     1       6.866   6.757  17.775  0.00  0.00    +0.000 A 
ATOM     21  C   UNL     1       7.253   6.033  18.913  0.00  0.00    +0.000 A 
ATOM     22  C   UNL     1       6.531   4.904  19.318  0.00  0.00    +0.000 A 
ATOM     23  C   UNL     1       5.412   4.480  18.594  0.00  0.00    +0.000 A 
ATOM     24  C   UNL     1       4.981   5.252  17.512  0.00  0.00    +0.000 A 
ATOM     25  F   UNL     1       3.859   4.949  16.843  0.00  0.00    +0.000 F 
ATOM     26  C   UNL     1       5.718   6.352  17.081  0.00  0.00    +0.000 A 
BRANCH  23  27
ATOM     27  O   UNL     1       4.801   3.332  19.052  0.00  0.00    +0.000 OA
BRANCH  27  28
ATOM     28  C   UNL     1       3.453   3.343  19.328  0.00  0.00    +0.000 A 
ATOM     29  C   UNL     1       3.056   4.141  20.409  0.00  0.00    +0.000 A 
ATOM     30  C   UNL     1       1.700   4.274  20.724  0.00  0.00    +0.000 A 
ATOM     31  C   UNL     1       0.735   3.612  19.963  0.00  0.00    +0.000 A 
ATOM     32  C   UNL     1       1.129   2.768  18.927  0.00  0.00    +0.000 A 
ATOM     33  C   UNL     1       2.482   2.607  18.644  0.00  0.00    +0.000 A 
ATOM     34  F   UNL     1       2.819   1.736  17.679  0.00  0.00    +0.000 F 
ENDBRANCH  27  28
ENDBRANCH  23  27
ENDBRANCH  19  20
ENDBRANCH   4  19
TORSDOF 7
ENDMDL
MODEL 3
REMARK VINA RESULT:      -8.5      3.187      9.061
REMARK  Name = 
REMARK  7 active torsions:
REMARK  status: ('A' for Active; 'I' for Inactive)
REMARK    1  A    between atoms: C_2  and  C_4
REMARK    2  A    between atoms: C_4  and  N_5
REMARK    3  A    between atoms: C_4  and  C_25
REMARK    4  A    between atoms: N_8  and  C_9
REMARK    5  A    between atoms: C_9  and  C_10
REMARK    6  A    between atoms: C_13  and  O_14
REMARK    7  A    between atoms: O_14  and  C_15
REMARK                            x       y       z     vdW  Elec       q    Type
REMARK                         _______ _______ _______ _____ _____    ______ ____
ROOT
ATOM      1  N   UNL     1      -2.119  10.959  16.619  0.00  0.00    +0.000 N 
ATOM      2  C   UNL     1      -1.541  10.729  17.831  0.00  0.00    +0.000 C 
ATOM      3  O   UNL     1      -1.965   9.919  18.636  0.00  0.00    +0.000 OA
ATOM      4  N   UNL     1      -0.404  11.470  18.033  0.00  0.00    +0.000 N 
ATOM      5  H   UNL     1      -2.009  11.879  16.221  0.00  0.00    +0.000 HD
ATOM      6  H   UNL     1       0.056  11.856  17.224  0.00  0.00    +0.000 HD
ENDROOT
BRANCH   1   7
ATOM      7  C   UNL     1      -3.331  10.213  16.243  0.00  0.00    +0.000 C 
BRANCH   7   8
ATOM      8  C   UNL     1      -4.564  10.844  16.881  0.00  0.00    +0.000 A 
ATOM      9  C   UNL     1      -5.256  10.167  17.903  0.00  0.00    +0.000 A 
ATOM     10  C   UNL     1      -6.315  10.776  18.583  0.00  0.00    +0.000 A 
ATOM     11  C   UNL     1      -6.713  12.066  18.240  0.00  0.00    +0.000 A 
ATOM     12  C   UNL     1      -6.065  12.734  17.203  0.00  0.00    +0.000 A 
ATOM     13  C   UNL     1      -5.000  12.131  16.528  0.00  0.00    +0.000 A 
ENDBRANCH   7   8
BRANCH   7  15
ATOM     14  N   UNL     1      -4.697   9.834  14.188  0.00  0.00    +0.000 N 
ATOM     15  C   UNL     1      -3.441  10.032  14.701  0.00  0.00    +0.000 C 
ATOM     16  O   UNL     1      -2.477  10.051  13.938  0.00  0.00    +0.000 OA
ATOM     17  H   UNL     1      -4.779   9.883  13.180  0.00  0.00    +0.000 HD
ATOM     18  H   UNL     1      -5.497  10.144  14.725  0.00  0.00    +0.000 HD
ENDBRANCH   7  15
ENDBRANCH   1   7
BRANCH   4  19
ATOM     19  C   UNL     1       0.386  11.283  19.237  0.00  0.00    +0.000 C 
BRANCH  19  20
ATOM     20  C   UNL     1       1.065   9.936  19.278  0.00  0.00    +0.000 A 
ATOM     21  C   UNL     1       0.969   9.100  20.401  0.00  0.00    +0.000 A 
ATOM     22  C   UNL     1       1.639   7.871  20.433  0.00  0.00    +0.000 A 
ATOM     23  C   UNL     1       2.415   7.457  19.346  0.00  0.00    +0.000 A 
ATOM     24  C   UNL     1       2.440   8.253  18.198  0.00  0.00    +0.000 A 
ATOM     25  F   UNL     1       3.086   7.860  17.090  0.00  0.00    +0.000 F 
ATOM     26  C   UNL     1       1.809   9.494  18.176  0.00  0.00    +0.000 A 
BRANCH  23  27
ATOM     27  O   UNL     1       3.069   6.253  19.499  0.00  0.00    +0.000 OA
BRANCH  27  28
ATOM     28  C   UNL     1       2.354   5.079  19.432  0.00  0.00    +0.000 A 
ATOM     29  C   UNL     1       1.905   4.708  18.157  0.00  0.00    +0.000 A 
ATOM     30  C   UNL     1       1.232   3.497  17.974  0.00  0.00    +0.000 A 
ATOM     31  C   UNL     1       1.003   2.650  19.061  0.00  0.00    +0.000 A 
ATOM     32  C   UNL     1       1.392   3.043  20.339  0.00  0.00    +0.000 A 
ATOM     33  C   UNL     1       2.025   4.270  20.522  0.00  0.00    +0.000 A 
ATOM     34  F   UNL     1       2.325   4.637  21.778  0.00  0.00    +0.000 F 
ENDBRANCH  27  28
ENDBRANCH  23  27
ENDBRANCH  19  20
ENDBRANCH   4  19
TORSDOF 7
ENDMDL
MODEL 4
REMARK VINA RESULT:      -8.4      7.933     11.325
REMARK  Name = 
REMARK  7 active torsions:
REMARK  status: ('A' for Active; 'I' for Inactive)
REMARK    1  A    between atoms: C_2  and  C_4
REMARK    2  A    between atoms: C_4  and  N_5
REMARK    3  A    between atoms: C_4  and  C_25
REMARK    4  A    between atoms: N_8  and  C_9
REMARK    5  A    between atoms: C_9  and  C_10
REMARK    6  A    between atoms: C_13  and  O_14
REMARK    7  A    between atoms: O_14  and  C_15
REMARK                            x       y       z     vdW  Elec       q    Type
REMARK                         _______ _______ _______ _____ _____    ______ ____
ROOT
ATOM      1  N   UNL     1       7.185   6.879  16.782  0.00  0.00    +0.000 N 
ATOM      2  C   UNL     1       7.810   7.400  17.876  0.00  0.00    +0.000 C 
ATOM      3  O   UNL     1       8.096   6.745  18.862  0.00  0.00    +0.000 OA
ATOM      4  N   UNL     1       8.125   8.728  17.733  0.00  0.00    +0.000 N 
ATOM      5  H   UNL     1       6.612   7.504  16.236  0.00  0.00    +0.000 HD
ATOM      6  H   UNL     1       8.157   9.106  16.800  0.00  0.00    +0.000 HD
ENDROOT
BRANCH   1   7
ATOM      7  C   UNL     1       6.812   5.455  16.772  0.00  0.00    +0.000 C 
BRANCH   7   8
ATOM      8  C   UNL     1       5.475   5.250  17.477  0.00  0.00    +0.000 A 
ATOM      9  C   UNL     1       5.378   4.357  18.560  0.00  0.00    +0.000 A 
ATOM     10  C   UNL     1       4.193   4.242  19.296  0.00  0.00    +0.000 A 
ATOM     11  C   UNL     1       3.081   5.004  18.948  0.00  0.00    +0.000 A 
ATOM     12  C   UNL     1       3.149   5.863  17.852  0.00  0.00    +0.000 A 
ATOM     13  C   UNL     1       4.334   5.987  17.122  0.00  0.00    +0.000 A 
ENDBRANCH   7   8
BRANCH   7  15
ATOM     14  N   UNL     1       7.659   5.504  14.424  0.00  0.00    +0.000 N 
ATOM     15  C   UNL     1       6.868   4.856  15.337  0.00  0.00    +0.000 C 
ATOM     16  O   UNL     1       6.247   3.853  14.987  0.00  0.00    +0.000 OA
ATOM     17  H   UNL     1       7.820   5.020  13.550  0.00  0.00    +0.000 HD
ATOM     18  H   UNL     1       8.410   6.095  14.763  0.00  0.00    +0.000 HD
ENDBRANCH   7  15
ENDBRANCH   1   7
BRANCH   4  19
ATOM     19  C   UNL     1       8.872   9.416  18.770  0.00  0.00    +0.000 C 
BRANCH  19  20
ATOM     20  C   UNL     1       9.302  10.800  18.349  0.00  0.00    +0.000 A 
ATOM     21  C   UNL     1      10.656  11.161  18.289  0.00  0.00    +0.000 A 
ATOM     22  C   UNL     1      11.032  12.462  17.933  0.00  0.00    +0.000 A 
ATOM     23  C   UNL     1      10.062  13.423  17.633  0.00  0.00    +0.000 A 
ATOM     24  C   UNL     1       8.719  13.037  17.612  0.00  0.00    +0.000 A 
ATOM     25  F   UNL     1       7.755  13.890  17.235  0.00  0.00    +0.000 F 
ATOM     26  C   UNL     1       8.338  11.757  18.004  0.00  0.00    +0.000 A 
BRANCH  23  27
ATOM     27  O   UNL     1      10.537  14.683  17.340  0.00  0.00    +0.000 OA
BRANCH  27  28
ATOM     28  C   UNL     1      10.312  15.716  18.221  0.00  0.00    +0.000 A 
ATOM     29  C   UNL     1       9.398  16.691  17.801  0.00  0.00    +0.000 A 
ATOM     30  C   UNL     1       9.050  17.742  18.654  0.00  0.00    +0.000 A 
ATOM     31  C   UNL     1       9.611  17.826  19.930  0.00  0.00    +0.000 A 
ATOM     32  C   UNL     1      10.567  16.894  20.329  0.00  0.00    +0.000 A 
ATOM     33  C   UNL     1      10.941  15.874  19.459  0.00  0.00    +0.000 A 
ATOM     34  F   UNL     1      11.911  15.036  19.859  0.00  0.00    +0.000 F 
ENDBRANCH  27  28
ENDBRANCH  23  27
ENDBRANCH  19  20
ENDBRANCH   4  19
TORSDOF 7
ENDMDL
MODEL 5
REMARK VINA RESULT:      -8.3      8.224     11.508
REMARK  Name = 
REMARK  7 active torsions:
REMARK  status: ('A' for Active; 'I' for Inactive)
REMARK    1  A    between atoms: C_2  and  C_4
REMARK    2  A    between atoms: C_4  and  N_5
REMARK    3  A    between atoms: C_4  and  C_25
REMARK    4  A    between atoms: N_8  and  C_9
REMARK    5  A    between atoms: C_9  and  C_10
REMARK    6  A    between atoms: C_13  and  O_14
REMARK    7  A    between atoms: O_14  and  C_15
REMARK                            x       y       z     vdW  Elec       q    Type
REMARK                         _______ _______ _______ _____ _____    ______ ____
ROOT
ATOM      1  N   UNL     1       7.240   7.096  16.728  0.00  0.00    +0.000 N 
ATOM      2  C   UNL     1       7.805   7.460  17.914  0.00  0.00    +0.000 C 
ATOM      3  O   UNL     1       7.987   6.689  18.838  0.00  0.00    +0.000 OA
ATOM      4  N   UNL     1       8.190   8.777  17.942  0.00  0.00    +0.000 N 
ATOM      5  H   UNL     1       6.738   7.805  16.218  0.00  0.00    +0.000 HD
ATOM      6  H   UNL     1       8.308   9.252  17.062  0.00  0.00    +0.000 HD
ENDROOT
BRANCH   1   7
ATOM      7  C   UNL     1       6.804   5.703  16.534  0.00  0.00    +0.000 C 
BRANCH   7   8
ATOM      8  C   UNL     1       5.441   5.477  17.180  0.00  0.00    +0.000 A 
ATOM      9  C   UNL     1       4.510   6.531  17.252  0.00  0.00    +0.000 A 
ATOM     10  C   UNL     1       3.214   6.316  17.731  0.00  0.00    +0.000 A 
ATOM     11  C   UNL     1       2.833   5.049  18.164  0.00  0.00    +0.000 A 
ATOM     12  C   UNL     1       3.755   4.004  18.137  0.00  0.00    +0.000 A 
ATOM     13  C   UNL     1       5.048   4.214  17.650  0.00  0.00    +0.000 A 
ENDBRANCH   7   8
BRANCH   7  15
ATOM     14  N   UNL     1       5.790   4.606  14.534  0.00  0.00    +0.000 N 
ATOM     15  C   UNL     1       6.871   5.282  15.037  0.00  0.00    +0.000 C 
ATOM     16  O   UNL     1       7.828   5.517  14.301  0.00  0.00    +0.000 OA
ATOM     17  H   UNL     1       5.770   4.483  13.529  0.00  0.00    +0.000 HD
ATOM     18  H   UNL     1       4.896   4.702  15.000  0.00  0.00    +0.000 HD
ENDBRANCH   7  15
ENDBRANCH   1   7
BRANCH   4  19
ATOM     19  C   UNL     1       8.889   9.309  19.098  0.00  0.00    +0.000 C 
BRANCH  19  20
ATOM     20  C   UNL     1       9.490  10.668  18.835  0.00  0.00    +0.000 A 
ATOM     21  C   UNL     1       8.943  11.539  17.880  0.00  0.00    +0.000 A 
ATOM     22  C   UNL     1       9.540  12.780  17.624  0.00  0.00    +0.000 A 
ATOM     23  C   UNL     1      10.690  13.170  18.317  0.00  0.00    +0.000 A 
ATOM     24  C   UNL     1      11.182  12.337  19.324  0.00  0.00    +0.000 A 
ATOM     25  F   UNL     1      12.222  12.705  20.087  0.00  0.00    +0.000 F 
ATOM     26  C   UNL     1      10.617  11.085  19.555  0.00  0.00    +0.000 A 
BRANCH  23  27
ATOM     27  O   UNL     1      11.222  14.390  17.956  0.00  0.00    +0.000 OA
BRANCH  27  28
ATOM     28  C   UNL     1      10.567  15.548  18.309  0.00  0.00    +0.000 A 
ATOM     29  C   UNL     1      10.234  15.674  19.664  0.00  0.00    +0.000 A 
ATOM     30  C   UNL     1       9.631  16.844  20.134  0.00  0.00    +0.000 A 
ATOM     31  C   UNL     1       9.357  17.894  19.254  0.00  0.00    +0.000 A 
ATOM     32  C   UNL     1       9.629  17.749  17.896  0.00  0.00    +0.000 A 
ATOM     33  C   UNL     1      10.190  16.564  17.427  0.00  0.00    +0.000 A 
ATOM     34  F   UNL     1      10.377  16.443  16.103  0.00  0.00    +0.000 F 
ENDBRANCH  27  28
ENDBRANCH  23  27
ENDBRANCH  19  20
ENDBRANCH   4  19
TORSDOF 7
ENDMDL
MODEL 6
REMARK VINA RESULT:      -8.3      8.130     11.389
REMARK  Name = 
REMARK  7 active torsions:
REMARK  status: ('A' for Active; 'I' for Inactive)
REMARK    1  A    between atoms: C_2  and  C_4
REMARK    2  A    between atoms: C_4  and  N_5
REMARK    3  A    between atoms: C_4  and  C_25
REMARK    4  A    between atoms: N_8  and  C_9
REMARK    5  A    between atoms: C_9  and  C_10
REMARK    6  A    between atoms: C_13  and  O_14
REMARK    7  A    between atoms: O_14  and  C_15
REMARK                            x       y       z     vdW  Elec       q    Type
REMARK                         _______ _______ _______ _____ _____    ______ ____
ROOT
ATOM      1  N   UNL     1       6.809   7.248  17.061  0.00  0.00    +0.000 N 
ATOM      2  C   UNL     1       7.708   7.605  18.021  0.00  0.00    +0.000 C 
ATOM      3  O   UNL     1       8.205   6.817  18.804  0.00  0.00    +0.000 OA
ATOM      4  N   UNL     1       8.030   8.939  17.985  0.00  0.00    +0.000 N 
ATOM      5  H   UNL     1       6.142   7.946  16.769  0.00  0.00    +0.000 HD
ATOM      6  H   UNL     1       7.842   9.446  17.135  0.00  0.00    +0.000 HD
ENDROOT
BRANCH   1   7
ATOM      7  C   UNL     1       6.388   5.841  16.953  0.00  0.00    +0.000 C 
BRANCH   7   8
ATOM      8  C   UNL     1       4.902   5.704  17.271  0.00  0.00    +0.000 A 
ATOM      9  C   UNL     1       4.298   4.432  17.284  0.00  0.00    +0.000 A 
ATOM     10  C   UNL     1       2.969   4.270  17.687  0.00  0.00    +0.000 A 
ATOM     11  C   UNL     1       2.216   5.379  18.066  0.00  0.00    +0.000 A 
ATOM     12  C   UNL     1       2.788   6.649  18.019  0.00  0.00    +0.000 A 
ATOM     13  C   UNL     1       4.119   6.812  17.626  0.00  0.00    +0.000 A 
ENDBRANCH   7   8
BRANCH   7  15
ATOM     14  N   UNL     1       6.047   5.563  14.496  0.00  0.00    +0.000 N 
ATOM     15  C   UNL     1       6.802   5.220  15.588  0.00  0.00    +0.000 C 
ATOM     16  O   UNL     1       7.749   4.450  15.444  0.00  0.00    +0.000 OA
ATOM     17  H   UNL     1       6.418   5.291  13.594  0.00  0.00    +0.000 HD
ATOM     18  H   UNL     1       5.507   6.420  14.527  0.00  0.00    +0.000 HD
ENDBRANCH   7  15
ENDBRANCH   1   7
BRANCH   4  19
ATOM     19  C   UNL     1       9.040   9.471  18.882  0.00  0.00    +0.000 C 
BRANCH  19  20
ATOM     20  C   UNL     1       9.413  10.895  18.552  0.00  0.00    +0.000 A 
ATOM     21  C   UNL     1       8.550  11.730  17.827  0.00  0.00    +0.000 A 
ATOM     22  C   UNL     1       8.932  13.036  17.497  0.00  0.00    +0.000 A 
ATOM     23  C   UNL     1      10.182  13.529  17.886  0.00  0.00    +0.000 A 
ATOM     24  C   UNL     1      11.003  12.723  18.679  0.00  0.00    +0.000 A 
ATOM     25  F   UNL     1      12.168  13.179  19.163  0.00  0.00    +0.000 F 
ATOM     26  C   UNL     1      10.645  11.411  18.974  0.00  0.00    +0.000 A 
BRANCH  23  27
ATOM     27  O   UNL     1      10.477  14.810  17.472  0.00  0.00    +0.000 OA
BRANCH  27  28
ATOM     28  C   UNL     1      10.103  15.880  18.253  0.00  0.00    +0.000 A 
ATOM     29  C   UNL     1       8.850  16.437  17.968  0.00  0.00    +0.000 A 
ATOM     30  C   UNL     1       8.351  17.482  18.752  0.00  0.00    +0.000 A 
ATOM     31  C   UNL     1       9.100  17.975  19.822  0.00  0.00    +0.000 A 
ATOM     32  C   UNL     1      10.372  17.466  20.070  0.00  0.00    +0.000 A 
ATOM     33  C   UNL     1      10.882  16.455  19.260  0.00  0.00    +0.000 A 
ATOM     34  F   UNL     1      12.136  16.039  19.495  0.00  0.00    +0.000 F 
ENDBRANCH  27  28
ENDBRANCH  23  27
ENDBRANCH  19  20
ENDBRANCH   4  19
TORSDOF 7
ENDMDL
MODEL 7
REMARK VINA RESULT:      -8.3      1.339      1.587
REMARK  Name = 
REMARK  7 active torsions:
REMARK  status: ('A' for Active; 'I' for Inactive)
REMARK    1  A    between atoms: C_2  and  C_4
REMARK    2  A    between atoms: C_4  and  N_5
REMARK    3  A    between atoms: C_4  and  C_25
REMARK    4  A    between atoms: N_8  and  C_9
REMARK    5  A    between atoms: C_9  and  C_10
REMARK    6  A    between atoms: C_13  and  O_14
REMARK    7  A    between atoms: O_14  and  C_15
REMARK                            x       y       z     vdW  Elec       q    Type
REMARK                         _______ _______ _______ _____ _____    ______ ____
ROOT
ATOM      1  N   UNL     1       2.343   7.495  18.447  0.00  0.00    +0.000 N 
ATOM      2  C   UNL     1       1.771   8.362  19.328  0.00  0.00    +0.000 C 
ATOM      3  O   UNL     1       1.889   8.270  20.536  0.00  0.00    +0.000 OA
ATOM      4  N   UNL     1       1.085   9.379  18.712  0.00  0.00    +0.000 N 
ATOM      5  H   UNL     1       1.878   7.360  17.562  0.00  0.00    +0.000 HD
ATOM      6  H   UNL     1       1.299   9.574  17.747  0.00  0.00    +0.000 HD
ENDROOT
BRANCH   1   7
ATOM      7  C   UNL     1       3.140   6.367  18.957  0.00  0.00    +0.000 C 
BRANCH   7   8
ATOM      8  C   UNL     1       2.255   5.144  19.175  0.00  0.00    +0.000 A 
ATOM      9  C   UNL     1       1.892   4.332  18.084  0.00  0.00    +0.000 A 
ATOM     10  C   UNL     1       1.181   3.143  18.276  0.00  0.00    +0.000 A 
ATOM     11  C   UNL     1       0.805   2.756  19.560  0.00  0.00    +0.000 A 
ATOM     12  C   UNL     1       1.121   3.570  20.646  0.00  0.00    +0.000 A 
ATOM     13  C   UNL     1       1.840   4.754  20.458  0.00  0.00    +0.000 A 
ENDBRANCH   7   8
BRANCH   7  15
ATOM     14  N   UNL     1       5.406   5.372  18.632  0.00  0.00    +0.000 N 
ATOM     15  C   UNL     1       4.387   6.093  18.067  0.00  0.00    +0.000 C 
ATOM     16  O   UNL     1       4.502   6.487  16.908  0.00  0.00    +0.000 OA
ATOM     17  H   UNL     1       6.134   5.059  18.001  0.00  0.00    +0.000 HD
ATOM     18  H   UNL     1       5.200   4.773  19.422  0.00  0.00    +0.000 HD
ENDBRANCH   7  15
ENDBRANCH   1   7
BRANCH   4  19
ATOM     19  C   UNL     1       0.488  10.441  19.501  0.00  0.00    +0.000 C 
BRANCH  19  20
ATOM     20  C   UNL     1      -0.905  10.790  19.039  0.00  0.00    +0.000 A 
ATOM     21  C   UNL     1      -1.607  11.877  19.582  0.00  0.00    +0.000 A 
ATOM     22  C   UNL     1      -2.914  12.160  19.167  0.00  0.00    +0.000 A 
ATOM     23  C   UNL     1      -3.540  11.363  18.205  0.00  0.00    +0.000 A 
ATOM     24  C   UNL     1      -2.809  10.334  17.606  0.00  0.00    +0.000 A 
ATOM     25  F   UNL     1      -3.325   9.601  16.608  0.00  0.00    +0.000 F 
ATOM     26  C   UNL     1      -1.525  10.023  18.044  0.00  0.00    +0.000 A 
BRANCH  23  27
ATOM     27  O   UNL     1      -4.842  11.701  17.901  0.00  0.00    +0.000 OA
BRANCH  27  28
ATOM     28  C   UNL     1      -5.785  11.740  18.903  0.00  0.00    +0.000 A 
ATOM     29  C   UNL     1      -6.025  13.000  19.468  0.00  0.00    +0.000 A 
ATOM     30  C   UNL     1      -7.015  13.155  20.443  0.00  0.00    +0.000 A 
ATOM     31  C   UNL     1      -7.769  12.056  20.859  0.00  0.00    +0.000 A 
ATOM     32  C   UNL     1      -7.491  10.791  20.346  0.00  0.00    +0.000 A 
ATOM     33  C   UNL     1      -6.476  10.635  19.406  0.00  0.00    +0.000 A 
ATOM     34  F   UNL     1      -6.200   9.390  18.986  0.00  0.00    +0.000 F 
ENDBRANCH  27  28
ENDBRANCH  23  27
ENDBRANCH  19  20
ENDBRANCH   4  19
TORSDOF 7
ENDMDL
MODEL 8
REMARK VINA RESULT:      -8.2      3.555      5.609
REMARK  Name = 
REMARK  7 active torsions:
REMARK  status: ('A' for Active; 'I' for Inactive)
REMARK    1  A    between atoms: C_2  and  C_4
REMARK    2  A    between atoms: C_4  and  N_5
REMARK    3  A    between atoms: C_4  and  C_25
REMARK    4  A    between atoms: N_8  and  C_9
REMARK    5  A    between atoms: C_9  and  C_10
REMARK    6  A    between atoms: C_13  and  O_14
REMARK    7  A    between atoms: O_14  and  C_15
REMARK                            x       y       z     vdW  Elec       q    Type
REMARK                         _______ _______ _______ _____ _____    ______ ____
ROOT
ATOM      1  N   UNL     1       4.907   5.379  16.336  0.00  0.00    +0.000 N 
ATOM      2  C   UNL     1       4.441   5.477  17.612  0.00  0.00    +0.000 C 
ATOM      3  O   UNL     1       4.992   4.967  18.571  0.00  0.00    +0.000 OA
ATOM      4  N   UNL     1       3.310   6.248  17.713  0.00  0.00    +0.000 N 
ATOM      5  H   UNL     1       4.229   5.425  15.591  0.00  0.00    +0.000 HD
ATOM      6  H   UNL     1       3.107   6.886  16.960  0.00  0.00    +0.000 HD
ENDROOT
BRANCH   1   7
ATOM      7  C   UNL     1       6.134   4.609  16.072  0.00  0.00    +0.000 C 
BRANCH   7   8
ATOM      8  C   UNL     1       6.370   4.482  14.570  0.00  0.00    +0.000 A 
ATOM      9  C   UNL     1       7.417   5.196  13.957  0.00  0.00    +0.000 A 
ATOM     10  C   UNL     1       7.727   5.005  12.607  0.00  0.00    +0.000 A 
ATOM     11  C   UNL     1       6.983   4.110  11.842  0.00  0.00    +0.000 A 
ATOM     12  C   UNL     1       5.917   3.425  12.424  0.00  0.00    +0.000 A 
ATOM     13  C   UNL     1       5.612   3.608  13.776  0.00  0.00    +0.000 A 
ENDBRANCH   7   8
BRANCH   7  15
ATOM     14  N   UNL     1       8.058   4.296  17.631  0.00  0.00    +0.000 N 
ATOM     15  C   UNL     1       7.351   5.179  16.856  0.00  0.00    +0.000 C 
ATOM     16  O   UNL     1       7.699   6.358  16.821  0.00  0.00    +0.000 OA
ATOM     17  H   UNL     1       8.937   4.634  18.003  0.00  0.00    +0.000 HD
ATOM     18  H   UNL     1       8.005   3.307  17.415  0.00  0.00    +0.000 HD
ENDBRANCH   7  15
ENDBRANCH   1   7
BRANCH   4  19
ATOM     19  C   UNL     1       2.731   6.528  19.014  0.00  0.00    +0.000 C 
BRANCH  19  20
ATOM     20  C   UNL     1       2.051   7.875  19.066  0.00  0.00    +0.000 A 
ATOM     21  C   UNL     1       2.034   8.730  17.954  0.00  0.00    +0.000 A 
ATOM     22  C   UNL     1       1.431   9.992  18.036  0.00  0.00    +0.000 A 
ATOM     23  C   UNL     1       0.838  10.419  19.227  0.00  0.00    +0.000 A 
ATOM     24  C   UNL     1       0.784   9.531  20.305  0.00  0.00    +0.000 A 
ATOM     25  F   UNL     1       0.141   9.850  21.438  0.00  0.00    +0.000 F 
ATOM     26  C   UNL     1       1.416   8.293  20.243  0.00  0.00    +0.000 A 
BRANCH  23  27
ATOM     27  O   UNL     1       0.314  11.694  19.213  0.00  0.00    +0.000 OA
BRANCH  27  28
ATOM     28  C   UNL     1      -1.051  11.868  19.178  0.00  0.00    +0.000 A 
ATOM     29  C   UNL     1      -1.698  11.397  18.027  0.00  0.00    +0.000 A 
ATOM     30  C   UNL     1      -3.091  11.464  17.928  0.00  0.00    +0.000 A 
ATOM     31  C   UNL     1      -3.844  12.000  18.974  0.00  0.00    +0.000 A 
ATOM     32  C   UNL     1      -3.201  12.526  20.092  0.00  0.00    +0.000 A 
ATOM     33  C   UNL     1      -1.811  12.495  20.168  0.00  0.00    +0.000 A 
ATOM     34  F   UNL     1      -1.231  13.069  21.233  0.00  0.00    +0.000 F 
ENDBRANCH  27  28
ENDBRANCH  23  27
ENDBRANCH  19  20
ENDBRANCH   4  19
TORSDOF 7
ENDMDL
MODEL 9
REMARK VINA RESULT:      -8.2      3.598      9.997
REMARK  Name = 
REMARK  7 active torsions:
REMARK  status: ('A' for Active; 'I' for Inactive)
REMARK    1  A    between atoms: C_2  and  C_4
REMARK    2  A    between atoms: C_4  and  N_5
REMARK    3  A    between atoms: C_4  and  C_25
REMARK    4  A    between atoms: N_8  and  C_9
REMARK    5  A    between atoms: C_9  and  C_10
REMARK    6  A    between atoms: C_13  and  O_14
REMARK    7  A    between atoms: O_14  and  C_15
REMARK                            x       y       z     vdW  Elec       q    Type
REMARK                         _______ _______ _______ _____ _____    ______ ____
ROOT
ATOM      1  N   UNL     1      -1.351  10.338  19.952  0.00  0.00    +0.000 N 
ATOM      2  C   UNL     1      -0.063   9.942  20.153  0.00  0.00    +0.000 C 
ATOM      3  O   UNL     1       0.902  10.536  19.707  0.00  0.00    +0.000 OA
ATOM      4  N   UNL     1       0.038   8.829  20.950  0.00  0.00    +0.000 N 
ATOM      5  H   UNL     1      -2.061   9.622  19.953  0.00  0.00    +0.000 HD
ATOM      6  H   UNL     1      -0.749   8.596  21.534  0.00  0.00    +0.000 HD
ENDROOT
BRANCH   1   7
ATOM      7  C   UNL     1      -1.619  11.538  19.141  0.00  0.00    +0.000 C 
BRANCH   7   8
ATOM      8  C   UNL     1      -2.464  11.179  17.923  0.00  0.00    +0.000 A 
ATOM      9  C   UNL     1      -3.772  11.684  17.798  0.00  0.00    +0.000 A 
ATOM     10  C   UNL     1      -4.521  11.467  16.637  0.00  0.00    +0.000 A 
ATOM     11  C   UNL     1      -3.981  10.725  15.589  0.00  0.00    +0.000 A 
ATOM     12  C   UNL     1      -2.702  10.185  15.714  0.00  0.00    +0.000 A 
ATOM     13  C   UNL     1      -1.949  10.409  16.869  0.00  0.00    +0.000 A 
ENDBRANCH   7   8
BRANCH   7  15
ATOM     14  N   UNL     1      -1.868  13.971  19.640  0.00  0.00    +0.000 N 
ATOM     15  C   UNL     1      -2.208  12.693  20.001  0.00  0.00    +0.000 C 
ATOM     16  O   UNL     1      -2.944  12.520  20.971  0.00  0.00    +0.000 OA
ATOM     17  H   UNL     1      -2.382  14.715  20.095  0.00  0.00    +0.000 HD
ATOM     18  H   UNL     1      -1.563  14.144  18.689  0.00  0.00    +0.000 HD
ENDBRANCH   7  15
ENDBRANCH   1   7
BRANCH   4  19
ATOM     19  C   UNL     1       1.343   8.325  21.339  0.00  0.00    +0.000 C 
BRANCH  19  20
ATOM     20  C   UNL     1       1.855   7.263  20.397  0.00  0.00    +0.000 A 
ATOM     21  C   UNL     1       1.747   5.898  20.702  0.00  0.00    +0.000 A 
ATOM     22  C   UNL     1       2.265   4.930  19.832  0.00  0.00    +0.000 A 
ATOM     23  C   UNL     1       2.897   5.311  18.644  0.00  0.00    +0.000 A 
ATOM     24  C   UNL     1       2.927   6.665  18.304  0.00  0.00    +0.000 A 
ATOM     25  F   UNL     1       3.432   7.078  17.132  0.00  0.00    +0.000 F 
ATOM     26  C   UNL     1       2.451   7.633  19.184  0.00  0.00    +0.000 A 
BRANCH  23  27
ATOM     27  O   UNL     1       3.410   4.283  17.882  0.00  0.00    +0.000 OA
BRANCH  27  28
ATOM     28  C   UNL     1       4.714   4.345  17.447  0.00  0.00    +0.000 A 
ATOM     29  C   UNL     1       4.910   4.147  16.073  0.00  0.00    +0.000 A 
ATOM     30  C   UNL     1       6.190   4.261  15.523  0.00  0.00    +0.000 A 
ATOM     31  C   UNL     1       7.280   4.573  16.339  0.00  0.00    +0.000 A 
ATOM     32  C   UNL     1       7.099   4.709  17.713  0.00  0.00    +0.000 A 
ATOM     33  C   UNL     1       5.830   4.552  18.262  0.00  0.00    +0.000 A 
ATOM     34  F   UNL     1       5.712   4.629  19.597  0.00  0.00    +0.000 F 
ENDBRANCH  27  28
ENDBRANCH  23  27
ENDBRANCH  19  20
ENDBRANCH   4  19
TORSDOF 7
ENDMDL
