MODEL 1
REMARK VINA RESULT:      -8.6      0.000      0.000
REMARK  Name = 
REMARK  4 active torsions:
REMARK  status: ('A' for Active; 'I' for Inactive)
REMARK    1  A    between atoms: C_2  and  C_16
REMARK    2  A    between atoms: N_3  and  C_4
REMARK    3  A    between atoms: C_4  and  C_5
REMARK    4  A    between atoms: C_18  and  O_19
REMARK                            x       y       z     vdW  Elec       q    Type
REMARK                         _______ _______ _______ _____ _____    ______ ____
ROOT
ATOM      1  O   UNL     1       2.703   4.906  17.999  0.00  0.00    +0.000 OA
ATOM      2  C   UNL     1       3.591   5.327  18.741  0.00  0.00    +0.000 C 
ATOM      3  N   UNL     1       3.289   6.004  19.952  0.00  0.00    +0.000 N 
ATOM      4  H   UNL     1       4.017   6.361  20.566  0.00  0.00    +0.000 HD
ENDROOT
BRANCH   2   5
ATOM      5  C   UNL     1       5.048   5.119  18.346  0.00  0.00    +0.000 A 
ATOM      6  C   UNL     1       6.062   5.368  19.285  0.00  0.00    +0.000 A 
ATOM      7  C   UNL     1       7.395   5.280  18.936  0.00  0.00    +0.000 A 
ATOM      8  N   UNL     1       7.784   4.991  17.729  0.00  0.00    +0.000 NA
ATOM      9  C   UNL     1       6.789   4.816  16.843  0.00  0.00    +0.000 A 
ATOM     10  C   UNL     1       7.285   4.516  15.599  0.00  0.00    +0.000 A 
ATOM     11  C   UNL     1       6.362   4.265  14.639  0.00  0.00    +0.000 A 
ATOM     12  C   UNL     1       5.547   4.026  13.737  0.00  0.00    +0.000 A 
ATOM     13  C   UNL     1       4.961   4.410  15.517  0.00  0.00    +0.000 A 
ATOM     14  C   UNL     1       5.465   4.788  16.999  0.00  0.00    +0.000 A 
BRANCH   7  15
ATOM     15  O   UNL     1       8.398   5.501  19.864  0.00  0.00    +0.000 OA
ATOM     16  H   UNL     1       9.286   5.137  19.669  0.00  0.00    +0.000 HD
ENDBRANCH   7  15
ENDBRANCH   2   5
BRANCH   3  17
ATOM     17  C   UNL     1       1.902   6.235  20.376  0.00  0.00    +0.000 C 
BRANCH  17  18
ATOM     18  C   UNL     1       1.560   7.693  20.448  0.00  0.00    +0.000 A 
ATOM     19  C   UNL     1       1.134   8.264  21.634  0.00  0.00    +0.000 A 
ATOM     20  C   UNL     1       0.805   9.603  21.659  0.00  0.00    +0.000 A 
ATOM     21  C   UNL     1       0.896  10.353  20.499  0.00  0.00    +0.000 A 
ATOM     22  N   UNL     1       0.593  11.752  20.560  0.00  0.00    +0.000 N 
ATOM     23  C   UNL     1       0.628  12.637  19.531  0.00  0.00    +0.000 A 
ATOM     24  C   UNL     1       0.332  13.859  20.025  0.00  0.00    +0.000 A 
ATOM     25  C   UNL     1       0.141  13.685  21.350  0.00  0.00    +0.000 A 
ATOM     26  N   UNL     1       0.294  12.417  21.699  0.00  0.00    +0.000 NA
ATOM     27  N   UNL     1       1.297   9.813  19.327  0.00  0.00    +0.000 NA
ATOM     28  C   UNL     1       1.615   8.507  19.335  0.00  0.00    +0.000 A 
ENDBRANCH  17  18
ENDBRANCH   3  17
TORSDOF 4
ENDMDL
MODEL 2
REMARK VINA RESULT:      -8.5      0.750      1.280
REMARK  Name = 
REMARK  4 active torsions:
REMARK  status: ('A' for Active; 'I' for Inactive)
REMARK    1  A    between atoms: C_2  and  C_16
REMARK    2  A    between atoms: N_3  and  C_4
REMARK    3  A    between atoms: C_4  and  C_5
REMARK    4  A    between atoms: C_18  and  O_19
REMARK                            x       y       z     vdW  Elec       q    Type
REMARK                         _______ _______ _______ _____ _____    ______ ____
ROOT
ATOM      1  O   UNL     1       2.693   5.089  17.943  0.00  0.00    +0.000 OA
ATOM      2  C   UNL     1       3.592   5.424  18.715  0.00  0.00    +0.000 C 
ATOM      3  N   UNL     1       3.310   6.059  19.953  0.00  0.00    +0.000 N 
ATOM      4  H   UNL     1       4.047   6.346  20.592  0.00  0.00    +0.000 HD
ENDROOT
BRANCH   2   5
ATOM      5  C   UNL     1       5.041   5.155  18.328  0.00  0.00    +0.000 A 
ATOM      6  C   UNL     1       6.059   5.360  19.273  0.00  0.00    +0.000 A 
ATOM      7  C   UNL     1       7.389   5.215  18.931  0.00  0.00    +0.000 A 
ATOM      8  N   UNL     1       7.772   4.912  17.726  0.00  0.00    +0.000 NA
ATOM      9  C   UNL     1       6.776   4.782  16.835  0.00  0.00    +0.000 A 
ATOM     10  C   UNL     1       7.267   4.463  15.592  0.00  0.00    +0.000 A 
ATOM     11  C   UNL     1       6.339   4.252  14.627  0.00  0.00    +0.000 A 
ATOM     12  C   UNL     1       5.520   4.050  13.720  0.00  0.00    +0.000 A 
ATOM     13  C   UNL     1       4.941   4.456  15.497  0.00  0.00    +0.000 A 
ATOM     14  C   UNL     1       5.451   4.809  16.983  0.00  0.00    +0.000 A 
BRANCH   7  15
ATOM     15  O   UNL     1       8.395   5.392  19.865  0.00  0.00    +0.000 OA
ATOM     16  H   UNL     1       9.289   5.061  19.639  0.00  0.00    +0.000 HD
ENDBRANCH   7  15
ENDBRANCH   2   5
BRANCH   3  17
ATOM     17  C   UNL     1       1.931   6.346  20.371  0.00  0.00    +0.000 C 
BRANCH  17  18
ATOM     18  C   UNL     1       1.565   7.788  20.188  0.00  0.00    +0.000 A 
ATOM     19  C   UNL     1       1.704   8.404  18.957  0.00  0.00    +0.000 A 
ATOM     20  C   UNL     1       1.382   9.739  18.829  0.00  0.00    +0.000 A 
ATOM     21  C   UNL     1       0.935  10.445  19.933  0.00  0.00    +0.000 A 
ATOM     22  N   UNL     1       0.562  11.818  19.766  0.00  0.00    +0.000 N 
ATOM     23  C   UNL     1       0.105  12.660  20.728  0.00  0.00    +0.000 A 
ATOM     24  C   UNL     1      -0.184  13.842  20.143  0.00  0.00    +0.000 A 
ATOM     25  C   UNL     1       0.091  13.680  18.830  0.00  0.00    +0.000 A 
ATOM     26  N   UNL     1       0.544  12.462  18.577  0.00  0.00    +0.000 NA
ATOM     27  N   UNL     1       0.805   9.866  21.148  0.00  0.00    +0.000 NA
ATOM     28  C   UNL     1       1.122   8.564  21.240  0.00  0.00    +0.000 A 
ENDBRANCH  17  18
ENDBRANCH   3  17
TORSDOF 4
ENDMDL
MODEL 3
REMARK VINA RESULT:      -8.4      4.253      9.414
REMARK  Name = 
REMARK  4 active torsions:
REMARK  status: ('A' for Active; 'I' for Inactive)
REMARK    1  A    between atoms: C_2  and  C_16
REMARK    2  A    between atoms: N_3  and  C_4
REMARK    3  A    between atoms: C_4  and  C_5
REMARK    4  A    between atoms: C_18  and  O_19
REMARK                            x       y       z     vdW  Elec       q    Type
REMARK                         _______ _______ _______ _____ _____    ______ ____
ROOT
ATOM      1  O   UNL     1       0.500  11.499  20.103  0.00  0.00    +0.000 OA
ATOM      2  C   UNL     1      -0.126  11.143  19.104  0.00  0.00    +0.000 C 
ATOM      3  N   UNL     1       0.489  10.381  18.075  0.00  0.00    +0.000 N 
ATOM      4  H   UNL     1      -0.020  10.090  17.243  0.00  0.00    +0.000 HD
ENDROOT
BRANCH   2   5
ATOM      5  C   UNL     1      -1.592  11.534  18.968  0.00  0.00    +0.000 A 
ATOM      6  C   UNL     1      -2.256  12.119  20.059  0.00  0.00    +0.000 A 
ATOM      7  C   UNL     1      -3.607  12.402  20.003  0.00  0.00    +0.000 A 
ATOM      8  N   UNL     1      -4.337  12.123  18.963  0.00  0.00    +0.000 NA
ATOM      9  C   UNL     1      -3.682  11.511  17.963  0.00  0.00    +0.000 A 
ATOM     10  C   UNL     1      -4.525  11.253  16.909  0.00  0.00    +0.000 A 
ATOM     11  C   UNL     1      -3.952  10.686  15.821  0.00  0.00    +0.000 A 
ATOM     12  C   UNL     1      -3.463  10.170  14.806  0.00  0.00    +0.000 A 
ATOM     13  C   UNL     1      -2.368  10.612  16.312  0.00  0.00    +0.000 A 
ATOM     14  C   UNL     1      -2.390  11.224  17.800  0.00  0.00    +0.000 A 
BRANCH   7  15
ATOM     15  O   UNL     1      -4.260  13.000  21.066  0.00  0.00    +0.000 OA
ATOM     16  H   UNL     1      -3.733  13.578  21.657  0.00  0.00    +0.000 HD
ENDBRANCH   7  15
ENDBRANCH   2   5
BRANCH   3  17
ATOM     17  C   UNL     1       1.900   9.982  18.154  0.00  0.00    +0.000 C 
BRANCH  17  18
ATOM     18  C   UNL     1       2.071   8.579  18.654  0.00  0.00    +0.000 A 
ATOM     19  C   UNL     1       2.647   7.607  17.856  0.00  0.00    +0.000 A 
ATOM     20  C   UNL     1       2.766   6.320  18.337  0.00  0.00    +0.000 A 
ATOM     21  C   UNL     1       2.300   6.017  19.605  0.00  0.00    +0.000 A 
ATOM     22  N   UNL     1       2.476   4.685  20.102  0.00  0.00    +0.000 N 
ATOM     23  C   UNL     1       2.086   4.210  21.312  0.00  0.00    +0.000 A 
ATOM     24  C   UNL     1       2.492   2.925  21.405  0.00  0.00    +0.000 A 
ATOM     25  C   UNL     1       3.136   2.659  20.248  0.00  0.00    +0.000 A 
ATOM     26  N   UNL     1       3.140   3.709  19.442  0.00  0.00    +0.000 NA
ATOM     27  N   UNL     1       1.721   6.948  20.397  0.00  0.00    +0.000 NA
ATOM     28  C   UNL     1       1.624   8.193  19.901  0.00  0.00    +0.000 A 
ENDBRANCH  17  18
ENDBRANCH   3  17
TORSDOF 4
ENDMDL
MODEL 4
REMARK VINA RESULT:      -8.3      2.347      3.692
REMARK  Name = 
REMARK  4 active torsions:
REMARK  status: ('A' for Active; 'I' for Inactive)
REMARK    1  A    between atoms: C_2  and  C_16
REMARK    2  A    between atoms: N_3  and  C_4
REMARK    3  A    between atoms: C_4  and  C_5
REMARK    4  A    between atoms: C_18  and  O_19
REMARK                            x       y       z     vdW  Elec       q    Type
REMARK                         _______ _______ _______ _____ _____    ______ ____
ROOT
ATOM      1  O   UNL     1       3.808   7.619  16.565  0.00  0.00    +0.000 OA
ATOM      2  C   UNL     1       3.465   7.251  17.689  0.00  0.00    +0.000 C 
ATOM      3  N   UNL     1       2.484   7.955  18.435  0.00  0.00    +0.000 N 
ATOM      4  H   UNL     1       2.201   7.661  19.367  0.00  0.00    +0.000 HD
ENDROOT
BRANCH   2   5
ATOM      5  C   UNL     1       4.115   6.013  18.294  0.00  0.00    +0.000 A 
ATOM      6  C   UNL     1       5.458   5.722  18.000  0.00  0.00    +0.000 A 
ATOM      7  C   UNL     1       6.052   4.561  18.455  0.00  0.00    +0.000 A 
ATOM      8  N   UNL     1       5.406   3.671  19.149  0.00  0.00    +0.000 NA
ATOM      9  C   UNL     1       4.111   3.953  19.361  0.00  0.00    +0.000 A 
ATOM     10  C   UNL     1       3.506   2.964  20.098  0.00  0.00    +0.000 A 
ATOM     11  C   UNL     1       2.207   3.176  20.418  0.00  0.00    +0.000 A 
ATOM     12  C   UNL     1       1.019   3.337  20.732  0.00  0.00    +0.000 A 
ATOM     13  C   UNL     1       1.967   4.675  19.746  0.00  0.00    +0.000 A 
ATOM     14  C   UNL     1       3.385   5.034  19.073  0.00  0.00    +0.000 A 
BRANCH   7  15
ATOM     15  O   UNL     1       7.381   4.282  18.188  0.00  0.00    +0.000 OA
ATOM     16  H   UNL     1       7.932   3.943  18.925  0.00  0.00    +0.000 HD
ENDBRANCH   7  15
ENDBRANCH   2   5
BRANCH   3  17
ATOM     17  C   UNL     1       1.830   9.157  17.900  0.00  0.00    +0.000 C 
BRANCH  17  18
ATOM     18  C   UNL     1       0.932   9.815  18.905  0.00  0.00    +0.000 A 
ATOM     19  C   UNL     1       0.850   9.340  20.201  0.00  0.00    +0.000 A 
ATOM     20  C   UNL     1      -0.005   9.953  21.093  0.00  0.00    +0.000 A 
ATOM     21  C   UNL     1      -0.773  11.028  20.677  0.00  0.00    +0.000 A 
ATOM     22  N   UNL     1      -1.619  11.678  21.633  0.00  0.00    +0.000 N 
ATOM     23  C   UNL     1      -2.436  12.739  21.408  0.00  0.00    +0.000 A 
ATOM     24  C   UNL     1      -3.010  13.078  22.582  0.00  0.00    +0.000 A 
ATOM     25  C   UNL     1      -2.510  12.220  23.498  0.00  0.00    +0.000 A 
ATOM     26  N   UNL     1      -1.665  11.362  22.948  0.00  0.00    +0.000 NA
ATOM     27  N   UNL     1      -0.719  11.500  19.411  0.00  0.00    +0.000 NA
ATOM     28  C   UNL     1       0.127  10.884  18.568  0.00  0.00    +0.000 A 
ENDBRANCH  17  18
ENDBRANCH   3  17
TORSDOF 4
ENDMDL
MODEL 5
REMARK VINA RESULT:      -8.3      4.408      9.958
REMARK  Name = 
REMARK  4 active torsions:
REMARK  status: ('A' for Active; 'I' for Inactive)
REMARK    1  A    between atoms: C_2  and  C_16
REMARK    2  A    between atoms: N_3  and  C_4
REMARK    3  A    between atoms: C_4  and  C_5
REMARK    4  A    between atoms: C_18  and  O_19
REMARK                            x       y       z     vdW  Elec       q    Type
REMARK                         _______ _______ _______ _____ _____    ______ ____
ROOT
ATOM      1  O   UNL     1      -1.149  10.648  19.673  0.00  0.00    +0.000 OA
ATOM      2  C   UNL     1      -1.016  10.488  18.459  0.00  0.00    +0.000 C 
ATOM      3  N   UNL     1       0.245  10.180  17.884  0.00  0.00    +0.000 N 
ATOM      4  H   UNL     1       0.364  10.053  16.882  0.00  0.00    +0.000 HD
ENDROOT
BRANCH   2   5
ATOM      5  C   UNL     1      -2.233  10.631  17.554  0.00  0.00    +0.000 A 
ATOM      6  C   UNL     1      -2.161  10.192  16.222  0.00  0.00    +0.000 A 
ATOM      7  C   UNL     1      -3.212  10.389  15.348  0.00  0.00    +0.000 A 
ATOM      8  N   UNL     1      -4.303  11.007  15.694  0.00  0.00    +0.000 NA
ATOM      9  C   UNL     1      -4.314  11.465  16.957  0.00  0.00    +0.000 A 
ATOM     10  C   UNL     1      -5.498  12.102  17.238  0.00  0.00    +0.000 A 
ATOM     11  C   UNL     1      -5.637  12.555  18.507  0.00  0.00    +0.000 A 
ATOM     12  C   UNL     1      -5.802  12.980  19.659  0.00  0.00    +0.000 A 
ATOM     13  C   UNL     1      -4.209  12.038  19.176  0.00  0.00    +0.000 A 
ATOM     14  C   UNL     1      -3.445  11.314  17.957  0.00  0.00    +0.000 A 
BRANCH   7  15
ATOM     15  O   UNL     1      -3.154   9.937  14.041  0.00  0.00    +0.000 OA
ATOM     16  H   UNL     1      -3.885  10.191  13.440  0.00  0.00    +0.000 HD
ENDBRANCH   7  15
ENDBRANCH   2   5
BRANCH   3  17
ATOM     17  C   UNL     1       1.451  10.036  18.711  0.00  0.00    +0.000 C 
BRANCH  17  18
ATOM     18  C   UNL     1       1.817   8.601  18.943  0.00  0.00    +0.000 A 
ATOM     19  C   UNL     1       2.354   7.832  17.926  0.00  0.00    +0.000 A 
ATOM     20  C   UNL     1       2.657   6.508  18.167  0.00  0.00    +0.000 A 
ATOM     21  C   UNL     1       2.412   5.966  19.417  0.00  0.00    +0.000 A 
ATOM     22  N   UNL     1       2.777   4.601  19.658  0.00  0.00    +0.000 N 
ATOM     23  C   UNL     1       2.613   3.907  20.812  0.00  0.00    +0.000 A 
ATOM     24  C   UNL     1       3.142   2.677  20.636  0.00  0.00    +0.000 A 
ATOM     25  C   UNL     1       3.630   2.663  19.377  0.00  0.00    +0.000 A 
ATOM     26  N   UNL     1       3.422   3.818  18.763  0.00  0.00    +0.000 NA
ATOM     27  N   UNL     1       1.875   6.695  20.421  0.00  0.00    +0.000 NA
ATOM     28  C   UNL     1       1.595   7.982  20.157  0.00  0.00    +0.000 A 
ENDBRANCH  17  18
ENDBRANCH   3  17
TORSDOF 4
ENDMDL
MODEL 6
REMARK VINA RESULT:      -8.3      4.370      9.817
REMARK  Name = 
REMARK  4 active torsions:
REMARK  status: ('A' for Active; 'I' for Inactive)
REMARK    1  A    between atoms: C_2  and  C_16
REMARK    2  A    between atoms: N_3  and  C_4
REMARK    3  A    between atoms: C_4  and  C_5
REMARK    4  A    between atoms: C_18  and  O_19
REMARK                            x       y       z     vdW  Elec       q    Type
REMARK                         _______ _______ _______ _____ _____    ______ ____
ROOT
ATOM      1  O   UNL     1      -1.095  10.546  19.681  0.00  0.00    +0.000 OA
ATOM      2  C   UNL     1      -0.972  10.468  18.459  0.00  0.00    +0.000 C 
ATOM      3  N   UNL     1       0.293  10.254  17.851  0.00  0.00    +0.000 N 
ATOM      4  H   UNL     1       0.404  10.196  16.841  0.00  0.00    +0.000 HD
ENDROOT
BRANCH   2   5
ATOM      5  C   UNL     1      -2.207  10.612  17.578  0.00  0.00    +0.000 A 
ATOM      6  C   UNL     1      -2.160  10.176  16.244  0.00  0.00    +0.000 A 
ATOM      7  C   UNL     1      -3.229  10.374  15.391  0.00  0.00    +0.000 A 
ATOM      8  N   UNL     1      -4.314  10.989  15.761  0.00  0.00    +0.000 NA
ATOM      9  C   UNL     1      -4.300  11.443  17.024  0.00  0.00    +0.000 A 
ATOM     10  C   UNL     1      -5.479  12.077  17.331  0.00  0.00    +0.000 A 
ATOM     11  C   UNL     1      -5.595  12.527  18.603  0.00  0.00    +0.000 A 
ATOM     12  C   UNL     1      -5.737  12.949  19.759  0.00  0.00    +0.000 A 
ATOM     13  C   UNL     1      -4.153  12.011  19.242  0.00  0.00    +0.000 A 
ATOM     14  C   UNL     1      -3.412  11.291  18.007  0.00  0.00    +0.000 A 
BRANCH   7  15
ATOM     15  O   UNL     1      -3.196   9.925  14.082  0.00  0.00    +0.000 OA
ATOM     16  H   UNL     1      -4.052   9.808  13.620  0.00  0.00    +0.000 HD
ENDBRANCH   7  15
ENDBRANCH   2   5
BRANCH   3  17
ATOM     17  C   UNL     1       1.516  10.114  18.654  0.00  0.00    +0.000 C 
BRANCH  17  18
ATOM     18  C   UNL     1       1.770   8.695  19.066  0.00  0.00    +0.000 A 
ATOM     19  C   UNL     1       1.463   8.262  20.343  0.00  0.00    +0.000 A 
ATOM     20  C   UNL     1       1.733   6.956  20.697  0.00  0.00    +0.000 A 
ATOM     21  C   UNL     1       2.314   6.103  19.775  0.00  0.00    +0.000 A 
ATOM     22  N   UNL     1       2.543   4.739  20.150  0.00  0.00    +0.000 N 
ATOM     23  C   UNL     1       3.098   3.767  19.382  0.00  0.00    +0.000 A 
ATOM     24  C   UNL     1       3.077   2.616  20.090  0.00  0.00    +0.000 A 
ATOM     25  C   UNL     1       2.490   2.919  21.268  0.00  0.00    +0.000 A 
ATOM     26  N   UNL     1       2.157   4.199  21.328  0.00  0.00    +0.000 NA
ATOM     27  N   UNL     1       2.636   6.509  18.526  0.00  0.00    +0.000 NA
ATOM     28  C   UNL     1       2.356   7.785  18.210  0.00  0.00    +0.000 A 
ENDBRANCH  17  18
ENDBRANCH   3  17
TORSDOF 4
ENDMDL
MODEL 7
REMARK VINA RESULT:      -8.3      4.141      9.274
REMARK  Name = 
REMARK  4 active torsions:
REMARK  status: ('A' for Active; 'I' for Inactive)
REMARK    1  A    between atoms: C_2  and  C_16
REMARK    2  A    between atoms: N_3  and  C_4
REMARK    3  A    between atoms: C_4  and  C_5
REMARK    4  A    between atoms: C_18  and  O_19
REMARK                            x       y       z     vdW  Elec       q    Type
REMARK                         _______ _______ _______ _____ _____    ______ ____
ROOT
ATOM      1  O   UNL     1       0.998  11.592  19.621  0.00  0.00    +0.000 OA
ATOM      2  C   UNL     1       0.219  11.061  18.829  0.00  0.00    +0.000 C 
ATOM      3  N   UNL     1       0.650  10.059  17.921  0.00  0.00    +0.000 N 
ATOM      4  H   UNL     1       0.013   9.621  17.259  0.00  0.00    +0.000 HD
ENDROOT
BRANCH   2   5
ATOM      5  C   UNL     1      -1.242  11.495  18.823  0.00  0.00    +0.000 A 
ATOM      6  C   UNL     1      -1.787  12.107  19.963  0.00  0.00    +0.000 A 
ATOM      7  C   UNL     1      -3.129  12.429  20.027  0.00  0.00    +0.000 A 
ATOM      8  N   UNL     1      -3.958  12.165  19.060  0.00  0.00    +0.000 NA
ATOM      9  C   UNL     1      -3.414  11.527  18.011  0.00  0.00    +0.000 A 
ATOM     10  C   UNL     1      -4.356  11.288  17.040  0.00  0.00    +0.000 A 
ATOM     11  C   UNL     1      -3.901  10.697  15.909  0.00  0.00    +0.000 A 
ATOM     12  C   UNL     1      -3.520  10.160  14.859  0.00  0.00    +0.000 A 
ATOM     13  C   UNL     1      -2.282  10.579  16.256  0.00  0.00    +0.000 A 
ATOM     14  C   UNL     1      -2.151  11.202  17.734  0.00  0.00    +0.000 A 
BRANCH   7  15
ATOM     15  O   UNL     1      -3.666  13.053  21.140  0.00  0.00    +0.000 OA
ATOM     16  H   UNL     1      -4.479  12.669  21.528  0.00  0.00    +0.000 HD
ENDBRANCH   7  15
ENDBRANCH   2   5
BRANCH   3  17
ATOM     17  C   UNL     1       2.048   9.608  17.883  0.00  0.00    +0.000 C 
BRANCH  17  18
ATOM     18  C   UNL     1       2.231   8.261  18.515  0.00  0.00    +0.000 A 
ATOM     19  C   UNL     1       1.678   7.975  19.749  0.00  0.00    +0.000 A 
ATOM     20  C   UNL     1       1.887   6.734  20.313  0.00  0.00    +0.000 A 
ATOM     21  C   UNL     1       2.654   5.797  19.642  0.00  0.00    +0.000 A 
ATOM     22  N   UNL     1       2.820   4.499  20.225  0.00  0.00    +0.000 N 
ATOM     23  C   UNL     1       3.531   3.462  19.714  0.00  0.00    +0.000 A 
ATOM     24  C   UNL     1       3.382   2.407  20.544  0.00  0.00    +0.000 A 
ATOM     25  C   UNL     1       2.565   2.829  21.533  0.00  0.00    +0.000 A 
ATOM     26  N   UNL     1       2.211   4.093  21.363  0.00  0.00    +0.000 NA
ATOM     27  N   UNL     1       3.216   6.060  18.440  0.00  0.00    +0.000 NA
ATOM     28  C   UNL     1       2.990   7.275  17.915  0.00  0.00    +0.000 A 
ENDBRANCH  17  18
ENDBRANCH   3  17
TORSDOF 4
ENDMDL
MODEL 8
REMARK VINA RESULT:      -8.2      3.261      4.407
REMARK  Name = 
REMARK  4 active torsions:
REMARK  status: ('A' for Active; 'I' for Inactive)
REMARK    1  A    between atoms: C_2  and  C_16
REMARK    2  A    between atoms: N_3  and  C_4
REMARK    3  A    between atoms: C_4  and  C_5
REMARK    4  A    between atoms: C_18  and  O_19
REMARK                            x       y       z     vdW  Elec       q    Type
REMARK                         _______ _______ _______ _____ _____    ______ ____
ROOT
ATOM      1  O   UNL     1       2.224   7.475  19.984  0.00  0.00    +0.000 OA
ATOM      2  C   UNL     1       2.294   7.336  18.763  0.00  0.00    +0.000 C 
ATOM      3  N   UNL     1       2.157   8.439  17.880  0.00  0.00    +0.000 N 
ATOM      4  H   UNL     1       2.207   8.331  16.870  0.00  0.00    +0.000 HD
ENDROOT
BRANCH   2   5
ATOM      5  C   UNL     1       2.528   5.945  18.187  0.00  0.00    +0.000 A 
ATOM      6  C   UNL     1       1.585   4.931  18.422  0.00  0.00    +0.000 A 
ATOM      7  C   UNL     1       1.808   3.636  17.995  0.00  0.00    +0.000 A 
ATOM      8  N   UNL     1       2.899   3.280  17.383  0.00  0.00    +0.000 NA
ATOM      9  C   UNL     1       3.803   4.262  17.227  0.00  0.00    +0.000 A 
ATOM     10  C   UNL     1       4.920   3.801  16.574  0.00  0.00    +0.000 A 
ATOM     11  C   UNL     1       5.875   4.726  16.314  0.00  0.00    +0.000 A 
ATOM     12  C   UNL     1       6.769   5.545  16.057  0.00  0.00    +0.000 A 
ATOM     13  C   UNL     1       5.153   6.091  16.922  0.00  0.00    +0.000 A 
ATOM     14  C   UNL     1       3.745   5.565  17.499  0.00  0.00    +0.000 A 
BRANCH   7  15
ATOM     15  O   UNL     1       0.871   2.639  18.204  0.00  0.00    +0.000 OA
ATOM     16  H   UNL     1       0.045   2.882  18.672  0.00  0.00    +0.000 HD
ENDBRANCH   7  15
ENDBRANCH   2   5
BRANCH   3  17
ATOM     17  C   UNL     1       1.926   9.800  18.383  0.00  0.00    +0.000 C 
BRANCH  17  18
ATOM     18  C   UNL     1       0.473  10.170  18.386  0.00  0.00    +0.000 A 
ATOM     19  C   UNL     1      -0.409   9.586  17.495  0.00  0.00    +0.000 A 
ATOM     20  C   UNL     1      -1.734   9.967  17.508  0.00  0.00    +0.000 A 
ATOM     21  C   UNL     1      -2.161  10.932  18.404  0.00  0.00    +0.000 A 
ATOM     22  N   UNL     1      -3.551  11.280  18.430  0.00  0.00    +0.000 N 
ATOM     23  C   UNL     1      -4.145  12.196  19.236  0.00  0.00    +0.000 A 
ATOM     24  C   UNL     1      -5.472  12.173  18.983  0.00  0.00    +0.000 A 
ATOM     25  C   UNL     1      -5.650  11.226  18.037  0.00  0.00    +0.000 A 
ATOM     26  N   UNL     1      -4.501  10.669  17.686  0.00  0.00    +0.000 NA
ATOM     27  N   UNL     1      -1.313  11.526  19.274  0.00  0.00    +0.000 NA
ATOM     28  C   UNL     1      -0.030  11.130  19.240  0.00  0.00    +0.000 A 
ENDBRANCH  17  18
ENDBRANCH   3  17
TORSDOF 4
ENDMDL
MODEL 9
REMARK VINA RESULT:      -8.2      3.362      4.718
REMARK  Name = 
REMARK  4 active torsions:
REMARK  status: ('A' for Active; 'I' for Inactive)
REMARK    1  A    between atoms: C_2  and  C_16
REMARK    2  A    between atoms: N_3  and  C_4
REMARK    3  A    between atoms: C_4  and  C_5
REMARK    4  A    between atoms: C_18  and  O_19
REMARK                            x       y       z     vdW  Elec       q    Type
REMARK                         _______ _______ _______ _____ _____    ______ ____
ROOT
ATOM      1  O   UNL     1       1.685   8.044  21.015  0.00  0.00    +0.000 OA
ATOM      2  C   UNL     1       1.833   7.605  19.874  0.00  0.00    +0.000 C 
ATOM      3  N   UNL     1       1.812   8.460  18.741  0.00  0.00    +0.000 N 
ATOM      4  H   UNL     1       1.926   8.103  17.795  0.00  0.00    +0.000 HD
ENDROOT
BRANCH   2   5
ATOM      5  C   UNL     1       2.037   6.108  19.676  0.00  0.00    +0.000 A 
ATOM      6  C   UNL     1       1.413   5.203  20.550  0.00  0.00    +0.000 A 
ATOM      7  C   UNL     1       1.648   3.845  20.457  0.00  0.00    +0.000 A 
ATOM      8  N   UNL     1       2.469   3.336  19.587  0.00  0.00    +0.000 NA
ATOM      9  C   UNL     1       3.093   4.235  18.808  0.00  0.00    +0.000 A 
ATOM     10  C   UNL     1       3.938   3.614  17.921  0.00  0.00    +0.000 A 
ATOM     11  C   UNL     1       4.578   4.428  17.046  0.00  0.00    +0.000 A 
ATOM     12  C   UNL     1       5.178   5.140  16.229  0.00  0.00    +0.000 A 
ATOM     13  C   UNL     1       3.942   5.899  17.477  0.00  0.00    +0.000 A 
ATOM     14  C   UNL     1       2.948   5.555  18.696  0.00  0.00    +0.000 A 
BRANCH   7  15
ATOM     15  O   UNL     1       1.017   2.947  21.301  0.00  0.00    +0.000 OA
ATOM     16  H   UNL     1       0.438   2.271  20.893  0.00  0.00    +0.000 HD
ENDBRANCH   7  15
ENDBRANCH   2   5
BRANCH   3  17
ATOM     17  C   UNL     1       1.614   9.909  18.876  0.00  0.00    +0.000 C 
BRANCH  17  18
ATOM     18  C   UNL     1       0.173  10.304  18.751  0.00  0.00    +0.000 A 
ATOM     19  C   UNL     1      -0.595   9.855  17.693  0.00  0.00    +0.000 A 
ATOM     20  C   UNL     1      -1.911  10.257  17.594  0.00  0.00    +0.000 A 
ATOM     21  C   UNL     1      -2.440  11.110  18.548  0.00  0.00    +0.000 A 
ATOM     22  N   UNL     1      -3.822  11.478  18.451  0.00  0.00    +0.000 N 
ATOM     23  C   UNL     1      -4.506  12.297  19.289  0.00  0.00    +0.000 A 
ATOM     24  C   UNL     1      -5.792  12.332  18.877  0.00  0.00    +0.000 A 
ATOM     25  C   UNL     1      -5.857  11.515  17.804  0.00  0.00    +0.000 A 
ATOM     26  N   UNL     1      -4.676  10.985  17.525  0.00  0.00    +0.000 NA
ATOM     27  N   UNL     1      -1.703  11.572  19.583  0.00  0.00    +0.000 NA
ATOM     28  C   UNL     1      -0.427  11.159  19.654  0.00  0.00    +0.000 A 
ENDBRANCH  17  18
ENDBRANCH   3  17
TORSDOF 4
ENDMDL
