MODEL 1
REMARK VINA RESULT:      -8.8      0.000      0.000
REMARK  Name = 
REMARK  6 active torsions:
REMARK  status: ('A' for Active; 'I' for Inactive)
REMARK    1  A    between atoms: C_1  and  C_2
REMARK    2  A    between atoms: C_8  and  C_9
REMARK    3  A    between atoms: C_9  and  S_10
REMARK    4  A    between atoms: S_10  and  C_11
REMARK    5  A    between atoms: C_14  and  C_15
REMARK    6  A    between atoms: C_22  and  C_23
REMARK                            x       y       z     vdW  Elec       q    Type
REMARK                         _______ _______ _______ _____ _____    ______ ____
ROOT
ATOM      1  C   UNL     1       7.159   7.355  17.413  0.00  0.00    +0.000 A 
ATOM      2  N   UNL     1       7.850   6.760  18.366  0.00  0.00    +0.000 NA
ATOM      3  N   UNL     1       8.636   7.748  18.950  0.00  0.00    +0.000 NA
ATOM      4  C   UNL     1       8.357   8.879  18.326  0.00  0.00    +0.000 A 
ATOM      5  O   UNL     1       7.417   8.691  17.345  0.00  0.00    +0.000 OA
ENDROOT
BRANCH   4   6
ATOM      6  C   UNL     1       8.963  10.159  18.571  0.00  0.00    +0.000 A 
ATOM      7  C   UNL     1       9.245  11.181  17.685  0.00  0.00    +0.000 A 
ATOM      8  C   UNL     1       9.783  12.347  18.335  0.00  0.00    +0.000 A 
ATOM      9  C   UNL     1       9.928  12.137  19.684  0.00  0.00    +0.000 A 
ATOM     10  S   UNL     1       9.416  10.591  20.168  0.00  0.00    +0.000 S 
ATOM     11  C   UNL     1      10.465  13.093  20.683  0.00  0.00    +0.000 C 
ATOM     12  C   UNL     1      10.759  14.481  20.116  0.00  0.00    +0.000 C 
ATOM     13  C   UNL     1      10.783  14.701  18.584  0.00  0.00    +0.000 C 
ATOM     14  C   UNL     1      12.208  15.008  18.106  0.00  0.00    +0.000 C 
ATOM     15  C   UNL     1      10.117  13.641  17.675  0.00  0.00    +0.000 C 
ENDBRANCH   4   6
BRANCH   1  16
ATOM     16  S   UNL     1       6.095   6.615  16.268  0.00  0.00    +0.000 S 
BRANCH  16  17
ATOM     17  C   UNL     1       6.257   4.855  16.664  0.00  0.00    +0.000 C 
BRANCH  17  25
ATOM     18  C   UNL     1       0.655   2.327  19.192  0.00  0.00    +0.000 C 
ATOM     19  C   UNL     1       1.457   3.583  19.418  0.00  0.00    +0.000 A 
ATOM     20  C   UNL     1       1.015   4.478  20.322  0.00  0.00    +0.000 A 
ATOM     21  C   UNL     1       1.762   5.666  20.618  0.00  0.00    +0.000 A 
ATOM     22  C   UNL     1       2.922   5.901  20.003  0.00  0.00    +0.000 A 
ATOM     23  C   UNL     1       3.424   4.951  18.972  0.00  0.00    +0.000 A 
ATOM     24  N   UNL     1       4.543   5.256  18.383  0.00  0.00    +0.000 NA
ATOM     25  C   UNL     1       5.000   4.421  17.396  0.00  0.00    +0.000 A 
ATOM     26  C   UNL     1       4.370   3.297  17.056  0.00  0.00    +0.000 A 
ATOM     27  C   UNL     1       3.112   2.933  17.736  0.00  0.00    +0.000 A 
ATOM     28  O   UNL     1       2.573   1.893  17.357  0.00  0.00    +0.000 OA
ATOM     29  N   UNL     1       2.660   3.814  18.711  0.00  0.00    +0.000 N 
ENDBRANCH  17  25
ENDBRANCH  16  17
ENDBRANCH   1  16
TORSDOF 4
ENDMDL
MODEL 2
REMARK VINA RESULT:      -8.8      2.302     10.898
REMARK  Name = 
REMARK  6 active torsions:
REMARK  status: ('A' for Active; 'I' for Inactive)
REMARK    1  A    between atoms: C_1  and  C_2
REMARK    2  A    between atoms: C_8  and  C_9
REMARK    3  A    between atoms: C_9  and  S_10
REMARK    4  A    between atoms: S_10  and  C_11
REMARK    5  A    between atoms: C_14  and  C_15
REMARK    6  A    between atoms: C_22  and  C_23
REMARK                            x       y       z     vdW  Elec       q    Type
REMARK                         _______ _______ _______ _____ _____    ______ ____
ROOT
ATOM      1  C   UNL     1       7.291   7.855  17.357  0.00  0.00    +0.000 A 
ATOM      2  N   UNL     1       7.853   6.821  16.761  0.00  0.00    +0.000 NA
ATOM      3  N   UNL     1       7.017   5.734  17.002  0.00  0.00    +0.000 NA
ATOM      4  C   UNL     1       5.996   6.185  17.711  0.00  0.00    +0.000 A 
ATOM      5  O   UNL     1       6.113   7.529  17.958  0.00  0.00    +0.000 OA
ENDROOT
BRANCH   4   6
ATOM      6  C   UNL     1       4.904   5.403  18.221  0.00  0.00    +0.000 A 
ATOM      7  C   UNL     1       4.175   5.568  19.384  0.00  0.00    +0.000 A 
ATOM      8  C   UNL     1       3.098   4.621  19.502  0.00  0.00    +0.000 A 
ATOM      9  C   UNL     1       3.087   3.750  18.441  0.00  0.00    +0.000 A 
ATOM     10  S   UNL     1       4.323   4.065  17.319  0.00  0.00    +0.000 S 
ATOM     11  C   UNL     1       2.144   2.627  18.217  0.00  0.00    +0.000 C 
ATOM     12  C   UNL     1       1.014   2.554  19.244  0.00  0.00    +0.000 C 
ATOM     13  C   UNL     1       1.094   3.393  20.542  0.00  0.00    +0.000 C 
ATOM     14  C   UNL     1       1.273   2.481  21.762  0.00  0.00    +0.000 C 
ATOM     15  C   UNL     1       2.085   4.579  20.595  0.00  0.00    +0.000 C 
ENDBRANCH   4   6
BRANCH   1  16
ATOM     16  S   UNL     1       7.927   9.457  17.501  0.00  0.00    +0.000 S 
BRANCH  16  17
ATOM     17  C   UNL     1       8.970   9.332  18.977  0.00  0.00    +0.000 C 
BRANCH  17  25
ATOM     18  C   UNL     1      11.027  15.307  21.034  0.00  0.00    +0.000 C 
ATOM     19  C   UNL     1      11.011  14.579  19.715  0.00  0.00    +0.000 A 
ATOM     20  C   UNL     1      11.502  15.203  18.627  0.00  0.00    +0.000 A 
ATOM     21  C   UNL     1      11.562  14.543  17.355  0.00  0.00    +0.000 A 
ATOM     22  C   UNL     1      11.137  13.284  17.231  0.00  0.00    +0.000 A 
ATOM     23  C   UNL     1      10.556  12.574  18.404  0.00  0.00    +0.000 A 
ATOM     24  N   UNL     1      10.127  11.362  18.209  0.00  0.00    +0.000 NA
ATOM     25  C   UNL     1       9.545  10.708  19.263  0.00  0.00    +0.000 A 
ATOM     26  C   UNL     1       9.446  11.245  20.478  0.00  0.00    +0.000 A 
ATOM     27  C   UNL     1       9.952  12.611  20.713  0.00  0.00    +0.000 A 
ATOM     28  O   UNL     1       9.809  13.053  21.854  0.00  0.00    +0.000 OA
ATOM     29  N   UNL     1      10.510  13.260  19.619  0.00  0.00    +0.000 N 
ENDBRANCH  17  25
ENDBRANCH  16  17
ENDBRANCH   1  16
TORSDOF 4
ENDMDL
MODEL 3
REMARK VINA RESULT:      -8.8      0.995      1.024
REMARK  Name = 
REMARK  6 active torsions:
REMARK  status: ('A' for Active; 'I' for Inactive)
REMARK    1  A    between atoms: C_1  and  C_2
REMARK    2  A    between atoms: C_8  and  C_9
REMARK    3  A    between atoms: C_9  and  S_10
REMARK    4  A    between atoms: S_10  and  C_11
REMARK    5  A    between atoms: C_14  and  C_15
REMARK    6  A    between atoms: C_22  and  C_23
REMARK                            x       y       z     vdW  Elec       q    Type
REMARK                         _______ _______ _______ _____ _____    ______ ____
ROOT
ATOM      1  C   UNL     1       7.469   6.449  17.127  0.00  0.00    +0.000 A 
ATOM      2  N   UNL     1       7.786   6.095  18.357  0.00  0.00    +0.000 NA
ATOM      3  N   UNL     1       8.245   7.248  18.987  0.00  0.00    +0.000 NA
ATOM      4  C   UNL     1       8.158   8.228  18.104  0.00  0.00    +0.000 A 
ATOM      5  O   UNL     1       7.662   7.780  16.906  0.00  0.00    +0.000 OA
ENDROOT
BRANCH   4   6
ATOM      6  C   UNL     1       8.561   9.592  18.305  0.00  0.00    +0.000 A 
ATOM      7  C   UNL     1       8.345  10.698  17.503  0.00  0.00    +0.000 A 
ATOM      8  C   UNL     1       8.836  11.915  18.094  0.00  0.00    +0.000 A 
ATOM      9  C   UNL     1       9.444  11.669  19.299  0.00  0.00    +0.000 A 
ATOM     10  S   UNL     1       9.414  10.025  19.728  0.00  0.00    +0.000 S 
ATOM     11  C   UNL     1      10.085  12.662  20.195  0.00  0.00    +0.000 C 
ATOM     12  C   UNL     1       9.916  14.110  19.735  0.00  0.00    +0.000 C 
ATOM     13  C   UNL     1       9.403  14.412  18.306  0.00  0.00    +0.000 C 
ATOM     14  C   UNL     1      10.514  15.044  17.458  0.00  0.00    +0.000 C 
ATOM     15  C   UNL     1       8.691  13.285  17.523  0.00  0.00    +0.000 C 
ENDBRANCH   4   6
BRANCH   1  16
ATOM     16  S   UNL     1       6.947   5.420  15.838  0.00  0.00    +0.000 S 
BRANCH  16  17
ATOM     17  C   UNL     1       5.214   5.905  15.628  0.00  0.00    +0.000 C 
BRANCH  17  25
ATOM     18  C   UNL     1       1.682   2.307  19.956  0.00  0.00    +0.000 C 
ATOM     19  C   UNL     1       1.979   3.774  19.779  0.00  0.00    +0.000 A 
ATOM     20  C   UNL     1       1.443   4.652  20.648  0.00  0.00    +0.000 A 
ATOM     21  C   UNL     1       1.732   6.053  20.562  0.00  0.00    +0.000 A 
ATOM     22  C   UNL     1       2.552   6.514  19.616  0.00  0.00    +0.000 A 
ATOM     23  C   UNL     1       3.136   5.577  18.616  0.00  0.00    +0.000 A 
ATOM     24  N   UNL     1       3.898   6.094  17.697  0.00  0.00    +0.000 NA
ATOM     25  C   UNL     1       4.408   5.257  16.738  0.00  0.00    +0.000 A 
ATOM     26  C   UNL     1       4.190   3.942  16.741  0.00  0.00    +0.000 A 
ATOM     27  C   UNL     1       3.345   3.347  17.793  0.00  0.00    +0.000 A 
ATOM     28  O   UNL     1       3.169   2.130  17.722  0.00  0.00    +0.000 OA
ATOM     29  N   UNL     1       2.819   4.223  18.734  0.00  0.00    +0.000 N 
ENDBRANCH  17  25
ENDBRANCH  16  17
ENDBRANCH   1  16
TORSDOF 4
ENDMDL
MODEL 4
REMARK VINA RESULT:      -8.8      1.219      1.728
REMARK  Name = 
REMARK  6 active torsions:
REMARK  status: ('A' for Active; 'I' for Inactive)
REMARK    1  A    between atoms: C_1  and  C_2
REMARK    2  A    between atoms: C_8  and  C_9
REMARK    3  A    between atoms: C_9  and  S_10
REMARK    4  A    between atoms: S_10  and  C_11
REMARK    5  A    between atoms: C_14  and  C_15
REMARK    6  A    between atoms: C_22  and  C_23
REMARK                            x       y       z     vdW  Elec       q    Type
REMARK                         _______ _______ _______ _____ _____    ______ ____
ROOT
ATOM      1  C   UNL     1       7.827   7.013  18.100  0.00  0.00    +0.000 A 
ATOM      2  N   UNL     1       7.262   7.622  17.075  0.00  0.00    +0.000 NA
ATOM      3  N   UNL     1       7.624   8.962  17.174  0.00  0.00    +0.000 NA
ATOM      4  C   UNL     1       8.398   9.073  18.240  0.00  0.00    +0.000 A 
ATOM      5  O   UNL     1       8.569   7.863  18.862  0.00  0.00    +0.000 OA
ENDROOT
BRANCH   4   6
ATOM      6  C   UNL     1       8.973  10.287  18.750  0.00  0.00    +0.000 A 
ATOM      7  C   UNL     1       8.895  10.829  20.019  0.00  0.00    +0.000 A 
ATOM      8  C   UNL     1       9.682  12.026  20.161  0.00  0.00    +0.000 A 
ATOM      9  C   UNL     1      10.287  12.362  18.975  0.00  0.00    +0.000 A 
ATOM     10  S   UNL     1       9.940  11.266  17.725  0.00  0.00    +0.000 S 
ATOM     11  C   UNL     1      11.159  13.534  18.719  0.00  0.00    +0.000 C 
ATOM     12  C   UNL     1      11.482  14.351  19.970  0.00  0.00    +0.000 C 
ATOM     13  C   UNL     1      10.682  14.115  21.274  0.00  0.00    +0.000 C 
ATOM     14  C   UNL     1       9.807  15.332  21.597  0.00  0.00    +0.000 C 
ATOM     15  C   UNL     1       9.872  12.805  21.417  0.00  0.00    +0.000 C 
ENDBRANCH   4   6
BRANCH   1  16
ATOM     16  S   UNL     1       7.644   5.358  18.571  0.00  0.00    +0.000 S 
BRANCH  16  17
ATOM     17  C   UNL     1       6.657   4.674  17.214  0.00  0.00    +0.000 C 
BRANCH  17  25
ATOM     18  C   UNL     1       0.656   2.392  18.932  0.00  0.00    +0.000 C 
ATOM     19  C   UNL     1       1.498   3.580  19.320  0.00  0.00    +0.000 A 
ATOM     20  C   UNL     1       1.006   4.455  20.218  0.00  0.00    +0.000 A 
ATOM     21  C   UNL     1       1.781   5.575  20.665  0.00  0.00    +0.000 A 
ATOM     22  C   UNL     1       3.018   5.765  20.202  0.00  0.00    +0.000 A 
ATOM     23  C   UNL     1       3.582   4.838  19.183  0.00  0.00    +0.000 A 
ATOM     24  N   UNL     1       4.779   5.099  18.745  0.00  0.00    +0.000 NA
ATOM     25  C   UNL     1       5.299   4.286  17.771  0.00  0.00    +0.000 A 
ATOM     26  C   UNL     1       4.649   3.224  17.296  0.00  0.00    +0.000 A 
ATOM     27  C   UNL     1       3.300   2.910  17.805  0.00  0.00    +0.000 A 
ATOM     28  O   UNL     1       2.749   1.927  17.308  0.00  0.00    +0.000 OA
ATOM     29  N   UNL     1       2.788   3.767  18.771  0.00  0.00    +0.000 N 
ENDBRANCH  17  25
ENDBRANCH  16  17
ENDBRANCH   1  16
TORSDOF 4
ENDMDL
MODEL 5
REMARK VINA RESULT:      -8.7      1.619      2.482
REMARK  Name = 
REMARK  6 active torsions:
REMARK  status: ('A' for Active; 'I' for Inactive)
REMARK    1  A    between atoms: C_1  and  C_2
REMARK    2  A    between atoms: C_8  and  C_9
REMARK    3  A    between atoms: C_9  and  S_10
REMARK    4  A    between atoms: S_10  and  C_11
REMARK    5  A    between atoms: C_14  and  C_15
REMARK    6  A    between atoms: C_22  and  C_23
REMARK                            x       y       z     vdW  Elec       q    Type
REMARK                         _______ _______ _______ _____ _____    ______ ____
ROOT
ATOM      1  C   UNL     1       7.480   6.300  17.210  0.00  0.00    +0.000 A 
ATOM      2  N   UNL     1       7.772   5.892  18.430  0.00  0.00    +0.000 NA
ATOM      3  N   UNL     1       8.259   7.008  19.105  0.00  0.00    +0.000 NA
ATOM      4  C   UNL     1       8.212   8.021  18.256  0.00  0.00    +0.000 A 
ATOM      5  O   UNL     1       7.716   7.631  17.038  0.00  0.00    +0.000 OA
ENDROOT
BRANCH   4   6
ATOM      6  C   UNL     1       8.654   9.364  18.510  0.00  0.00    +0.000 A 
ATOM      7  C   UNL     1       9.505   9.837  19.491  0.00  0.00    +0.000 A 
ATOM      8  C   UNL     1       9.769  11.247  19.364  0.00  0.00    +0.000 A 
ATOM      9  C   UNL     1       9.068  11.788  18.315  0.00  0.00    +0.000 A 
ATOM     10  S   UNL     1       8.129  10.638  17.488  0.00  0.00    +0.000 S 
ATOM     11  C   UNL     1       9.065  13.205  17.880  0.00  0.00    +0.000 C 
ATOM     12  C   UNL     1      10.056  14.088  18.639  0.00  0.00    +0.000 C 
ATOM     13  C   UNL     1      10.722  13.563  19.934  0.00  0.00    +0.000 C 
ATOM     14  C   UNL     1      10.219  14.346  21.153  0.00  0.00    +0.000 C 
ATOM     15  C   UNL     1      10.700  12.043  20.213  0.00  0.00    +0.000 C 
ENDBRANCH   4   6
BRANCH   1  16
ATOM     16  S   UNL     1       6.941   5.334  15.880  0.00  0.00    +0.000 S 
BRANCH  16  17
ATOM     17  C   UNL     1       5.287   5.998  15.559  0.00  0.00    +0.000 C 
BRANCH  17  25
ATOM     18  C   UNL     1       1.406   4.853  20.831  0.00  0.00    +0.000 C 
ATOM     19  C   UNL     1       2.070   3.992  19.787  0.00  0.00    +0.000 A 
ATOM     20  C   UNL     1       1.908   2.657  19.851  0.00  0.00    +0.000 A 
ATOM     21  C   UNL     1       2.472   1.791  18.857  0.00  0.00    +0.000 A 
ATOM     22  C   UNL     1       3.164   2.301  17.837  0.00  0.00    +0.000 A 
ATOM     23  C   UNL     1       3.394   3.769  17.752  0.00  0.00    +0.000 A 
ATOM     24  N   UNL     1       4.108   4.199  16.753  0.00  0.00    +0.000 NA
ATOM     25  C   UNL     1       4.372   5.542  16.682  0.00  0.00    +0.000 A 
ATOM     26  C   UNL     1       3.891   6.419  17.562  0.00  0.00    +0.000 A 
ATOM     27  C   UNL     1       3.061   5.941  18.685  0.00  0.00    +0.000 A 
ATOM     28  O   UNL     1       2.666   6.802  19.472  0.00  0.00    +0.000 OA
ATOM     29  N   UNL     1       2.834   4.571  18.747  0.00  0.00    +0.000 N 
ENDBRANCH  17  25
ENDBRANCH  16  17
ENDBRANCH   1  16
TORSDOF 4
ENDMDL
MODEL 6
REMARK VINA RESULT:      -8.7      1.783      2.148
REMARK  Name = 
REMARK  6 active torsions:
REMARK  status: ('A' for Active; 'I' for Inactive)
REMARK    1  A    between atoms: C_1  and  C_2
REMARK    2  A    between atoms: C_8  and  C_9
REMARK    3  A    between atoms: C_9  and  S_10
REMARK    4  A    between atoms: S_10  and  C_11
REMARK    5  A    between atoms: C_14  and  C_15
REMARK    6  A    between atoms: C_22  and  C_23
REMARK                            x       y       z     vdW  Elec       q    Type
REMARK                         _______ _______ _______ _____ _____    ______ ____
ROOT
ATOM      1  C   UNL     1       8.093   7.261  18.352  0.00  0.00    +0.000 A 
ATOM      2  N   UNL     1       7.490   7.730  17.276  0.00  0.00    +0.000 NA
ATOM      3  N   UNL     1       7.772   9.092  17.236  0.00  0.00    +0.000 NA
ATOM      4  C   UNL     1       8.541   9.355  18.278  0.00  0.00    +0.000 A 
ATOM      5  O   UNL     1       8.787   8.226  19.018  0.00  0.00    +0.000 OA
ENDROOT
BRANCH   4   6
ATOM      6  C   UNL     1       9.046  10.646  18.659  0.00  0.00    +0.000 A 
ATOM      7  C   UNL     1       9.258  11.769  17.881  0.00  0.00    +0.000 A 
ATOM      8  C   UNL     1       9.699  12.902  18.652  0.00  0.00    +0.000 A 
ATOM      9  C   UNL     1       9.845  12.571  19.976  0.00  0.00    +0.000 A 
ATOM     10  S   UNL     1       9.447  10.952  20.298  0.00  0.00    +0.000 S 
ATOM     11  C   UNL     1      10.297  13.461  21.073  0.00  0.00    +0.000 C 
ATOM     12  C   UNL     1      10.491  14.917  20.650  0.00  0.00    +0.000 C 
ATOM     13  C   UNL     1      10.514  15.288  19.147  0.00  0.00    +0.000 C 
ATOM     14  C   UNL     1      11.916  15.746  18.727  0.00  0.00    +0.000 C 
ATOM     15  C   UNL     1       9.941  14.276  18.128  0.00  0.00    +0.000 C 
ENDBRANCH   4   6
BRANCH   1  16
ATOM     16  S   UNL     1       8.010   5.655  18.987  0.00  0.00    +0.000 S 
BRANCH  16  17
ATOM     17  C   UNL     1       6.853   4.845  17.853  0.00  0.00    +0.000 C 
BRANCH  17  25
ATOM     18  C   UNL     1       0.845   5.729  20.551  0.00  0.00    +0.000 C 
ATOM     19  C   UNL     1       1.872   4.626  20.568  0.00  0.00    +0.000 A 
ATOM     20  C   UNL     1       1.610   3.511  21.277  0.00  0.00    +0.000 A 
ATOM     21  C   UNL     1       2.525   2.407  21.289  0.00  0.00    +0.000 A 
ATOM     22  C   UNL     1       3.656   2.463  20.583  0.00  0.00    +0.000 A 
ATOM     23  C   UNL     1       3.995   3.693  19.816  0.00  0.00    +0.000 A 
ATOM     24  N   UNL     1       5.129   3.698  19.179  0.00  0.00    +0.000 NA
ATOM     25  C   UNL     1       5.483   4.838  18.505  0.00  0.00    +0.000 A 
ATOM     26  C   UNL     1       4.696   5.911  18.441  0.00  0.00    +0.000 A 
ATOM     27  C   UNL     1       3.398   5.904  19.143  0.00  0.00    +0.000 A 
ATOM     28  O   UNL     1       2.731   6.935  19.059  0.00  0.00    +0.000 OA
ATOM     29  N   UNL     1       3.079   4.745  19.841  0.00  0.00    +0.000 N 
ENDBRANCH  17  25
ENDBRANCH  16  17
ENDBRANCH   1  16
TORSDOF 4
ENDMDL
MODEL 7
REMARK VINA RESULT:      -8.5      1.530      2.150
REMARK  Name = 
REMARK  6 active torsions:
REMARK  status: ('A' for Active; 'I' for Inactive)
REMARK    1  A    between atoms: C_1  and  C_2
REMARK    2  A    between atoms: C_8  and  C_9
REMARK    3  A    between atoms: C_9  and  S_10
REMARK    4  A    between atoms: S_10  and  C_11
REMARK    5  A    between atoms: C_14  and  C_15
REMARK    6  A    between atoms: C_22  and  C_23
REMARK                            x       y       z     vdW  Elec       q    Type
REMARK                         _______ _______ _______ _____ _____    ______ ____
ROOT
ATOM      1  C   UNL     1       7.478   6.225  17.182  0.00  0.00    +0.000 A 
ATOM      2  N   UNL     1       7.773   5.889  18.423  0.00  0.00    +0.000 NA
ATOM      3  N   UNL     1       8.225   7.051  19.042  0.00  0.00    +0.000 NA
ATOM      4  C   UNL     1       8.157   8.017  18.142  0.00  0.00    +0.000 A 
ATOM      5  O   UNL     1       7.680   7.551  16.943  0.00  0.00    +0.000 OA
ENDROOT
BRANCH   4   6
ATOM      6  C   UNL     1       8.561   9.383  18.329  0.00  0.00    +0.000 A 
ATOM      7  C   UNL     1       8.403  10.467  17.485  0.00  0.00    +0.000 A 
ATOM      8  C   UNL     1       8.871  11.697  18.070  0.00  0.00    +0.000 A 
ATOM      9  C   UNL     1       9.405  11.479  19.316  0.00  0.00    +0.000 A 
ATOM     10  S   UNL     1       9.333   9.849  19.787  0.00  0.00    +0.000 S 
ATOM     11  C   UNL     1      10.002  12.492  20.220  0.00  0.00    +0.000 C 
ATOM     12  C   UNL     1       9.875  13.928  19.711  0.00  0.00    +0.000 C 
ATOM     13  C   UNL     1       9.450  14.194  18.246  0.00  0.00    +0.000 C 
ATOM     14  C   UNL     1      10.615  14.792  17.448  0.00  0.00    +0.000 C 
ATOM     15  C   UNL     1       8.774  13.050  17.454  0.00  0.00    +0.000 C 
ENDBRANCH   4   6
BRANCH   1  16
ATOM     16  S   UNL     1       6.976   5.178  15.900  0.00  0.00    +0.000 S 
BRANCH  16  17
ATOM     17  C   UNL     1       5.318   5.798  15.516  0.00  0.00    +0.000 C 
BRANCH  17  25
ATOM     18  C   UNL     1       1.428   4.871  20.823  0.00  0.00    +0.000 C 
ATOM     19  C   UNL     1       2.038   3.974  19.776  0.00  0.00    +0.000 A 
ATOM     20  C   UNL     1       1.807   2.649  19.846  0.00  0.00    +0.000 A 
ATOM     21  C   UNL     1       2.317   1.753  18.850  0.00  0.00    +0.000 A 
ATOM     22  C   UNL     1       3.026   2.223  17.822  0.00  0.00    +0.000 A 
ATOM     23  C   UNL     1       3.331   3.677  17.731  0.00  0.00    +0.000 A 
ATOM     24  N   UNL     1       4.058   4.066  16.725  0.00  0.00    +0.000 NA
ATOM     25  C   UNL     1       4.391   5.394  16.647  0.00  0.00    +0.000 A 
ATOM     26  C   UNL     1       3.962   6.297  17.528  0.00  0.00    +0.000 A 
ATOM     27  C   UNL     1       3.118   5.866  18.659  0.00  0.00    +0.000 A 
ATOM     28  O   UNL     1       2.775   6.748  19.447  0.00  0.00    +0.000 OA
ATOM     29  N   UNL     1       2.822   4.510  18.728  0.00  0.00    +0.000 N 
ENDBRANCH  17  25
ENDBRANCH  16  17
ENDBRANCH   1  16
TORSDOF 4
ENDMDL
MODEL 8
REMARK VINA RESULT:      -8.4      1.888      2.547
REMARK  Name = 
REMARK  6 active torsions:
REMARK  status: ('A' for Active; 'I' for Inactive)
REMARK    1  A    between atoms: C_1  and  C_2
REMARK    2  A    between atoms: C_8  and  C_9
REMARK    3  A    between atoms: C_9  and  S_10
REMARK    4  A    between atoms: S_10  and  C_11
REMARK    5  A    between atoms: C_14  and  C_15
REMARK    6  A    between atoms: C_22  and  C_23
REMARK                            x       y       z     vdW  Elec       q    Type
REMARK                         _______ _______ _______ _____ _____    ______ ____
ROOT
ATOM      1  C   UNL     1       8.025   7.025  18.190  0.00  0.00    +0.000 A 
ATOM      2  N   UNL     1       7.466   7.523  17.104  0.00  0.00    +0.000 NA
ATOM      3  N   UNL     1       7.699   8.895  17.143  0.00  0.00    +0.000 NA
ATOM      4  C   UNL     1       8.398   9.134  18.240  0.00  0.00    +0.000 A 
ATOM      5  O   UNL     1       8.642   7.980  18.940  0.00  0.00    +0.000 OA
ENDROOT
BRANCH   4   6
ATOM      6  C   UNL     1       8.831  10.421  18.709  0.00  0.00    +0.000 A 
ATOM      7  C   UNL     1       9.429  10.763  19.907  0.00  0.00    +0.000 A 
ATOM      8  C   UNL     1       9.791  12.154  19.970  0.00  0.00    +0.000 A 
ATOM      9  C   UNL     1       9.408  12.816  18.829  0.00  0.00    +0.000 A 
ATOM     10  S   UNL     1       8.651  11.797  17.701  0.00  0.00    +0.000 S 
ATOM     11  C   UNL     1       9.591  14.257  18.529  0.00  0.00    +0.000 C 
ATOM     12  C   UNL     1      10.403  15.011  19.583  0.00  0.00    +0.000 C 
ATOM     13  C   UNL     1      10.690  14.351  20.954  0.00  0.00    +0.000 C 
ATOM     14  C   UNL     1       9.936  15.082  22.071  0.00  0.00    +0.000 C 
ATOM     15  C   UNL     1      10.518  12.820  21.088  0.00  0.00    +0.000 C 
ENDBRANCH   4   6
BRANCH   1  16
ATOM     16  S   UNL     1       7.966   5.387  18.745  0.00  0.00    +0.000 S 
BRANCH  16  17
ATOM     17  C   UNL     1       6.722   4.650  17.654  0.00  0.00    +0.000 C 
BRANCH  17  25
ATOM     18  C   UNL     1       0.858   5.803  20.561  0.00  0.00    +0.000 C 
ATOM     19  C   UNL     1       1.860   4.678  20.587  0.00  0.00    +0.000 A 
ATOM     20  C   UNL     1       1.606   3.604  21.359  0.00  0.00    +0.000 A 
ATOM     21  C   UNL     1       2.495   2.480  21.385  0.00  0.00    +0.000 A 
ATOM     22  C   UNL     1       3.595   2.475  20.629  0.00  0.00    +0.000 A 
ATOM     23  C   UNL     1       3.927   3.660  19.790  0.00  0.00    +0.000 A 
ATOM     24  N   UNL     1       5.032   3.608  19.106  0.00  0.00    +0.000 NA
ATOM     25  C   UNL     1       5.382   4.706  18.364  0.00  0.00    +0.000 A 
ATOM     26  C   UNL     1       4.616   5.794  18.283  0.00  0.00    +0.000 A 
ATOM     27  C   UNL     1       3.350   5.850  19.039  0.00  0.00    +0.000 A 
ATOM     28  O   UNL     1       2.703   6.893  18.934  0.00  0.00    +0.000 OA
ATOM     29  N   UNL     1       3.037   4.734  19.804  0.00  0.00    +0.000 N 
ENDBRANCH  17  25
ENDBRANCH  16  17
ENDBRANCH   1  16
TORSDOF 4
ENDMDL
MODEL 9
REMARK VINA RESULT:      -8.3      6.016      8.700
REMARK  Name = 
REMARK  6 active torsions:
REMARK  status: ('A' for Active; 'I' for Inactive)
REMARK    1  A    between atoms: C_1  and  C_2
REMARK    2  A    between atoms: C_8  and  C_9
REMARK    3  A    between atoms: C_9  and  S_10
REMARK    4  A    between atoms: S_10  and  C_11
REMARK    5  A    between atoms: C_14  and  C_15
REMARK    6  A    between atoms: C_22  and  C_23
REMARK                            x       y       z     vdW  Elec       q    Type
REMARK                         _______ _______ _______ _____ _____    ______ ____
ROOT
ATOM      1  C   UNL     1       3.512   5.863  19.192  0.00  0.00    +0.000 A 
ATOM      2  N   UNL     1       4.194   4.888  19.762  0.00  0.00    +0.000 NA
ATOM      3  N   UNL     1       4.989   4.335  18.762  0.00  0.00    +0.000 NA
ATOM      4  C   UNL     1       4.750   5.022  17.658  0.00  0.00    +0.000 A 
ATOM      5  O   UNL     1       3.826   6.013  17.875  0.00  0.00    +0.000 OA
ENDROOT
BRANCH   4   6
ATOM      6  C   UNL     1       5.321   4.777  16.363  0.00  0.00    +0.000 A 
ATOM      7  C   UNL     1       4.850   3.987  15.332  0.00  0.00    +0.000 A 
ATOM      8  C   UNL     1       5.672   4.065  14.153  0.00  0.00    +0.000 A 
ATOM      9  C   UNL     1       6.758   4.878  14.361  0.00  0.00    +0.000 A 
ATOM     10  S   UNL     1       6.788   5.549  15.922  0.00  0.00    +0.000 S 
ATOM     11  C   UNL     1       7.837   5.192  13.394  0.00  0.00    +0.000 C 
ATOM     12  C   UNL     1       7.601   4.619  11.996  0.00  0.00    +0.000 C 
ATOM     13  C   UNL     1       6.496   3.558  11.773  0.00  0.00    +0.000 C 
ATOM     14  C   UNL     1       7.118   2.199  11.425  0.00  0.00    +0.000 C 
ATOM     15  C   UNL     1       5.397   3.398  12.848  0.00  0.00    +0.000 C 
ENDBRANCH   4   6
BRANCH   1  16
ATOM     16  S   UNL     1       2.277   6.840  19.908  0.00  0.00    +0.000 S 
BRANCH  16  17
ATOM     17  C   UNL     1       2.136   8.213  18.736  0.00  0.00    +0.000 C 
BRANCH  17  25
ATOM     18  C   UNL     1      -2.035  13.095  20.450  0.00  0.00    +0.000 C 
ATOM     19  C   UNL     1      -1.387  11.941  21.171  0.00  0.00    +0.000 A 
ATOM     20  C   UNL     1      -1.642  11.774  22.483  0.00  0.00    +0.000 A 
ATOM     21  C   UNL     1      -1.096  10.666  23.211  0.00  0.00    +0.000 A 
ATOM     22  C   UNL     1      -0.328   9.768  22.592  0.00  0.00    +0.000 A 
ATOM     23  C   UNL     1       0.005   9.939  21.151  0.00  0.00    +0.000 A 
ATOM     24  N   UNL     1       0.788   9.050  20.615  0.00  0.00    +0.000 NA
ATOM     25  C   UNL     1       1.146   9.215  19.302  0.00  0.00    +0.000 A 
ATOM     26  C   UNL     1       0.687  10.215  18.551  0.00  0.00    +0.000 A 
ATOM     27  C   UNL     1      -0.220  11.215  19.146  0.00  0.00    +0.000 A 
ATOM     28  O   UNL     1      -0.589  12.123  18.401  0.00  0.00    +0.000 OA
ATOM     29  N   UNL     1      -0.542  11.038  20.486  0.00  0.00    +0.000 N 
ENDBRANCH  17  25
ENDBRANCH  16  17
ENDBRANCH   1  16
TORSDOF 4
ENDMDL
