MODEL 1
REMARK VINA RESULT:      -9.1      0.000      0.000
REMARK  Name = 
REMARK  5 active torsions:
REMARK  status: ('A' for Active; 'I' for Inactive)
REMARK    1  A    between atoms: C_2  and  C_3
REMARK    2  A    between atoms: C_3  and  C_4
REMARK    3  A    between atoms: C_4  and  C_5
REMARK    4  A    between atoms: C_7  and  C_8
REMARK    5  A    between atoms: N_16  and  C_17
REMARK                            x       y       z     vdW  Elec       q    Type
REMARK                         _______ _______ _______ _____ _____    ______ ____
ROOT
ATOM      1  O   UNL     1       0.650   4.499  20.302  0.00  0.00    +0.000 OA
ATOM      2  C   UNL     1       1.717   4.725  20.868  0.00  0.00    +0.000 C 
ATOM      3  N   UNL     1       2.487   5.870  20.747  0.00  0.00    +0.000 N 
ATOM      4  H   UNL     1       3.432   5.834  21.106  0.00  0.00    +0.000 HD
ENDROOT
BRANCH   3   5
ATOM      5  C   UNL     1       2.137   7.036  20.026  0.00  0.00    +0.000 A 
ATOM      6  C   UNL     1       2.501   7.240  18.693  0.00  0.00    +0.000 A 
ATOM      7  C   UNL     1       2.127   8.403  18.018  0.00  0.00    +0.000 A 
ATOM      8  C   UNL     1       1.378   9.369  18.677  0.00  0.00    +0.000 A 
ATOM      9  C   UNL     1       0.994   9.202  20.019  0.00  0.00    +0.000 A 
ATOM     10  C   UNL     1       1.375   8.020  20.678  0.00  0.00    +0.000 A 
ATOM     11  C   UNL     1       0.225  10.283  20.752  0.00  0.00    +0.000 C 
ATOM     12  C   UNL     1       0.972  11.625  20.808  0.00  0.00    +0.000 C 
ATOM     13  C   UNL     1       0.953  12.413  19.494  0.00  0.00    +0.000 C 
ATOM     14  C   UNL     1       1.682  11.676  18.389  0.00  0.00    +0.000 C 
ATOM     15  O   UNL     1       2.781  12.023  17.973  0.00  0.00    +0.000 OA
ATOM     16  N   UNL     1       1.008  10.536  17.964  0.00  0.00    +0.000 N 
ATOM     17  H   UNL     1       0.013  10.685  18.090  0.00  0.00    +0.000 HD
ENDBRANCH   3   5
BRANCH   2  18
ATOM     18  C   UNL     1       2.299   3.688  21.809  0.00  0.00    +0.000 C 
BRANCH  18  19
ATOM     19  C   UNL     1       2.624   2.394  21.070  0.00  0.00    +0.000 C 
BRANCH  19  20
ATOM     20  C   UNL     1       3.146   2.676  19.713  0.00  0.00    +0.000 A 
ATOM     21  N   UNL     1       4.173   3.408  19.361  0.00  0.00    +0.000 NA
ATOM     22  C   UNL     1       4.184   3.281  17.987  0.00  0.00    +0.000 A 
ATOM     23  N   UNL     1       3.222   2.465  17.520  0.00  0.00    +0.000 NA
ATOM     24  O   UNL     1       2.528   2.071  18.662  0.00  0.00    +0.000 OA
BRANCH  22  25
ATOM     25  C   UNL     1       5.172   3.973  17.153  0.00  0.00    +0.000 A 
ATOM     26  C   UNL     1       4.940   4.150  15.789  0.00  0.00    +0.000 A 
ATOM     27  C   UNL     1       5.907   4.794  15.021  0.00  0.00    +0.000 A 
ATOM     28  C   UNL     1       7.073   5.241  15.630  0.00  0.00    +0.000 A 
ATOM     29  C   UNL     1       7.225   5.032  16.991  0.00  0.00    +0.000 A 
ATOM     30  N   UNL     1       6.303   4.416  17.763  0.00  0.00    +0.000 NA
ENDBRANCH  22  25
ENDBRANCH  19  20
ENDBRANCH  18  19
ENDBRANCH   2  18
TORSDOF 5
ENDMDL
MODEL 2
REMARK VINA RESULT:      -8.8      6.177      8.003
REMARK  Name = 
REMARK  5 active torsions:
REMARK  status: ('A' for Active; 'I' for Inactive)
REMARK    1  A    between atoms: C_2  and  C_3
REMARK    2  A    between atoms: C_3  and  C_4
REMARK    3  A    between atoms: C_4  and  C_5
REMARK    4  A    between atoms: C_7  and  C_8
REMARK    5  A    between atoms: N_16  and  C_17
REMARK                            x       y       z     vdW  Elec       q    Type
REMARK                         _______ _______ _______ _____ _____    ______ ____
ROOT
ATOM      1  O   UNL     1       8.615   7.427  18.755  0.00  0.00    +0.000 OA
ATOM      2  C   UNL     1       7.920   8.123  18.017  0.00  0.00    +0.000 C 
ATOM      3  N   UNL     1       8.019   9.493  17.844  0.00  0.00    +0.000 N 
ATOM      4  H   UNL     1       7.256   9.956  17.367  0.00  0.00    +0.000 HD
ENDROOT
BRANCH   3   5
ATOM      5  C   UNL     1       9.005  10.335  18.410  0.00  0.00    +0.000 A 
ATOM      6  C   UNL     1       9.215  10.435  19.787  0.00  0.00    +0.000 A 
ATOM      7  C   UNL     1      10.205  11.275  20.301  0.00  0.00    +0.000 A 
ATOM      8  C   UNL     1      10.997  12.015  19.433  0.00  0.00    +0.000 A 
ATOM      9  C   UNL     1      10.816  11.942  18.042  0.00  0.00    +0.000 A 
ATOM     10  C   UNL     1       9.818  11.086  17.544  0.00  0.00    +0.000 A 
ATOM     11  C   UNL     1      11.644  12.794  17.101  0.00  0.00    +0.000 C 
ATOM     12  C   UNL     1      11.491  14.302  17.356  0.00  0.00    +0.000 C 
ATOM     13  C   UNL     1      12.247  14.814  18.586  0.00  0.00    +0.000 C 
ATOM     14  C   UNL     1      11.708  14.206  19.866  0.00  0.00    +0.000 C 
ATOM     15  O   UNL     1      11.032  14.840  20.667  0.00  0.00    +0.000 OA
ATOM     16  N   UNL     1      11.999  12.852  19.985  0.00  0.00    +0.000 N 
ATOM     17  H   UNL     1      12.871  12.666  19.502  0.00  0.00    +0.000 HD
ENDBRANCH   3   5
BRANCH   2  18
ATOM     18  C   UNL     1       6.833   7.473  17.183  0.00  0.00    +0.000 C 
BRANCH  18  19
ATOM     19  C   UNL     1       7.072   5.973  17.038  0.00  0.00    +0.000 C 
BRANCH  19  20
ATOM     20  C   UNL     1       6.153   5.205  17.908  0.00  0.00    +0.000 A 
ATOM     21  N   UNL     1       4.863   5.017  17.783  0.00  0.00    +0.000 NA
ATOM     22  C   UNL     1       4.564   4.211  18.862  0.00  0.00    +0.000 A 
ATOM     23  N   UNL     1       5.642   3.883  19.597  0.00  0.00    +0.000 NA
ATOM     24  O   UNL     1       6.694   4.548  18.971  0.00  0.00    +0.000 OA
BRANCH  22  25
ATOM     25  C   UNL     1       3.195   3.765  19.140  0.00  0.00    +0.000 A 
ATOM     26  C   UNL     1       2.801   3.475  20.446  0.00  0.00    +0.000 A 
ATOM     27  C   UNL     1       1.499   3.036  20.674  0.00  0.00    +0.000 A 
ATOM     28  C   UNL     1       0.630   2.897  19.599  0.00  0.00    +0.000 A 
ATOM     29  C   UNL     1       1.097   3.210  18.333  0.00  0.00    +0.000 A 
ATOM     30  N   UNL     1       2.351   3.644  18.081  0.00  0.00    +0.000 NA
ENDBRANCH  22  25
ENDBRANCH  19  20
ENDBRANCH  18  19
ENDBRANCH   2  18
TORSDOF 5
ENDMDL
MODEL 3
REMARK VINA RESULT:      -8.6      1.331      1.717
REMARK  Name = 
REMARK  5 active torsions:
REMARK  status: ('A' for Active; 'I' for Inactive)
REMARK    1  A    between atoms: C_2  and  C_3
REMARK    2  A    between atoms: C_3  and  C_4
REMARK    3  A    between atoms: C_4  and  C_5
REMARK    4  A    between atoms: C_7  and  C_8
REMARK    5  A    between atoms: N_16  and  C_17
REMARK                            x       y       z     vdW  Elec       q    Type
REMARK                         _______ _______ _______ _____ _____    ______ ____
ROOT
ATOM      1  O   UNL     1       0.907   4.393  19.607  0.00  0.00    +0.000 OA
ATOM      2  C   UNL     1       1.724   4.678  20.480  0.00  0.00    +0.000 C 
ATOM      3  N   UNL     1       2.306   5.917  20.690  0.00  0.00    +0.000 N 
ATOM      4  H   UNL     1       3.106   5.955  21.308  0.00  0.00    +0.000 HD
ENDROOT
BRANCH   3   5
ATOM      5  C   UNL     1       1.993   7.111  19.999  0.00  0.00    +0.000 A 
ATOM      6  C   UNL     1       2.373   7.342  18.675  0.00  0.00    +0.000 A 
ATOM      7  C   UNL     1       2.036   8.533  18.030  0.00  0.00    +0.000 A 
ATOM      8  C   UNL     1       1.308   9.501  18.710  0.00  0.00    +0.000 A 
ATOM      9  C   UNL     1       0.909   9.307  20.044  0.00  0.00    +0.000 A 
ATOM     10  C   UNL     1       1.252   8.097  20.672  0.00  0.00    +0.000 A 
ATOM     11  C   UNL     1       0.164  10.387  20.801  0.00  0.00    +0.000 C 
ATOM     12  C   UNL     1       0.947  11.706  20.900  0.00  0.00    +0.000 C 
ATOM     13  C   UNL     1       0.958  12.531  19.609  0.00  0.00    +0.000 C 
ATOM     14  C   UNL     1       1.676  11.805  18.488  0.00  0.00    +0.000 C 
ATOM     15  O   UNL     1       2.787  12.133  18.090  0.00  0.00    +0.000 OA
ATOM     16  N   UNL     1       0.975  10.696  18.027  0.00  0.00    +0.000 N 
ATOM     17  H   UNL     1      -0.017  10.868  18.150  0.00  0.00    +0.000 HD
ENDBRANCH   3   5
BRANCH   2  18
ATOM     18  C   UNL     1       2.174   3.612  21.459  0.00  0.00    +0.000 C 
BRANCH  18  19
ATOM     19  C   UNL     1       3.149   2.638  20.805  0.00  0.00    +0.000 C 
BRANCH  19  20
ATOM     20  C   UNL     1       3.970   3.321  19.778  0.00  0.00    +0.000 A 
ATOM     21  N   UNL     1       4.740   4.372  19.904  0.00  0.00    +0.000 NA
ATOM     22  C   UNL     1       5.258   4.527  18.635  0.00  0.00    +0.000 A 
ATOM     23  N   UNL     1       4.850   3.577  17.773  0.00  0.00    +0.000 NA
ATOM     24  O   UNL     1       3.990   2.782  18.528  0.00  0.00    +0.000 OA
BRANCH  22  25
ATOM     25  C   UNL     1       6.170   5.625  18.299  0.00  0.00    +0.000 A 
ATOM     26  C   UNL     1       7.374   5.773  18.987  0.00  0.00    +0.000 A 
ATOM     27  C   UNL     1       8.211   6.837  18.658  0.00  0.00    +0.000 A 
ATOM     28  C   UNL     1       7.824   7.721  17.658  0.00  0.00    +0.000 A 
ATOM     29  C   UNL     1       6.615   7.502  17.019  0.00  0.00    +0.000 A 
ATOM     30  N   UNL     1       5.786   6.476  17.312  0.00  0.00    +0.000 NA
ENDBRANCH  22  25
ENDBRANCH  19  20
ENDBRANCH  18  19
ENDBRANCH   2  18
TORSDOF 5
ENDMDL
MODEL 4
REMARK VINA RESULT:      -8.6      6.227      7.890
REMARK  Name = 
REMARK  5 active torsions:
REMARK  status: ('A' for Active; 'I' for Inactive)
REMARK    1  A    between atoms: C_2  and  C_3
REMARK    2  A    between atoms: C_3  and  C_4
REMARK    3  A    between atoms: C_4  and  C_5
REMARK    4  A    between atoms: C_7  and  C_8
REMARK    5  A    between atoms: N_16  and  C_17
REMARK                            x       y       z     vdW  Elec       q    Type
REMARK                         _______ _______ _______ _____ _____    ______ ____
ROOT
ATOM      1  O   UNL     1       7.664   9.566  17.609  0.00  0.00    +0.000 OA
ATOM      2  C   UNL     1       8.334   8.845  18.346  0.00  0.00    +0.000 C 
ATOM      3  N   UNL     1       9.320   9.256  19.227  0.00  0.00    +0.000 N 
ATOM      4  H   UNL     1       9.923   8.542  19.614  0.00  0.00    +0.000 HD
ENDROOT
BRANCH   3   5
ATOM      5  C   UNL     1       9.671  10.595  19.517  0.00  0.00    +0.000 A 
ATOM      6  C   UNL     1       9.271  11.247  20.686  0.00  0.00    +0.000 A 
ATOM      7  C   UNL     1       9.647  12.568  20.934  0.00  0.00    +0.000 A 
ATOM      8  C   UNL     1      10.436  13.243  20.011  0.00  0.00    +0.000 A 
ATOM      9  C   UNL     1      10.857  12.623  18.823  0.00  0.00    +0.000 A 
ATOM     10  C   UNL     1      10.473  11.289  18.596  0.00  0.00    +0.000 A 
ATOM     11  C   UNL     1      11.669  13.379  17.791  0.00  0.00    +0.000 C 
ATOM     12  C   UNL     1      10.952  14.627  17.252  0.00  0.00    +0.000 C 
ATOM     13  C   UNL     1      10.948  15.818  18.216  0.00  0.00    +0.000 C 
ATOM     14  C   UNL     1      10.170  15.511  19.480  0.00  0.00    +0.000 C 
ATOM     15  O   UNL     1       9.067  15.989  19.713  0.00  0.00    +0.000 OA
ATOM     16  N   UNL     1      10.808  14.581  20.294  0.00  0.00    +0.000 N 
ATOM     17  H   UNL     1      11.809  14.668  20.160  0.00  0.00    +0.000 HD
ENDBRANCH   3   5
BRANCH   2  18
ATOM     18  C   UNL     1       8.101   7.346  18.338  0.00  0.00    +0.000 C 
BRANCH  18  19
ATOM     19  C   UNL     1       6.898   6.980  17.474  0.00  0.00    +0.000 C 
BRANCH  19  20
ATOM     20  C   UNL     1       6.100   5.905  18.107  0.00  0.00    +0.000 A 
ATOM     21  N   UNL     1       4.803   5.727  18.097  0.00  0.00    +0.000 NA
ATOM     22  C   UNL     1       4.647   4.563  18.823  0.00  0.00    +0.000 A 
ATOM     23  N   UNL     1       5.814   4.026  19.225  0.00  0.00    +0.000 NA
ATOM     24  O   UNL     1       6.776   4.919  18.758  0.00  0.00    +0.000 OA
BRANCH  22  25
ATOM     25  C   UNL     1       3.325   3.992  19.096  0.00  0.00    +0.000 A 
ATOM     26  C   UNL     1       2.387   3.869  18.071  0.00  0.00    +0.000 A 
ATOM     27  C   UNL     1       1.133   3.339  18.367  0.00  0.00    +0.000 A 
ATOM     28  C   UNL     1       0.850   2.951  19.671  0.00  0.00    +0.000 A 
ATOM     29  C   UNL     1       1.838   3.100  20.630  0.00  0.00    +0.000 A 
ATOM     30  N   UNL     1       3.064   3.605  20.372  0.00  0.00    +0.000 NA
ENDBRANCH  22  25
ENDBRANCH  19  20
ENDBRANCH  18  19
ENDBRANCH   2  18
TORSDOF 5
ENDMDL
MODEL 5
REMARK VINA RESULT:      -8.6      5.846      8.720
REMARK  Name = 
REMARK  5 active torsions:
REMARK  status: ('A' for Active; 'I' for Inactive)
REMARK    1  A    between atoms: C_2  and  C_3
REMARK    2  A    between atoms: C_3  and  C_4
REMARK    3  A    between atoms: C_4  and  C_5
REMARK    4  A    between atoms: C_7  and  C_8
REMARK    5  A    between atoms: N_16  and  C_17
REMARK                            x       y       z     vdW  Elec       q    Type
REMARK                         _______ _______ _______ _____ _____    ______ ____
ROOT
ATOM      1  O   UNL     1       7.304   5.803  19.286  0.00  0.00    +0.000 OA
ATOM      2  C   UNL     1       7.186   6.633  18.388  0.00  0.00    +0.000 C 
ATOM      3  N   UNL     1       6.082   6.814  17.572  0.00  0.00    +0.000 N 
ATOM      4  H   UNL     1       6.202   7.390  16.749  0.00  0.00    +0.000 HD
ENDROOT
BRANCH   3   5
ATOM      5  C   UNL     1       4.844   6.140  17.686  0.00  0.00    +0.000 A 
ATOM      6  C   UNL     1       3.639   6.804  17.925  0.00  0.00    +0.000 A 
ATOM      7  C   UNL     1       2.439   6.098  18.024  0.00  0.00    +0.000 A 
ATOM      8  C   UNL     1       2.439   4.717  17.876  0.00  0.00    +0.000 A 
ATOM      9  C   UNL     1       3.631   4.012  17.635  0.00  0.00    +0.000 A 
ATOM     10  C   UNL     1       4.828   4.743  17.533  0.00  0.00    +0.000 A 
ATOM     11  C   UNL     1       3.637   2.501  17.530  0.00  0.00    +0.000 C 
ATOM     12  C   UNL     1       3.113   1.804  18.796  0.00  0.00    +0.000 C 
ATOM     13  C   UNL     1       1.591   1.850  18.958  0.00  0.00    +0.000 C 
ATOM     14  C   UNL     1       1.090   3.270  19.133  0.00  0.00    +0.000 C 
ATOM     15  O   UNL     1       0.693   3.707  20.206  0.00  0.00    +0.000 OA
ATOM     16  N   UNL     1       1.204   4.029  17.973  0.00  0.00    +0.000 N 
ATOM     17  H   UNL     1       1.119   3.411  17.174  0.00  0.00    +0.000 HD
ENDBRANCH   3   5
BRANCH   2  18
ATOM     18  C   UNL     1       8.328   7.589  18.099  0.00  0.00    +0.000 C 
BRANCH  18  19
ATOM     19  C   UNL     1       7.810   8.990  17.792  0.00  0.00    +0.000 C 
BRANCH  19  20
ATOM     20  C   UNL     1       8.712  10.022  18.353  0.00  0.00    +0.000 A 
ATOM     21  N   UNL     1       9.077  11.168  17.836  0.00  0.00    +0.000 NA
ATOM     22  C   UNL     1       9.894  11.700  18.812  0.00  0.00    +0.000 A 
ATOM     23  N   UNL     1       9.991  10.923  19.907  0.00  0.00    +0.000 NA
ATOM     24  O   UNL     1       9.215   9.808  19.600  0.00  0.00    +0.000 OA
BRANCH  22  25
ATOM     25  C   UNL     1      10.563  12.994  18.642  0.00  0.00    +0.000 A 
ATOM     26  C   UNL     1      11.080  13.668  19.748  0.00  0.00    +0.000 A 
ATOM     27  C   UNL     1      11.693  14.904  19.555  0.00  0.00    +0.000 A 
ATOM     28  C   UNL     1      11.772  15.431  18.272  0.00  0.00    +0.000 A 
ATOM     29  C   UNL     1      11.239  14.696  17.226  0.00  0.00    +0.000 A 
ATOM     30  N   UNL     1      10.644  13.493  17.381  0.00  0.00    +0.000 NA
ENDBRANCH  22  25
ENDBRANCH  19  20
ENDBRANCH  18  19
ENDBRANCH   2  18
TORSDOF 5
ENDMDL
MODEL 6
REMARK VINA RESULT:      -8.6      6.027      7.842
REMARK  Name = 
REMARK  5 active torsions:
REMARK  status: ('A' for Active; 'I' for Inactive)
REMARK    1  A    between atoms: C_2  and  C_3
REMARK    2  A    between atoms: C_3  and  C_4
REMARK    3  A    between atoms: C_4  and  C_5
REMARK    4  A    between atoms: C_7  and  C_8
REMARK    5  A    between atoms: N_16  and  C_17
REMARK                            x       y       z     vdW  Elec       q    Type
REMARK                         _______ _______ _______ _____ _____    ______ ____
ROOT
ATOM      1  O   UNL     1       7.882   9.047  17.270  0.00  0.00    +0.000 OA
ATOM      2  C   UNL     1       8.305   8.457  18.262  0.00  0.00    +0.000 C 
ATOM      3  N   UNL     1       9.093   8.993  19.266  0.00  0.00    +0.000 N 
ATOM      4  H   UNL     1       9.531   8.346  19.907  0.00  0.00    +0.000 HD
ENDROOT
BRANCH   3   5
ATOM      5  C   UNL     1       9.478  10.350  19.388  0.00  0.00    +0.000 A 
ATOM      6  C   UNL     1       9.027  11.175  20.420  0.00  0.00    +0.000 A 
ATOM      7  C   UNL     1       9.439  12.507  20.503  0.00  0.00    +0.000 A 
ATOM      8  C   UNL     1      10.314  13.017  19.553  0.00  0.00    +0.000 A 
ATOM      9  C   UNL     1      10.789  12.218  18.499  0.00  0.00    +0.000 A 
ATOM     10  C   UNL     1      10.367  10.878  18.437  0.00  0.00    +0.000 A 
ATOM     11  C   UNL     1      11.698  12.792  17.432  0.00  0.00    +0.000 C 
ATOM     12  C   UNL     1      11.069  13.970  16.670  0.00  0.00    +0.000 C 
ATOM     13  C   UNL     1      11.048  15.288  17.452  0.00  0.00    +0.000 C 
ATOM     14  C   UNL     1      10.176  15.191  18.688  0.00  0.00    +0.000 C 
ATOM     15  O   UNL     1       9.080  15.730  18.770  0.00  0.00    +0.000 OA
ATOM     16  N   UNL     1      10.719  14.369  19.669  0.00  0.00    +0.000 N 
ATOM     17  H   UNL     1      11.730  14.406  19.597  0.00  0.00    +0.000 HD
ENDBRANCH   3   5
BRANCH   2  18
ATOM     18  C   UNL     1       7.956   6.995  18.467  0.00  0.00    +0.000 C 
BRANCH  18  19
ATOM     19  C   UNL     1       7.208   6.432  17.262  0.00  0.00    +0.000 C 
BRANCH  19  20
ATOM     20  C   UNL     1       5.841   6.007  17.641  0.00  0.00    +0.000 A 
ATOM     21  N   UNL     1       5.455   5.293  18.669  0.00  0.00    +0.000 NA
ATOM     22  C   UNL     1       4.085   5.243  18.509  0.00  0.00    +0.000 A 
ATOM     23  N   UNL     1       3.646   5.938  17.443  0.00  0.00    +0.000 NA
ATOM     24  O   UNL     1       4.810   6.437  16.863  0.00  0.00    +0.000 OA
BRANCH  22  25
ATOM     25  C   UNL     1       3.224   4.505  19.439  0.00  0.00    +0.000 A 
ATOM     26  C   UNL     1       1.947   4.978  19.740  0.00  0.00    +0.000 A 
ATOM     27  C   UNL     1       1.161   4.264  20.642  0.00  0.00    +0.000 A 
ATOM     28  C   UNL     1       1.668   3.105  21.216  0.00  0.00    +0.000 A 
ATOM     29  C   UNL     1       2.944   2.699  20.861  0.00  0.00    +0.000 A 
ATOM     30  N   UNL     1       3.727   3.367  19.986  0.00  0.00    +0.000 NA
ENDBRANCH  22  25
ENDBRANCH  19  20
ENDBRANCH  18  19
ENDBRANCH   2  18
TORSDOF 5
ENDMDL
MODEL 7
REMARK VINA RESULT:      -8.6      6.045      7.865
REMARK  Name = 
REMARK  5 active torsions:
REMARK  status: ('A' for Active; 'I' for Inactive)
REMARK    1  A    between atoms: C_2  and  C_3
REMARK    2  A    between atoms: C_3  and  C_4
REMARK    3  A    between atoms: C_4  and  C_5
REMARK    4  A    between atoms: C_7  and  C_8
REMARK    5  A    between atoms: N_16  and  C_17
REMARK                            x       y       z     vdW  Elec       q    Type
REMARK                         _______ _______ _______ _____ _____    ______ ____
ROOT
ATOM      1  O   UNL     1       8.653   7.353  18.960  0.00  0.00    +0.000 OA
ATOM      2  C   UNL     1       8.001   7.979  18.127  0.00  0.00    +0.000 C 
ATOM      3  N   UNL     1       8.064   9.340  17.884  0.00  0.00    +0.000 N 
ATOM      4  H   UNL     1       7.329   9.745  17.318  0.00  0.00    +0.000 HD
ENDROOT
BRANCH   3   5
ATOM      5  C   UNL     1       8.965  10.252  18.483  0.00  0.00    +0.000 A 
ATOM      6  C   UNL     1       9.089  10.395  19.866  0.00  0.00    +0.000 A 
ATOM      7  C   UNL     1       9.997  11.303  20.414  0.00  0.00    +0.000 A 
ATOM      8  C   UNL     1      10.794  12.069  19.573  0.00  0.00    +0.000 A 
ATOM      9  C   UNL     1      10.699  11.955  18.176  0.00  0.00    +0.000 A 
ATOM     10  C   UNL     1       9.782  11.029  17.645  0.00  0.00    +0.000 A 
ATOM     11  C   UNL     1      11.529  12.832  17.261  0.00  0.00    +0.000 C 
ATOM     12  C   UNL     1      11.274  14.334  17.467  0.00  0.00    +0.000 C 
ATOM     13  C   UNL     1      11.927  14.917  18.724  0.00  0.00    +0.000 C 
ATOM     14  C   UNL     1      11.351  14.308  19.987  0.00  0.00    +0.000 C 
ATOM     15  O   UNL     1      10.594  14.918  20.733  0.00  0.00    +0.000 OA
ATOM     16  N   UNL     1      11.712  12.976  20.158  0.00  0.00    +0.000 N 
ATOM     17  H   UNL     1      12.621  12.831  19.731  0.00  0.00    +0.000 HD
ENDBRANCH   3   5
BRANCH   2  18
ATOM     18  C   UNL     1       7.015   7.240  17.242  0.00  0.00    +0.000 C 
BRANCH  18  19
ATOM     19  C   UNL     1       7.241   5.732  17.304  0.00  0.00    +0.000 C 
BRANCH  19  20
ATOM     20  C   UNL     1       5.971   5.019  17.574  0.00  0.00    +0.000 A 
ATOM     21  N   UNL     1       5.249   5.006  18.666  0.00  0.00    +0.000 NA
ATOM     22  C   UNL     1       4.184   4.199  18.320  0.00  0.00    +0.000 A 
ATOM     23  N   UNL     1       4.233   3.768  17.046  0.00  0.00    +0.000 NA
ATOM     24  O   UNL     1       5.422   4.305  16.554  0.00  0.00    +0.000 OA
BRANCH  22  25
ATOM     25  C   UNL     1       3.116   3.876  19.272  0.00  0.00    +0.000 A 
ATOM     26  C   UNL     1       2.179   4.844  19.631  0.00  0.00    +0.000 A 
ATOM     27  C   UNL     1       1.188   4.512  20.552  0.00  0.00    +0.000 A 
ATOM     28  C   UNL     1       1.160   3.230  21.087  0.00  0.00    +0.000 A 
ATOM     29  C   UNL     1       2.123   2.324  20.674  0.00  0.00    +0.000 A 
ATOM     30  N   UNL     1       3.092   2.616  19.779  0.00  0.00    +0.000 NA
ENDBRANCH  22  25
ENDBRANCH  19  20
ENDBRANCH  18  19
ENDBRANCH   2  18
TORSDOF 5
ENDMDL
MODEL 8
REMARK VINA RESULT:      -8.5      2.346      3.237
REMARK  Name = 
REMARK  5 active torsions:
REMARK  status: ('A' for Active; 'I' for Inactive)
REMARK    1  A    between atoms: C_2  and  C_3
REMARK    2  A    between atoms: C_3  and  C_4
REMARK    3  A    between atoms: C_4  and  C_5
REMARK    4  A    between atoms: C_7  and  C_8
REMARK    5  A    between atoms: N_16  and  C_17
REMARK                            x       y       z     vdW  Elec       q    Type
REMARK                         _______ _______ _______ _____ _____    ______ ____
ROOT
ATOM      1  O   UNL     1       1.980   4.921  18.355  0.00  0.00    +0.000 OA
ATOM      2  C   UNL     1       2.917   5.188  19.103  0.00  0.00    +0.000 C 
ATOM      3  N   UNL     1       3.101   6.368  19.804  0.00  0.00    +0.000 N 
ATOM      4  H   UNL     1       4.011   6.526  20.215  0.00  0.00    +0.000 HD
ENDROOT
BRANCH   3   5
ATOM      5  C   UNL     1       2.191   7.450  19.866  0.00  0.00    +0.000 A 
ATOM      6  C   UNL     1       2.102   8.422  18.867  0.00  0.00    +0.000 A 
ATOM      7  C   UNL     1       1.184   9.469  18.967  0.00  0.00    +0.000 A 
ATOM      8  C   UNL     1       0.342   9.543  20.069  0.00  0.00    +0.000 A 
ATOM      9  C   UNL     1       0.402   8.585  21.095  0.00  0.00    +0.000 A 
ATOM     10  C   UNL     1       1.330   7.535  20.972  0.00  0.00    +0.000 A 
ATOM     11  C   UNL     1      -0.478   8.699  22.323  0.00  0.00    +0.000 C 
ATOM     12  C   UNL     1      -0.260  10.005  23.104  0.00  0.00    +0.000 C 
ATOM     13  C   UNL     1      -0.894  11.240  22.457  0.00  0.00    +0.000 C 
ATOM     14  C   UNL     1      -0.266  11.551  21.113  0.00  0.00    +0.000 C 
ATOM     15  O   UNL     1       0.493  12.496  20.938  0.00  0.00    +0.000 OA
ATOM     16  N   UNL     1      -0.585  10.612  20.138  0.00  0.00    +0.000 N 
ATOM     17  H   UNL     1      -1.500  10.229  20.347  0.00  0.00    +0.000 HD
ENDBRANCH   3   5
BRANCH   2  18
ATOM     18  C   UNL     1       4.010   4.161  19.328  0.00  0.00    +0.000 C 
BRANCH  18  19
ATOM     19  C   UNL     1       5.391   4.808  19.284  0.00  0.00    +0.000 C 
BRANCH  19  20
ATOM     20  C   UNL     1       5.764   5.165  17.896  0.00  0.00    +0.000 A 
ATOM     21  N   UNL     1       5.916   4.384  16.856  0.00  0.00    +0.000 NA
ATOM     22  C   UNL     1       6.237   5.271  15.849  0.00  0.00    +0.000 A 
ATOM     23  N   UNL     1       6.239   6.555  16.252  0.00  0.00    +0.000 NA
ATOM     24  O   UNL     1       5.933   6.485  17.610  0.00  0.00    +0.000 OA
BRANCH  22  25
ATOM     25  C   UNL     1       6.528   4.822  14.485  0.00  0.00    +0.000 A 
ATOM     26  C   UNL     1       7.564   5.407  13.758  0.00  0.00    +0.000 A 
ATOM     27  C   UNL     1       7.803   4.971  12.456  0.00  0.00    +0.000 A 
ATOM     28  C   UNL     1       7.004   3.969  11.918  0.00  0.00    +0.000 A 
ATOM     29  C   UNL     1       5.999   3.435  12.707  0.00  0.00    +0.000 A 
ATOM     30  N   UNL     1       5.747   3.833  13.973  0.00  0.00    +0.000 NA
ENDBRANCH  22  25
ENDBRANCH  19  20
ENDBRANCH  18  19
ENDBRANCH   2  18
TORSDOF 5
ENDMDL
MODEL 9
REMARK VINA RESULT:      -8.5      1.762      2.393
REMARK  Name = 
REMARK  5 active torsions:
REMARK  status: ('A' for Active; 'I' for Inactive)
REMARK    1  A    between atoms: C_2  and  C_3
REMARK    2  A    between atoms: C_3  and  C_4
REMARK    3  A    between atoms: C_4  and  C_5
REMARK    4  A    between atoms: C_7  and  C_8
REMARK    5  A    between atoms: N_16  and  C_17
REMARK                            x       y       z     vdW  Elec       q    Type
REMARK                         _______ _______ _______ _____ _____    ______ ____
ROOT
ATOM      1  O   UNL     1       1.537   4.623  19.266  0.00  0.00    +0.000 OA
ATOM      2  C   UNL     1       2.708   4.953  19.438  0.00  0.00    +0.000 C 
ATOM      3  N   UNL     1       3.230   6.231  19.321  0.00  0.00    +0.000 N 
ATOM      4  H   UNL     1       4.237   6.319  19.290  0.00  0.00    +0.000 HD
ENDROOT
BRANCH   3   5
ATOM      5  C   UNL     1       2.491   7.412  19.078  0.00  0.00    +0.000 A 
ATOM      6  C   UNL     1       2.518   8.083  17.853  0.00  0.00    +0.000 A 
ATOM      7  C   UNL     1       1.766   9.243  17.655  0.00  0.00    +0.000 A 
ATOM      8  C   UNL     1       0.976   9.734  18.686  0.00  0.00    +0.000 A 
ATOM      9  C   UNL     1       0.923   9.088  19.933  0.00  0.00    +0.000 A 
ATOM     10  C   UNL     1       1.682   7.917  20.109  0.00  0.00    +0.000 A 
ATOM     11  C   UNL     1       0.104   9.657  21.073  0.00  0.00    +0.000 C 
ATOM     12  C   UNL     1       0.532  11.077  21.477  0.00  0.00    +0.000 C 
ATOM     13  C   UNL     1       0.069  12.174  20.512  0.00  0.00    +0.000 C 
ATOM     14  C   UNL     1       0.698  12.016  19.142  0.00  0.00    +0.000 C 
ATOM     15  O   UNL     1       1.583  12.755  18.730  0.00  0.00    +0.000 OA
ATOM     16  N   UNL     1       0.218  10.908  18.452  0.00  0.00    +0.000 N 
ATOM     17  H   UNL     1      -0.737  10.735  18.745  0.00  0.00    +0.000 HD
ENDBRANCH   3   5
BRANCH   2  18
ATOM     18  C   UNL     1       3.732   3.903  19.826  0.00  0.00    +0.000 C 
BRANCH  18  19
ATOM     19  C   UNL     1       4.035   2.971  18.657  0.00  0.00    +0.000 C 
BRANCH  19  20
ATOM     20  C   UNL     1       4.952   3.617  17.690  0.00  0.00    +0.000 A 
ATOM     21  N   UNL     1       5.045   3.439  16.396  0.00  0.00    +0.000 NA
ATOM     22  C   UNL     1       6.045   4.319  16.036  0.00  0.00    +0.000 A 
ATOM     23  N   UNL     1       6.517   5.041  17.069  0.00  0.00    +0.000 NA
ATOM     24  O   UNL     1       5.799   4.571  18.167  0.00  0.00    +0.000 OA
BRANCH  22  25
ATOM     25  C   UNL     1       6.512   4.437  14.651  0.00  0.00    +0.000 A 
ATOM     26  C   UNL     1       5.926   3.669  13.645  0.00  0.00    +0.000 A 
ATOM     27  C   UNL     1       6.404   3.790  12.342  0.00  0.00    +0.000 A 
ATOM     28  C   UNL     1       7.449   4.667  12.081  0.00  0.00    +0.000 A 
ATOM     29  C   UNL     1       7.973   5.398  13.134  0.00  0.00    +0.000 A 
ATOM     30  N   UNL     1       7.527   5.306  14.406  0.00  0.00    +0.000 NA
ENDBRANCH  22  25
ENDBRANCH  19  20
ENDBRANCH  18  19
ENDBRANCH   2  18
TORSDOF 5
ENDMDL
