MODEL 1
REMARK VINA RESULT:      -8.8      0.000      0.000
REMARK  Name = 
REMARK  5 active torsions:
REMARK  status: ('A' for Active; 'I' for Inactive)
REMARK    1  A    between atoms: C_2  and  C_15
REMARK    2  A    between atoms: N_3  and  C_4
REMARK    3  A    between atoms: C_19  and  C_20
REMARK    4  A    between atoms: C_24  and  O_25
REMARK    5  A    between atoms: O_25  and  C_26
REMARK                            x       y       z     vdW  Elec       q    Type
REMARK                         _______ _______ _______ _____ _____    ______ ____
ROOT
ATOM      1  C   UNL     1       1.468   8.737  20.151  0.00  0.00    +0.000 A 
ATOM      2  C   UNL     1       1.615   8.048  21.345  0.00  0.00    +0.000 A 
ATOM      3  N   UNL     1       1.138   8.863  22.321  0.00  0.00    +0.000 N 
ATOM      4  N   UNL     1       0.662  10.022  21.863  0.00  0.00    +0.000 NA
ATOM      5  C   UNL     1       0.825   9.966  20.527  0.00  0.00    +0.000 A 
ATOM      6  H   UNL     1       1.102   8.694  23.321  0.00  0.00    +0.000 HD
ENDROOT
BRANCH   5   7
ATOM      7  C   UNL     1       0.306  11.060  19.691  0.00  0.00    +0.000 A 
ATOM      8  C   UNL     1       1.007  12.263  19.546  0.00  0.00    +0.000 A 
ATOM      9  C   UNL     1       0.523  13.279  18.719  0.00  0.00    +0.000 A 
ATOM     10  C   UNL     1      -0.664  13.104  18.008  0.00  0.00    +0.000 A 
ATOM     11  C   UNL     1      -1.375  11.910  18.130  0.00  0.00    +0.000 A 
ATOM     12  C   UNL     1      -0.881  10.893  18.956  0.00  0.00    +0.000 A 
BRANCH  11  13
ATOM     13  O   UNL     1      -2.529  11.608  17.461  0.00  0.00    +0.000 OA
BRANCH  13  14
ATOM     14  C   UNL     1      -2.411  10.620  16.452  0.00  0.00    +0.000 C 
ATOM     15  F   UNL     1      -3.291   9.620  16.707  0.00  0.00    +0.000 F 
ATOM     16  F   UNL     1      -2.798  11.189  15.282  0.00  0.00    +0.000 F 
ENDBRANCH  13  14
ENDBRANCH  11  13
ENDBRANCH   5   7
BRANCH   1  18
ATOM     17  O   UNL     1       1.720   8.893  17.802  0.00  0.00    +0.000 OA
ATOM     18  C   UNL     1       1.898   8.265  18.842  0.00  0.00    +0.000 C 
ATOM     19  N   UNL     1       2.505   7.031  18.869  0.00  0.00    +0.000 N 
ATOM     20  H   UNL     1       2.596   6.549  19.753  0.00  0.00    +0.000 HD
BRANCH  19  21
ATOM     21  C   UNL     1       2.996   6.353  17.676  0.00  0.00    +0.000 C 
ATOM     22  C   UNL     1       4.476   6.681  17.465  0.00  0.00    +0.000 C 
ATOM     23  C   UNL     1       5.070   5.671  16.500  0.00  0.00    +0.000 C 
ATOM     24  O   UNL     1       5.060   4.357  17.067  0.00  0.00    +0.000 OA
ATOM     25  C   UNL     1       3.840   3.968  17.552  0.00  0.00    +0.000 A 
ATOM     26  C   UNL     1       3.692   2.603  17.816  0.00  0.00    +0.000 A 
ATOM     27  C   UNL     1       2.481   2.112  18.303  0.00  0.00    +0.000 A 
ATOM     28  C   UNL     1       1.419   2.986  18.491  0.00  0.00    +0.000 A 
ATOM     29  F   UNL     1       0.249   2.518  18.943  0.00  0.00    +0.000 F 
ATOM     30  C   UNL     1       1.559   4.347  18.241  0.00  0.00    +0.000 A 
ATOM     31  C   UNL     1       2.795   4.862  17.818  0.00  0.00    +0.000 A 
ENDBRANCH  19  21
ENDBRANCH   1  18
TORSDOF 5
ENDMDL
MODEL 2
REMARK VINA RESULT:      -8.8      3.653      8.262
REMARK  Name = 
REMARK  5 active torsions:
REMARK  status: ('A' for Active; 'I' for Inactive)
REMARK    1  A    between atoms: C_2  and  C_15
REMARK    2  A    between atoms: N_3  and  C_4
REMARK    3  A    between atoms: C_19  and  C_20
REMARK    4  A    between atoms: C_24  and  O_25
REMARK    5  A    between atoms: O_25  and  C_26
REMARK                            x       y       z     vdW  Elec       q    Type
REMARK                         _______ _______ _______ _____ _____    ______ ____
ROOT
ATOM      1  C   UNL     1       2.524   5.416  19.361  0.00  0.00    +0.000 A 
ATOM      2  C   UNL     1       1.667   4.810  20.265  0.00  0.00    +0.000 A 
ATOM      3  N   UNL     1       1.920   3.477  20.203  0.00  0.00    +0.000 N 
ATOM      4  N   UNL     1       2.894   3.159  19.349  0.00  0.00    +0.000 NA
ATOM      5  C   UNL     1       3.308   4.332  18.833  0.00  0.00    +0.000 A 
ATOM      6  H   UNL     1       1.468   2.726  20.714  0.00  0.00    +0.000 HD
ENDROOT
BRANCH   5   7
ATOM      7  C   UNL     1       4.459   4.351  17.917  0.00  0.00    +0.000 A 
ATOM      8  C   UNL     1       4.360   3.856  16.610  0.00  0.00    +0.000 A 
ATOM      9  C   UNL     1       5.448   3.916  15.738  0.00  0.00    +0.000 A 
ATOM     10  C   UNL     1       6.653   4.485  16.149  0.00  0.00    +0.000 A 
ATOM     11  C   UNL     1       6.772   4.992  17.444  0.00  0.00    +0.000 A 
ATOM     12  C   UNL     1       5.674   4.937  18.312  0.00  0.00    +0.000 A 
BRANCH  11  13
ATOM     13  O   UNL     1       7.885   5.603  17.951  0.00  0.00    +0.000 OA
BRANCH  13  14
ATOM     14  C   UNL     1       7.766   6.995  18.188  0.00  0.00    +0.000 C 
ATOM     15  F   UNL     1       8.781   7.396  18.993  0.00  0.00    +0.000 F 
ATOM     16  F   UNL     1       7.944   7.623  16.997  0.00  0.00    +0.000 F 
ENDBRANCH  13  14
ENDBRANCH  11  13
ENDBRANCH   5   7
BRANCH   1  18
ATOM     17  O   UNL     1       3.274   7.324  18.175  0.00  0.00    +0.000 OA
ATOM     18  C   UNL     1       2.566   6.839  19.055  0.00  0.00    +0.000 C 
ATOM     19  N   UNL     1       1.755   7.603  19.859  0.00  0.00    +0.000 N 
ATOM     20  H   UNL     1       1.218   7.149  20.587  0.00  0.00    +0.000 HD
BRANCH  19  21
ATOM     21  C   UNL     1       1.652   9.053  19.750  0.00  0.00    +0.000 C 
ATOM     22  C   UNL     1       1.039   9.428  18.398  0.00  0.00    +0.000 C 
ATOM     23  C   UNL     1       0.558  10.866  18.459  0.00  0.00    +0.000 C 
ATOM     24  O   UNL     1      -0.511  11.007  19.401  0.00  0.00    +0.000 OA
ATOM     25  C   UNL     1      -0.235  10.491  20.639  0.00  0.00    +0.000 A 
ATOM     26  C   UNL     1      -1.094  10.880  21.670  0.00  0.00    +0.000 A 
ATOM     27  C   UNL     1      -0.885  10.412  22.967  0.00  0.00    +0.000 A 
ATOM     28  C   UNL     1       0.199   9.586  23.227  0.00  0.00    +0.000 A 
ATOM     29  F   UNL     1       0.414   9.146  24.474  0.00  0.00    +0.000 F 
ATOM     30  C   UNL     1       1.054   9.184  22.206  0.00  0.00    +0.000 A 
ATOM     31  C   UNL     1       0.812   9.593  20.884  0.00  0.00    +0.000 A 
ENDBRANCH  19  21
ENDBRANCH   1  18
TORSDOF 5
ENDMDL
MODEL 3
REMARK VINA RESULT:      -8.6      4.930      8.128
REMARK  Name = 
REMARK  5 active torsions:
REMARK  status: ('A' for Active; 'I' for Inactive)
REMARK    1  A    between atoms: C_2  and  C_15
REMARK    2  A    between atoms: N_3  and  C_4
REMARK    3  A    between atoms: C_19  and  C_20
REMARK    4  A    between atoms: C_24  and  O_25
REMARK    5  A    between atoms: O_25  and  C_26
REMARK                            x       y       z     vdW  Elec       q    Type
REMARK                         _______ _______ _______ _____ _____    ______ ____
ROOT
ATOM      1  C   UNL     1       5.634   4.234  15.883  0.00  0.00    +0.000 A 
ATOM      2  C   UNL     1       5.681   3.725  14.595  0.00  0.00    +0.000 A 
ATOM      3  N   UNL     1       6.714   4.349  13.971  0.00  0.00    +0.000 N 
ATOM      4  N   UNL     1       7.368   5.208  14.754  0.00  0.00    +0.000 NA
ATOM      5  C   UNL     1       6.747   5.142  15.947  0.00  0.00    +0.000 A 
ATOM      6  H   UNL     1       7.031   4.238  13.014  0.00  0.00    +0.000 HD
ENDROOT
BRANCH   5   7
ATOM      7  C   UNL     1       7.288   5.902  17.085  0.00  0.00    +0.000 A 
ATOM      8  C   UNL     1       7.720   5.260  18.252  0.00  0.00    +0.000 A 
ATOM      9  C   UNL     1       8.268   5.990  19.309  0.00  0.00    +0.000 A 
ATOM     10  C   UNL     1       8.409   7.374  19.213  0.00  0.00    +0.000 A 
ATOM     11  C   UNL     1       7.993   8.034  18.056  0.00  0.00    +0.000 A 
ATOM     12  C   UNL     1       7.452   7.296  16.996  0.00  0.00    +0.000 A 
BRANCH  11  13
ATOM     13  O   UNL     1       8.110   9.377  17.830  0.00  0.00    +0.000 OA
BRANCH  13  14
ATOM     14  C   UNL     1       9.216  10.009  18.452  0.00  0.00    +0.000 C 
ATOM     15  F   UNL     1       9.595  11.075  17.703  0.00  0.00    +0.000 F 
ATOM     16  F   UNL     1       8.783  10.503  19.640  0.00  0.00    +0.000 F 
ENDBRANCH  13  14
ENDBRANCH  11  13
ENDBRANCH   5   7
BRANCH   1  18
ATOM     17  O   UNL     1       4.938   3.539  18.037  0.00  0.00    +0.000 OA
ATOM     18  C   UNL     1       4.646   3.888  16.895  0.00  0.00    +0.000 C 
ATOM     19  N   UNL     1       3.347   3.963  16.452  0.00  0.00    +0.000 N 
ATOM     20  H   UNL     1       3.172   4.227  15.491  0.00  0.00    +0.000 HD
BRANCH  19  21
ATOM     21  C   UNL     1       2.195   3.641  17.284  0.00  0.00    +0.000 C 
ATOM     22  C   UNL     1       2.335   2.221  17.837  0.00  0.00    +0.000 C 
ATOM     23  C   UNL     1       1.379   2.050  19.003  0.00  0.00    +0.000 C 
ATOM     24  O   UNL     1       1.742   2.908  20.090  0.00  0.00    +0.000 OA
ATOM     25  C   UNL     1       1.911   4.220  19.734  0.00  0.00    +0.000 A 
ATOM     26  C   UNL     1       1.946   5.140  20.785  0.00  0.00    +0.000 A 
ATOM     27  C   UNL     1       2.104   6.500  20.518  0.00  0.00    +0.000 A 
ATOM     28  C   UNL     1       2.194   6.929  19.201  0.00  0.00    +0.000 A 
ATOM     29  F   UNL     1       2.330   8.235  18.938  0.00  0.00    +0.000 F 
ATOM     30  C   UNL     1       2.171   6.020  18.149  0.00  0.00    +0.000 A 
ATOM     31  C   UNL     1       2.083   4.643  18.410  0.00  0.00    +0.000 A 
ENDBRANCH  19  21
ENDBRANCH   1  18
TORSDOF 5
ENDMDL
MODEL 4
REMARK VINA RESULT:      -8.6      3.477      8.218
REMARK  Name = 
REMARK  5 active torsions:
REMARK  status: ('A' for Active; 'I' for Inactive)
REMARK    1  A    between atoms: C_2  and  C_15
REMARK    2  A    between atoms: N_3  and  C_4
REMARK    3  A    between atoms: C_19  and  C_20
REMARK    4  A    between atoms: C_24  and  O_25
REMARK    5  A    between atoms: O_25  and  C_26
REMARK                            x       y       z     vdW  Elec       q    Type
REMARK                         _______ _______ _______ _____ _____    ______ ____
ROOT
ATOM      1  C   UNL     1       2.567   5.536  19.372  0.00  0.00    +0.000 A 
ATOM      2  C   UNL     1       1.576   4.869  20.075  0.00  0.00    +0.000 A 
ATOM      3  N   UNL     1       1.910   3.552  20.056  0.00  0.00    +0.000 N 
ATOM      4  N   UNL     1       3.056   3.303  19.421  0.00  0.00    +0.000 NA
ATOM      5  C   UNL     1       3.502   4.506  19.010  0.00  0.00    +0.000 A 
ATOM      6  H   UNL     1       1.405   2.769  20.458  0.00  0.00    +0.000 HD
ENDROOT
BRANCH   5   7
ATOM      7  C   UNL     1       4.814   4.602  18.352  0.00  0.00    +0.000 A 
ATOM      8  C   UNL     1       5.924   5.142  19.014  0.00  0.00    +0.000 A 
ATOM      9  C   UNL     1       7.173   5.192  18.392  0.00  0.00    +0.000 A 
ATOM     10  C   UNL     1       7.340   4.688  17.102  0.00  0.00    +0.000 A 
ATOM     11  C   UNL     1       6.251   4.138  16.427  0.00  0.00    +0.000 A 
ATOM     12  C   UNL     1       5.002   4.084  17.059  0.00  0.00    +0.000 A 
BRANCH  11  13
ATOM     13  O   UNL     1       6.295   3.584  15.178  0.00  0.00    +0.000 OA
BRANCH  13  14
ATOM     14  C   UNL     1       6.022   4.469  14.105  0.00  0.00    +0.000 C 
ATOM     15  F   UNL     1       7.195   4.901  13.578  0.00  0.00    +0.000 F 
ATOM     16  F   UNL     1       5.403   3.749  13.135  0.00  0.00    +0.000 F 
ENDBRANCH  13  14
ENDBRANCH  11  13
ENDBRANCH   5   7
BRANCH   1  18
ATOM     17  O   UNL     1       3.337   7.482  18.264  0.00  0.00    +0.000 OA
ATOM     18  C   UNL     1       2.591   6.965  19.092  0.00  0.00    +0.000 C 
ATOM     19  N   UNL     1       1.715   7.696  19.859  0.00  0.00    +0.000 N 
ATOM     20  H   UNL     1       1.148   7.217  20.546  0.00  0.00    +0.000 HD
BRANCH  19  21
ATOM     21  C   UNL     1       1.583   9.145  19.766  0.00  0.00    +0.000 C 
ATOM     22  C   UNL     1       0.941   9.522  18.430  0.00  0.00    +0.000 C 
ATOM     23  C   UNL     1       0.434  10.950  18.513  0.00  0.00    +0.000 C 
ATOM     24  O   UNL     1      -0.621  11.061  19.475  0.00  0.00    +0.000 OA
ATOM     25  C   UNL     1      -0.314  10.537  20.703  0.00  0.00    +0.000 A 
ATOM     26  C   UNL     1      -1.163  10.899  21.752  0.00  0.00    +0.000 A 
ATOM     27  C   UNL     1      -0.924  10.423  23.041  0.00  0.00    +0.000 A 
ATOM     28  C   UNL     1       0.180   9.614  23.274  0.00  0.00    +0.000 A 
ATOM     29  F   UNL     1       0.424   9.166  24.511  0.00  0.00    +0.000 F 
ATOM     30  C   UNL     1       1.025   9.239  22.234  0.00  0.00    +0.000 A 
ATOM     31  C   UNL     1       0.753   9.657  20.921  0.00  0.00    +0.000 A 
ENDBRANCH  19  21
ENDBRANCH   1  18
TORSDOF 5
ENDMDL
MODEL 5
REMARK VINA RESULT:      -8.4      0.856      1.048
REMARK  Name = 
REMARK  5 active torsions:
REMARK  status: ('A' for Active; 'I' for Inactive)
REMARK    1  A    between atoms: C_2  and  C_15
REMARK    2  A    between atoms: N_3  and  C_4
REMARK    3  A    between atoms: C_19  and  C_20
REMARK    4  A    between atoms: C_24  and  O_25
REMARK    5  A    between atoms: O_25  and  C_26
REMARK                            x       y       z     vdW  Elec       q    Type
REMARK                         _______ _______ _______ _____ _____    ______ ____
ROOT
ATOM      1  C   UNL     1       1.514   8.587  20.122  0.00  0.00    +0.000 A 
ATOM      2  C   UNL     1       1.841   8.011  21.339  0.00  0.00    +0.000 A 
ATOM      3  N   UNL     1       1.275   8.790  22.298  0.00  0.00    +0.000 N 
ATOM      4  N   UNL     1       0.578   9.816  21.808  0.00  0.00    +0.000 NA
ATOM      5  C   UNL     1       0.682   9.706  20.470  0.00  0.00    +0.000 A 
ATOM      6  H   UNL     1       1.320   8.680  23.306  0.00  0.00    +0.000 HD
ENDROOT
BRANCH   5   7
ATOM      7  C   UNL     1      -0.065  10.638  19.610  0.00  0.00    +0.000 A 
ATOM      8  C   UNL     1       0.423  11.920  19.327  0.00  0.00    +0.000 A 
ATOM      9  C   UNL     1      -0.277  12.780  18.478  0.00  0.00    +0.000 A 
ATOM     10  C   UNL     1      -1.469  12.369  17.882  0.00  0.00    +0.000 A 
ATOM     11  C   UNL     1      -1.969  11.093  18.143  0.00  0.00    +0.000 A 
ATOM     12  C   UNL     1      -1.259  10.232  18.989  0.00  0.00    +0.000 A 
BRANCH  11  13
ATOM     13  O   UNL     1      -3.105  10.565  17.594  0.00  0.00    +0.000 OA
BRANCH  13  14
ATOM     14  C   UNL     1      -4.234  11.421  17.582  0.00  0.00    +0.000 C 
ATOM     15  F   UNL     1      -4.419  11.891  16.323  0.00  0.00    +0.000 F 
ATOM     16  F   UNL     1      -5.320  10.662  17.876  0.00  0.00    +0.000 F 
ENDBRANCH  13  14
ENDBRANCH  11  13
ENDBRANCH   5   7
BRANCH   1  18
ATOM     17  O   UNL     1       1.787   8.746  17.775  0.00  0.00    +0.000 OA
ATOM     18  C   UNL     1       1.955   8.116  18.816  0.00  0.00    +0.000 C 
ATOM     19  N   UNL     1       2.562   6.882  18.847  0.00  0.00    +0.000 N 
ATOM     20  H   UNL     1       2.644   6.399  19.732  0.00  0.00    +0.000 HD
BRANCH  19  21
ATOM     21  C   UNL     1       3.063   6.205  17.658  0.00  0.00    +0.000 C 
ATOM     22  C   UNL     1       4.550   6.513  17.474  0.00  0.00    +0.000 C 
ATOM     23  C   UNL     1       5.147   5.501  16.512  0.00  0.00    +0.000 C 
ATOM     24  O   UNL     1       5.108   4.183  17.070  0.00  0.00    +0.000 OA
ATOM     25  C   UNL     1       3.874   3.808  17.532  0.00  0.00    +0.000 A 
ATOM     26  C   UNL     1       3.702   2.445  17.783  0.00  0.00    +0.000 A 
ATOM     27  C   UNL     1       2.477   1.968  18.246  0.00  0.00    +0.000 A 
ATOM     28  C   UNL     1       1.424   2.855  18.423  0.00  0.00    +0.000 A 
ATOM     29  F   UNL     1       0.240   2.402  18.852  0.00  0.00    +0.000 F 
ATOM     30  C   UNL     1       1.587   4.216  18.185  0.00  0.00    +0.000 A 
ATOM     31  C   UNL     1       2.838   4.716  17.786  0.00  0.00    +0.000 A 
ENDBRANCH  19  21
ENDBRANCH   1  18
TORSDOF 5
ENDMDL
MODEL 6
REMARK VINA RESULT:      -8.3      4.651      8.272
REMARK  Name = 
REMARK  5 active torsions:
REMARK  status: ('A' for Active; 'I' for Inactive)
REMARK    1  A    between atoms: C_2  and  C_15
REMARK    2  A    between atoms: N_3  and  C_4
REMARK    3  A    between atoms: C_19  and  C_20
REMARK    4  A    between atoms: C_24  and  O_25
REMARK    5  A    between atoms: O_25  and  C_26
REMARK                            x       y       z     vdW  Elec       q    Type
REMARK                         _______ _______ _______ _____ _____    ______ ____
ROOT
ATOM      1  C   UNL     1       5.636   4.353  15.612  0.00  0.00    +0.000 A 
ATOM      2  C   UNL     1       5.722   3.925  14.297  0.00  0.00    +0.000 A 
ATOM      3  N   UNL     1       6.786   4.570  13.751  0.00  0.00    +0.000 N 
ATOM      4  N   UNL     1       7.423   5.367  14.610  0.00  0.00    +0.000 NA
ATOM      5  C   UNL     1       6.758   5.237  15.774  0.00  0.00    +0.000 A 
ATOM      6  H   UNL     1       7.136   4.514  12.801  0.00  0.00    +0.000 HD
ENDROOT
BRANCH   5   7
ATOM      7  C   UNL     1       7.268   5.915  16.975  0.00  0.00    +0.000 A 
ATOM      8  C   UNL     1       7.657   5.194  18.111  0.00  0.00    +0.000 A 
ATOM      9  C   UNL     1       8.175   5.847  19.231  0.00  0.00    +0.000 A 
ATOM     10  C   UNL     1       8.330   7.233  19.231  0.00  0.00    +0.000 A 
ATOM     11  C   UNL     1       7.958   7.972  18.107  0.00  0.00    +0.000 A 
ATOM     12  C   UNL     1       7.445   7.310  16.984  0.00  0.00    +0.000 A 
BRANCH  11  13
ATOM     13  O   UNL     1       8.092   9.326  17.974  0.00  0.00    +0.000 OA
BRANCH  13  14
ATOM     14  C   UNL     1       9.070   9.929  18.804  0.00  0.00    +0.000 C 
ATOM     15  F   UNL     1       9.968  10.584  18.026  0.00  0.00    +0.000 F 
ATOM     16  F   UNL     1       8.441  10.873  19.550  0.00  0.00    +0.000 F 
ENDBRANCH  13  14
ENDBRANCH  11  13
ENDBRANCH   5   7
BRANCH   1  18
ATOM     17  O   UNL     1       4.350   2.792  16.844  0.00  0.00    +0.000 OA
ATOM     18  C   UNL     1       4.607   3.961  16.565  0.00  0.00    +0.000 C 
ATOM     19  N   UNL     1       3.924   5.021  17.113  0.00  0.00    +0.000 N 
ATOM     20  H   UNL     1       4.161   5.960  16.820  0.00  0.00    +0.000 HD
BRANCH  19  21
ATOM     21  C   UNL     1       2.838   4.866  18.072  0.00  0.00    +0.000 C 
ATOM     22  C   UNL     1       3.296   3.984  19.236  0.00  0.00    +0.000 C 
ATOM     23  C   UNL     1       2.339   4.168  20.399  0.00  0.00    +0.000 C 
ATOM     24  O   UNL     1       2.400   5.507  20.903  0.00  0.00    +0.000 OA
ATOM     25  C   UNL     1       2.255   6.472  19.943  0.00  0.00    +0.000 A 
ATOM     26  C   UNL     1       1.985   7.762  20.407  0.00  0.00    +0.000 A 
ATOM     27  C   UNL     1       1.811   8.808  19.502  0.00  0.00    +0.000 A 
ATOM     28  C   UNL     1       1.877   8.549  18.140  0.00  0.00    +0.000 A 
ATOM     29  F   UNL     1       1.695   9.546  17.265  0.00  0.00    +0.000 F 
ATOM     30  C   UNL     1       2.155   7.270  17.668  0.00  0.00    +0.000 A 
ATOM     31  C   UNL     1       2.401   6.224  18.572  0.00  0.00    +0.000 A 
ENDBRANCH  19  21
ENDBRANCH   1  18
TORSDOF 5
ENDMDL
MODEL 7
REMARK VINA RESULT:      -8.3      3.933      5.654
REMARK  Name = 
REMARK  5 active torsions:
REMARK  status: ('A' for Active; 'I' for Inactive)
REMARK    1  A    between atoms: C_2  and  C_15
REMARK    2  A    between atoms: N_3  and  C_4
REMARK    3  A    between atoms: C_19  and  C_20
REMARK    4  A    between atoms: C_24  and  O_25
REMARK    5  A    between atoms: O_25  and  C_26
REMARK                            x       y       z     vdW  Elec       q    Type
REMARK                         _______ _______ _______ _____ _____    ______ ____
ROOT
ATOM      1  C   UNL     1       2.106   3.254  18.998  0.00  0.00    +0.000 A 
ATOM      2  C   UNL     1       1.551   2.119  19.566  0.00  0.00    +0.000 A 
ATOM      3  N   UNL     1       0.853   2.535  20.655  0.00  0.00    +0.000 N 
ATOM      4  N   UNL     1       0.882   3.856  20.833  0.00  0.00    +0.000 NA
ATOM      5  C   UNL     1       1.623   4.334  19.814  0.00  0.00    +0.000 A 
ATOM      6  H   UNL     1       0.332   1.974  21.321  0.00  0.00    +0.000 HD
ENDROOT
BRANCH   5   7
ATOM      7  C   UNL     1       1.773   5.788  19.651  0.00  0.00    +0.000 A 
ATOM      8  C   UNL     1       2.121   6.352  18.418  0.00  0.00    +0.000 A 
ATOM      9  C   UNL     1       2.223   7.737  18.267  0.00  0.00    +0.000 A 
ATOM     10  C   UNL     1       1.962   8.585  19.343  0.00  0.00    +0.000 A 
ATOM     11  C   UNL     1       1.605   8.046  20.579  0.00  0.00    +0.000 A 
ATOM     12  C   UNL     1       1.498   6.657  20.722  0.00  0.00    +0.000 A 
BRANCH  11  13
ATOM     13  O   UNL     1       1.294   8.772  21.695  0.00  0.00    +0.000 OA
BRANCH  13  14
ATOM     14  C   UNL     1      -0.033   9.266  21.753  0.00  0.00    +0.000 C 
ATOM     15  F   UNL     1      -0.861   8.265  22.144  0.00  0.00    +0.000 F 
ATOM     16  F   UNL     1      -0.071  10.206  22.733  0.00  0.00    +0.000 F 
ENDBRANCH  13  14
ENDBRANCH  11  13
ENDBRANCH   5   7
BRANCH   1  18
ATOM     17  O   UNL     1       2.685   2.780  16.751  0.00  0.00    +0.000 OA
ATOM     18  C   UNL     1       2.983   3.276  17.835  0.00  0.00    +0.000 C 
ATOM     19  N   UNL     1       4.193   3.886  18.064  0.00  0.00    +0.000 N 
ATOM     20  H   UNL     1       4.392   4.249  18.987  0.00  0.00    +0.000 HD
BRANCH  19  21
ATOM     21  C   UNL     1       5.236   4.006  17.052  0.00  0.00    +0.000 C 
ATOM     22  C   UNL     1       4.624   4.476  15.731  0.00  0.00    +0.000 C 
ATOM     23  C   UNL     1       5.732   4.990  14.831  0.00  0.00    +0.000 C 
ATOM     24  O   UNL     1       6.344   6.157  15.391  0.00  0.00    +0.000 OA
ATOM     25  C   UNL     1       6.747   6.006  16.691  0.00  0.00    +0.000 A 
ATOM     26  C   UNL     1       7.624   6.980  17.177  0.00  0.00    +0.000 A 
ATOM     27  C   UNL     1       8.096   6.904  18.487  0.00  0.00    +0.000 A 
ATOM     28  C   UNL     1       7.713   5.837  19.288  0.00  0.00    +0.000 A 
ATOM     29  F   UNL     1       8.175   5.750  20.541  0.00  0.00    +0.000 F 
ATOM     30  C   UNL     1       6.832   4.869  18.818  0.00  0.00    +0.000 A 
ATOM     31  C   UNL     1       6.296   4.975  17.524  0.00  0.00    +0.000 A 
ENDBRANCH  19  21
ENDBRANCH   1  18
TORSDOF 5
ENDMDL
MODEL 8
REMARK VINA RESULT:      -8.3      2.384      2.896
REMARK  Name = 
REMARK  5 active torsions:
REMARK  status: ('A' for Active; 'I' for Inactive)
REMARK    1  A    between atoms: C_2  and  C_15
REMARK    2  A    between atoms: N_3  and  C_4
REMARK    3  A    between atoms: C_19  and  C_20
REMARK    4  A    between atoms: C_24  and  O_25
REMARK    5  A    between atoms: O_25  and  C_26
REMARK                            x       y       z     vdW  Elec       q    Type
REMARK                         _______ _______ _______ _____ _____    ______ ____
ROOT
ATOM      1  C   UNL     1       1.451   8.786  20.108  0.00  0.00    +0.000 A 
ATOM      2  C   UNL     1       1.532   8.073  21.293  0.00  0.00    +0.000 A 
ATOM      3  N   UNL     1       1.082   8.900  22.272  0.00  0.00    +0.000 N 
ATOM      4  N   UNL     1       0.685  10.091  21.822  0.00  0.00    +0.000 NA
ATOM      5  C   UNL     1       0.873  10.046  20.489  0.00  0.00    +0.000 A 
ATOM      6  H   UNL     1       1.016   8.719  23.269  0.00  0.00    +0.000 HD
ENDROOT
BRANCH   5   7
ATOM      7  C   UNL     1       0.437  11.180  19.660  0.00  0.00    +0.000 A 
ATOM      8  C   UNL     1      -0.817  11.188  19.036  0.00  0.00    +0.000 A 
ATOM      9  C   UNL     1      -1.235  12.288  18.284  0.00  0.00    +0.000 A 
ATOM     10  C   UNL     1      -0.414  13.408  18.154  0.00  0.00    +0.000 A 
ATOM     11  C   UNL     1       0.836  13.425  18.775  0.00  0.00    +0.000 A 
ATOM     12  C   UNL     1       1.246  12.322  19.534  0.00  0.00    +0.000 A 
BRANCH  11  13
ATOM     13  O   UNL     1       1.713  14.474  18.750  0.00  0.00    +0.000 OA
BRANCH  13  14
ATOM     14  C   UNL     1       3.036  14.156  18.355  0.00  0.00    +0.000 C 
ATOM     15  F   UNL     1       3.408  14.984  17.347  0.00  0.00    +0.000 F 
ATOM     16  F   UNL     1       3.849  14.434  19.406  0.00  0.00    +0.000 F 
ENDBRANCH  13  14
ENDBRANCH  11  13
ENDBRANCH   5   7
BRANCH   1  18
ATOM     17  O   UNL     1       1.674   8.917  17.754  0.00  0.00    +0.000 OA
ATOM     18  C   UNL     1       1.880   8.308  18.801  0.00  0.00    +0.000 C 
ATOM     19  N   UNL     1       2.521   7.092  18.837  0.00  0.00    +0.000 N 
ATOM     20  H   UNL     1       2.634   6.624  19.727  0.00  0.00    +0.000 HD
BRANCH  19  21
ATOM     21  C   UNL     1       3.018   6.411  17.648  0.00  0.00    +0.000 C 
ATOM     22  C   UNL     1       4.497   6.742  17.441  0.00  0.00    +0.000 C 
ATOM     23  C   UNL     1       5.098   5.732  16.482  0.00  0.00    +0.000 C 
ATOM     24  O   UNL     1       5.090   4.419  17.054  0.00  0.00    +0.000 OA
ATOM     25  C   UNL     1       3.869   4.028  17.536  0.00  0.00    +0.000 A 
ATOM     26  C   UNL     1       3.725   2.664  17.803  0.00  0.00    +0.000 A 
ATOM     27  C   UNL     1       2.514   2.171  18.288  0.00  0.00    +0.000 A 
ATOM     28  C   UNL     1       1.448   3.041  18.469  0.00  0.00    +0.000 A 
ATOM     29  F   UNL     1       0.278   2.572  18.919  0.00  0.00    +0.000 F 
ATOM     30  C   UNL     1       1.584   4.402  18.216  0.00  0.00    +0.000 A 
ATOM     31  C   UNL     1       2.821   4.919  17.795  0.00  0.00    +0.000 A 
ENDBRANCH  19  21
ENDBRANCH   1  18
TORSDOF 5
ENDMDL
MODEL 9
REMARK VINA RESULT:      -8.2      2.009      2.488
REMARK  Name = 
REMARK  5 active torsions:
REMARK  status: ('A' for Active; 'I' for Inactive)
REMARK    1  A    between atoms: C_2  and  C_15
REMARK    2  A    between atoms: N_3  and  C_4
REMARK    3  A    between atoms: C_19  and  C_20
REMARK    4  A    between atoms: C_24  and  O_25
REMARK    5  A    between atoms: O_25  and  C_26
REMARK                            x       y       z     vdW  Elec       q    Type
REMARK                         _______ _______ _______ _____ _____    ______ ____
ROOT
ATOM      1  C   UNL     1       1.424   8.559  20.019  0.00  0.00    +0.000 A 
ATOM      2  C   UNL     1       1.721   8.061  21.277  0.00  0.00    +0.000 A 
ATOM      3  N   UNL     1       1.027   8.820  22.166  0.00  0.00    +0.000 N 
ATOM      4  N   UNL     1       0.276   9.760  21.590  0.00  0.00    +0.000 NA
ATOM      5  C   UNL     1       0.475   9.610  20.267  0.00  0.00    +0.000 A 
ATOM      6  H   UNL     1       1.017   8.752  23.178  0.00  0.00    +0.000 HD
ENDROOT
BRANCH   5   7
ATOM      7  C   UNL     1      -0.294  10.437  19.324  0.00  0.00    +0.000 A 
ATOM      8  C   UNL     1      -1.348   9.901  18.574  0.00  0.00    +0.000 A 
ATOM      9  C   UNL     1      -2.095  10.706  17.712  0.00  0.00    +0.000 A 
ATOM     10  C   UNL     1      -1.813  12.067  17.595  0.00  0.00    +0.000 A 
ATOM     11  C   UNL     1      -0.773  12.625  18.339  0.00  0.00    +0.000 A 
ATOM     12  C   UNL     1      -0.032  11.814  19.207  0.00  0.00    +0.000 A 
BRANCH  11  13
ATOM     13  O   UNL     1      -0.423  13.947  18.336  0.00  0.00    +0.000 OA
BRANCH  13  14
ATOM     14  C   UNL     1       0.658  14.296  19.182  0.00  0.00    +0.000 C 
ATOM     15  F   UNL     1       1.518  15.091  18.497  0.00  0.00    +0.000 F 
ATOM     16  F   UNL     1       0.153  15.050  20.192  0.00  0.00    +0.000 F 
ENDBRANCH  13  14
ENDBRANCH  11  13
ENDBRANCH   5   7
BRANCH   1  18
ATOM     17  O   UNL     1       1.970   8.732  17.721  0.00  0.00    +0.000 OA
ATOM     18  C   UNL     1       1.989   8.082  18.764  0.00  0.00    +0.000 C 
ATOM     19  N   UNL     1       2.529   6.820  18.842  0.00  0.00    +0.000 N 
ATOM     20  H   UNL     1       2.487   6.323  19.722  0.00  0.00    +0.000 HD
BRANCH  19  21
ATOM     21  C   UNL     1       3.130   6.133  17.707  0.00  0.00    +0.000 C 
ATOM     22  C   UNL     1       4.628   6.441  17.647  0.00  0.00    +0.000 C 
ATOM     23  C   UNL     1       5.304   5.422  16.749  0.00  0.00    +0.000 C 
ATOM     24  O   UNL     1       5.218   4.108  17.314  0.00  0.00    +0.000 OA
ATOM     25  C   UNL     1       3.950   3.736  17.672  0.00  0.00    +0.000 A 
ATOM     26  C   UNL     1       3.758   2.375  17.920  0.00  0.00    +0.000 A 
ATOM     27  C   UNL     1       2.498   1.901  18.281  0.00  0.00    +0.000 A 
ATOM     28  C   UNL     1       1.433   2.788  18.359  0.00  0.00    +0.000 A 
ATOM     29  F   UNL     1       0.217   2.337  18.690  0.00  0.00    +0.000 F 
ATOM     30  C   UNL     1       1.616   4.147  18.124  0.00  0.00    +0.000 A 
ATOM     31  C   UNL     1       2.896   4.644  17.829  0.00  0.00    +0.000 A 
ENDBRANCH  19  21
ENDBRANCH   1  18
TORSDOF 5
ENDMDL
