MODEL 1
REMARK VINA RESULT:      -8.9      0.000      0.000
REMARK  Name = 
REMARK  3 active torsions:
REMARK  status: ('A' for Active; 'I' for Inactive)
REMARK    1  A    between atoms: C_1  and  N_2
REMARK    2  A    between atoms: C_8  and  N_9
REMARK    3  A    between atoms: C_10  and  C_12
REMARK                            x       y       z     vdW  Elec       q    Type
REMARK                         _______ _______ _______ _____ _____    ______ ____
ROOT
ATOM      1  N   UNL     1       1.855   8.504  17.715  0.00  0.00    +0.000 N 
ATOM      2  C   UNL     1       2.393   7.550  18.559  0.00  0.00    +0.000 C 
ATOM      3  O   UNL     1       2.263   7.532  19.781  0.00  0.00    +0.000 OA
ATOM      4  H   UNL     1       1.951   8.321  16.714  0.00  0.00    +0.000 HD
ENDROOT
BRANCH   1  12
ATOM      5  C   UNL     1      -4.739  11.557  18.642  0.00  0.00    +0.000 C 
ATOM      6  N   UNL     1      -3.295  11.680  18.674  0.00  0.00    +0.000 N 
ATOM      7  C   UNL     1      -2.698  12.465  19.745  0.00  0.00    +0.000 C 
ATOM      8  C   UNL     1      -1.320  12.972  19.346  0.00  0.00    +0.000 C 
ATOM      9  C   UNL     1      -0.473  11.816  18.903  0.00  0.00    +0.000 A 
ATOM     10  C   UNL     1       0.911  11.845  19.083  0.00  0.00    +0.000 A 
ATOM     11  C   UNL     1       1.689  10.760  18.687  0.00  0.00    +0.000 A 
ATOM     12  C   UNL     1       1.108   9.637  18.090  0.00  0.00    +0.000 A 
ATOM     13  C   UNL     1      -0.271   9.632  17.850  0.00  0.00    +0.000 A 
ATOM     14  C   UNL     1      -1.063  10.712  18.266  0.00  0.00    +0.000 A 
ATOM     15  C   UNL     1      -2.543  10.682  18.045  0.00  0.00    +0.000 C 
ATOM     16  O   UNL     1      -3.039   9.805  17.345  0.00  0.00    +0.000 OA
ENDBRANCH   1  12
BRANCH   2  17
ATOM     17  C   UNL     1       3.161   6.426  17.932  0.00  0.00    +0.000 A 
ATOM     18  C   UNL     1       4.348   6.786  17.262  0.00  0.00    +0.000 A 
ATOM     19  C   UNL     1       5.133   5.815  16.675  0.00  0.00    +0.000 A 
ATOM     20  F   UNL     1       6.260   6.162  16.044  0.00  0.00    +0.000 F 
ATOM     21  C   UNL     1       4.764   4.483  16.738  0.00  0.00    +0.000 A 
ATOM     22  C   UNL     1       3.588   4.112  17.407  0.00  0.00    +0.000 A 
ATOM     23  C   UNL     1       3.224   2.761  17.492  0.00  0.00    +0.000 A 
ATOM     24  C   UNL     1       2.063   2.393  18.157  0.00  0.00    +0.000 A 
ATOM     25  C   UNL     1       1.294   3.393  18.709  0.00  0.00    +0.000 A 
ATOM     26  N   UNL     1       1.616   4.705  18.651  0.00  0.00    +0.000 NA
ATOM     27  C   UNL     1       2.753   5.083  18.013  0.00  0.00    +0.000 A 
ENDBRANCH   2  17
TORSDOF 2
ENDMDL
MODEL 2
REMARK VINA RESULT:      -8.8      1.585      2.620
REMARK  Name = 
REMARK  3 active torsions:
REMARK  status: ('A' for Active; 'I' for Inactive)
REMARK    1  A    between atoms: C_1  and  N_2
REMARK    2  A    between atoms: C_8  and  N_9
REMARK    3  A    between atoms: C_10  and  C_12
REMARK                            x       y       z     vdW  Elec       q    Type
REMARK                         _______ _______ _______ _____ _____    ______ ____
ROOT
ATOM      1  N   UNL     1       2.004   8.206  17.720  0.00  0.00    +0.000 N 
ATOM      2  C   UNL     1       2.386   7.237  18.629  0.00  0.00    +0.000 C 
ATOM      3  O   UNL     1       2.247   7.317  19.848  0.00  0.00    +0.000 OA
ATOM      4  H   UNL     1       2.078   7.948  16.734  0.00  0.00    +0.000 HD
ENDROOT
BRANCH   1  12
ATOM      5  C   UNL     1      -4.030  12.077  19.230  0.00  0.00    +0.000 C 
ATOM      6  N   UNL     1      -2.602  12.043  18.986  0.00  0.00    +0.000 N 
ATOM      7  C   UNL     1      -1.750  12.919  19.778  0.00  0.00    +0.000 C 
ATOM      8  C   UNL     1      -0.438  13.200  19.060  0.00  0.00    +0.000 C 
ATOM      9  C   UNL     1       0.214  11.902  18.689  0.00  0.00    +0.000 A 
ATOM     10  C   UNL     1       1.604  11.807  18.615  0.00  0.00    +0.000 A 
ATOM     11  C   UNL     1       2.204  10.593  18.288  0.00  0.00    +0.000 A 
ATOM     12  C   UNL     1       1.434   9.460  18.012  0.00  0.00    +0.000 A 
ATOM     13  C   UNL     1       0.038   9.569  18.022  0.00  0.00    +0.000 A 
ATOM     14  C   UNL     1      -0.572  10.782  18.372  0.00  0.00    +0.000 A 
ATOM     15  C   UNL     1      -2.064  10.880  18.422  0.00  0.00    +0.000 C 
ATOM     16  O   UNL     1      -2.753   9.962  17.988  0.00  0.00    +0.000 OA
ENDBRANCH   1  12
BRANCH   2  17
ATOM     17  C   UNL     1       2.979   5.974  18.086  0.00  0.00    +0.000 A 
ATOM     18  C   UNL     1       2.147   4.837  18.116  0.00  0.00    +0.000 A 
ATOM     19  C   UNL     1       2.600   3.634  17.614  0.00  0.00    +0.000 A 
ATOM     20  F   UNL     1       1.804   2.559  17.642  0.00  0.00    +0.000 F 
ATOM     21  C   UNL     1       3.872   3.532  17.078  0.00  0.00    +0.000 A 
ATOM     22  C   UNL     1       4.707   4.659  17.037  0.00  0.00    +0.000 A 
ATOM     23  C   UNL     1       5.987   4.564  16.474  0.00  0.00    +0.000 A 
ATOM     24  C   UNL     1       6.812   5.679  16.430  0.00  0.00    +0.000 A 
ATOM     25  C   UNL     1       6.334   6.855  16.962  0.00  0.00    +0.000 A 
ATOM     26  N   UNL     1       5.104   6.984  17.509  0.00  0.00    +0.000 NA
ATOM     27  C   UNL     1       4.278   5.907  17.552  0.00  0.00    +0.000 A 
ENDBRANCH   2  17
TORSDOF 2
ENDMDL
MODEL 3
REMARK VINA RESULT:      -8.7      3.186      8.280
REMARK  Name = 
REMARK  3 active torsions:
REMARK  status: ('A' for Active; 'I' for Inactive)
REMARK    1  A    between atoms: C_1  and  N_2
REMARK    2  A    between atoms: C_8  and  N_9
REMARK    3  A    between atoms: C_10  and  C_12
REMARK                            x       y       z     vdW  Elec       q    Type
REMARK                         _______ _______ _______ _____ _____    ______ ____
ROOT
ATOM      1  N   UNL     1       2.156   8.212  19.276  0.00  0.00    +0.000 N 
ATOM      2  C   UNL     1       1.395   9.169  18.629  0.00  0.00    +0.000 C 
ATOM      3  O   UNL     1       0.993   9.087  17.470  0.00  0.00    +0.000 OA
ATOM      4  H   UNL     1       2.316   8.368  20.273  0.00  0.00    +0.000 HD
ENDROOT
BRANCH   1  12
ATOM      5  C   UNL     1       6.924   4.912  14.799  0.00  0.00    +0.000 C 
ATOM      6  N   UNL     1       5.804   4.815  15.715  0.00  0.00    +0.000 N 
ATOM      7  C   UNL     1       5.761   3.682  16.628  0.00  0.00    +0.000 C 
ATOM      8  C   UNL     1       4.337   3.402  17.084  0.00  0.00    +0.000 C 
ATOM      9  C   UNL     1       3.741   4.655  17.652  0.00  0.00    +0.000 A 
ATOM     10  C   UNL     1       2.779   4.585  18.661  0.00  0.00    +0.000 A 
ATOM     11  C   UNL     1       2.244   5.753  19.198  0.00  0.00    +0.000 A 
ATOM     12  C   UNL     1       2.641   7.009  18.730  0.00  0.00    +0.000 A 
ATOM     13  C   UNL     1       3.558   7.081  17.674  0.00  0.00    +0.000 A 
ATOM     14  C   UNL     1       4.118   5.910  17.144  0.00  0.00    +0.000 A 
ATOM     15  C   UNL     1       5.128   5.995  16.044  0.00  0.00    +0.000 C 
ATOM     16  O   UNL     1       5.336   7.068  15.486  0.00  0.00    +0.000 OA
ENDBRANCH   1  12
BRANCH   2  17
ATOM     17  C   UNL     1       0.995  10.381  19.413  0.00  0.00    +0.000 A 
ATOM     18  C   UNL     1       1.250  11.625  18.801  0.00  0.00    +0.000 A 
ATOM     19  C   UNL     1       0.894  12.796  19.439  0.00  0.00    +0.000 A 
ATOM     20  F   UNL     1       1.136  13.973  18.852  0.00  0.00    +0.000 F 
ATOM     21  C   UNL     1       0.283  12.760  20.680  0.00  0.00    +0.000 A 
ATOM     22  C   UNL     1       0.018  11.527  21.296  0.00  0.00    +0.000 A 
ATOM     23  C   UNL     1      -0.621  11.487  22.543  0.00  0.00    +0.000 A 
ATOM     24  C   UNL     1      -0.887  10.268  23.150  0.00  0.00    +0.000 A 
ATOM     25  C   UNL     1      -0.494   9.123  22.494  0.00  0.00    +0.000 A 
ATOM     26  N   UNL     1       0.120   9.124  21.289  0.00  0.00    +0.000 NA
ATOM     27  C   UNL     1       0.379  10.306  20.675  0.00  0.00    +0.000 A 
ENDBRANCH   2  17
TORSDOF 2
ENDMDL
MODEL 4
REMARK VINA RESULT:      -8.5      2.172      2.521
REMARK  Name = 
REMARK  3 active torsions:
REMARK  status: ('A' for Active; 'I' for Inactive)
REMARK    1  A    between atoms: C_1  and  N_2
REMARK    2  A    between atoms: C_8  and  N_9
REMARK    3  A    between atoms: C_10  and  C_12
REMARK                            x       y       z     vdW  Elec       q    Type
REMARK                         _______ _______ _______ _____ _____    ______ ____
ROOT
ATOM      1  N   UNL     1       2.085   7.552  19.802  0.00  0.00    +0.000 N 
ATOM      2  C   UNL     1       2.399   7.620  18.457  0.00  0.00    +0.000 C 
ATOM      3  O   UNL     1       2.125   8.559  17.713  0.00  0.00    +0.000 OA
ATOM      4  H   UNL     1       2.480   6.761  20.314  0.00  0.00    +0.000 HD
ENDROOT
BRANCH   1  12
ATOM      5  C   UNL     1      -1.277  14.059  19.960  0.00  0.00    +0.000 C 
ATOM      6  N   UNL     1      -0.844  12.865  20.658  0.00  0.00    +0.000 N 
ATOM      7  C   UNL     1      -1.733  12.296  21.660  0.00  0.00    +0.000 C 
ATOM      8  C   UNL     1      -0.957  11.457  22.665  0.00  0.00    +0.000 C 
ATOM      9  C   UNL     1      -0.142  10.433  21.934  0.00  0.00    +0.000 A 
ATOM     10  C   UNL     1       0.142   9.202  22.528  0.00  0.00    +0.000 A 
ATOM     11  C   UNL     1       0.884   8.248  21.835  0.00  0.00    +0.000 A 
ATOM     12  C   UNL     1       1.369   8.506  20.550  0.00  0.00    +0.000 A 
ATOM     13  C   UNL     1       1.140   9.764  19.978  0.00  0.00    +0.000 A 
ATOM     14  C   UNL     1       0.376  10.720  20.660  0.00  0.00    +0.000 A 
ATOM     15  C   UNL     1       0.099  12.047  20.025  0.00  0.00    +0.000 C 
ATOM     16  O   UNL     1       0.683  12.365  18.994  0.00  0.00    +0.000 OA
ENDBRANCH   1  12
BRANCH   2  17
ATOM     17  C   UNL     1       3.169   6.477  17.869  0.00  0.00    +0.000 A 
ATOM     18  C   UNL     1       4.348   6.818  17.175  0.00  0.00    +0.000 A 
ATOM     19  C   UNL     1       5.135   5.830  16.619  0.00  0.00    +0.000 A 
ATOM     20  F   UNL     1       6.254   6.159  15.966  0.00  0.00    +0.000 F 
ATOM     21  C   UNL     1       4.776   4.499  16.738  0.00  0.00    +0.000 A 
ATOM     22  C   UNL     1       3.608   4.147  17.431  0.00  0.00    +0.000 A 
ATOM     23  C   UNL     1       3.254   2.798  17.573  0.00  0.00    +0.000 A 
ATOM     24  C   UNL     1       2.101   2.449  18.262  0.00  0.00    +0.000 A 
ATOM     25  C   UNL     1       1.329   3.465  18.780  0.00  0.00    +0.000 A 
ATOM     26  N   UNL     1       1.642   4.776  18.667  0.00  0.00    +0.000 NA
ATOM     27  C   UNL     1       2.772   5.136  18.006  0.00  0.00    +0.000 A 
ENDBRANCH   2  17
TORSDOF 2
ENDMDL
MODEL 5
REMARK VINA RESULT:      -8.5      1.958      2.884
REMARK  Name = 
REMARK  3 active torsions:
REMARK  status: ('A' for Active; 'I' for Inactive)
REMARK    1  A    between atoms: C_1  and  N_2
REMARK    2  A    between atoms: C_8  and  N_9
REMARK    3  A    between atoms: C_10  and  C_12
REMARK                            x       y       z     vdW  Elec       q    Type
REMARK                         _______ _______ _______ _____ _____    ______ ____
ROOT
ATOM      1  N   UNL     1       1.991   8.646  17.816  0.00  0.00    +0.000 N 
ATOM      2  C   UNL     1       2.448   7.610  18.609  0.00  0.00    +0.000 C 
ATOM      3  O   UNL     1       2.286   7.525  19.825  0.00  0.00    +0.000 OA
ATOM      4  H   UNL     1       2.102   8.520  16.808  0.00  0.00    +0.000 HD
ENDROOT
BRANCH   1  12
ATOM      5  C   UNL     1       1.994  15.929  18.609  0.00  0.00    +0.000 C 
ATOM      6  N   UNL     1       1.328  14.656  18.802  0.00  0.00    +0.000 N 
ATOM      7  C   UNL     1      -0.114  14.602  18.613  0.00  0.00    +0.000 C 
ATOM      8  C   UNL     1      -0.721  13.433  19.376  0.00  0.00    +0.000 C 
ATOM      9  C   UNL     1      -0.015  12.167  18.991  0.00  0.00    +0.000 A 
ATOM     10  C   UNL     1      -0.694  10.947  19.008  0.00  0.00    +0.000 A 
ATOM     11  C   UNL     1      -0.037   9.778  18.630  0.00  0.00    +0.000 A 
ATOM     12  C   UNL     1       1.306   9.798  18.246  0.00  0.00    +0.000 A 
ATOM     13  C   UNL     1       2.007  11.010  18.289  0.00  0.00    +0.000 A 
ATOM     14  C   UNL     1       1.347  12.194  18.647  0.00  0.00    +0.000 A 
ATOM     15  C   UNL     1       2.091  13.492  18.651  0.00  0.00    +0.000 C 
ATOM     16  O   UNL     1       3.310  13.499  18.516  0.00  0.00    +0.000 OA
ENDBRANCH   1  12
BRANCH   2  17
ATOM     17  C   UNL     1       3.161   6.481  17.929  0.00  0.00    +0.000 A 
ATOM     18  C   UNL     1       4.312   6.831  17.194  0.00  0.00    +0.000 A 
ATOM     19  C   UNL     1       5.047   5.854  16.553  0.00  0.00    +0.000 A 
ATOM     20  F   UNL     1       6.140   6.191  15.860  0.00  0.00    +0.000 F 
ATOM     21  C   UNL     1       4.664   4.527  16.627  0.00  0.00    +0.000 A 
ATOM     22  C   UNL     1       3.523   4.166  17.361  0.00  0.00    +0.000 A 
ATOM     23  C   UNL     1       3.145   2.820  17.456  0.00  0.00    +0.000 A 
ATOM     24  C   UNL     1       2.020   2.462  18.185  0.00  0.00    +0.000 A 
ATOM     25  C   UNL     1       1.299   3.468  18.789  0.00  0.00    +0.000 A 
ATOM     26  N   UNL     1       1.636   4.775  18.723  0.00  0.00    +0.000 NA
ATOM     27  C   UNL     1       2.740   5.143  18.023  0.00  0.00    +0.000 A 
ENDBRANCH   2  17
TORSDOF 2
ENDMDL
MODEL 6
REMARK VINA RESULT:      -8.3      2.398      2.875
REMARK  Name = 
REMARK  3 active torsions:
REMARK  status: ('A' for Active; 'I' for Inactive)
REMARK    1  A    between atoms: C_1  and  N_2
REMARK    2  A    between atoms: C_8  and  N_9
REMARK    3  A    between atoms: C_10  and  C_12
REMARK                            x       y       z     vdW  Elec       q    Type
REMARK                         _______ _______ _______ _____ _____    ______ ____
ROOT
ATOM      1  N   UNL     1       1.889   7.796  19.643  0.00  0.00    +0.000 N 
ATOM      2  C   UNL     1       2.692   7.299  18.633  0.00  0.00    +0.000 C 
ATOM      3  O   UNL     1       2.881   7.844  17.547  0.00  0.00    +0.000 OA
ATOM      4  H   UNL     1       1.922   7.289  20.530  0.00  0.00    +0.000 HD
ENDROOT
BRANCH   1  12
ATOM      5  C   UNL     1      -1.169  13.324  23.351  0.00  0.00    +0.000 C 
ATOM      6  N   UNL     1      -0.949  12.641  22.091  0.00  0.00    +0.000 N 
ATOM      7  C   UNL     1      -0.751  13.452  20.898  0.00  0.00    +0.000 C 
ATOM      8  C   UNL     1      -1.103  12.668  19.642  0.00  0.00    +0.000 C 
ATOM      9  C   UNL     1      -0.338  11.380  19.628  0.00  0.00    +0.000 A 
ATOM     10  C   UNL     1       0.034  10.792  18.417  0.00  0.00    +0.000 A 
ATOM     11  C   UNL     1       0.762   9.605  18.412  0.00  0.00    +0.000 A 
ATOM     12  C   UNL     1       1.118   8.973  19.606  0.00  0.00    +0.000 A 
ATOM     13  C   UNL     1       0.692   9.526  20.821  0.00  0.00    +0.000 A 
ATOM     14  C   UNL     1      -0.022  10.732  20.834  0.00  0.00    +0.000 A 
ATOM     15  C   UNL     1      -0.438  11.340  22.136  0.00  0.00    +0.000 C 
ATOM     16  O   UNL     1      -0.314  10.701  23.177  0.00  0.00    +0.000 OA
ENDBRANCH   1  12
BRANCH   2  17
ATOM     17  C   UNL     1       3.421   6.017  18.896  0.00  0.00    +0.000 A 
ATOM     18  C   UNL     1       4.762   5.968  18.465  0.00  0.00    +0.000 A 
ATOM     19  C   UNL     1       5.519   4.836  18.685  0.00  0.00    +0.000 A 
ATOM     20  F   UNL     1       6.793   4.797  18.277  0.00  0.00    +0.000 F 
ATOM     21  C   UNL     1       4.972   3.741  19.330  0.00  0.00    +0.000 A 
ATOM     22  C   UNL     1       3.640   3.780  19.769  0.00  0.00    +0.000 A 
ATOM     23  C   UNL     1       3.090   2.681  20.444  0.00  0.00    +0.000 A 
ATOM     24  C   UNL     1       1.773   2.721  20.882  0.00  0.00    +0.000 A 
ATOM     25  C   UNL     1       1.043   3.858  20.621  0.00  0.00    +0.000 A 
ATOM     26  N   UNL     1       1.542   4.938  19.978  0.00  0.00    +0.000 NA
ATOM     27  C   UNL     1       2.830   4.922  19.551  0.00  0.00    +0.000 A 
ENDBRANCH   2  17
TORSDOF 2
ENDMDL
MODEL 7
REMARK VINA RESULT:      -8.3      2.713      3.082
REMARK  Name = 
REMARK  3 active torsions:
REMARK  status: ('A' for Active; 'I' for Inactive)
REMARK    1  A    between atoms: C_1  and  N_2
REMARK    2  A    between atoms: C_8  and  N_9
REMARK    3  A    between atoms: C_10  and  C_12
REMARK                            x       y       z     vdW  Elec       q    Type
REMARK                         _______ _______ _______ _____ _____    ______ ____
ROOT
ATOM      1  N   UNL     1       1.645   8.229  20.665  0.00  0.00    +0.000 N 
ATOM      2  C   UNL     1       1.834   8.080  19.303  0.00  0.00    +0.000 C 
ATOM      3  O   UNL     1       1.391   8.836  18.441  0.00  0.00    +0.000 OA
ATOM      4  H   UNL     1       2.172   7.588  21.262  0.00  0.00    +0.000 HD
ENDROOT
BRANCH   1  12
ATOM      5  C   UNL     1      -1.221  14.966  20.411  0.00  0.00    +0.000 C 
ATOM      6  N   UNL     1      -0.992  13.738  21.145  0.00  0.00    +0.000 N 
ATOM      7  C   UNL     1      -2.070  13.229  21.983  0.00  0.00    +0.000 C 
ATOM      8  C   UNL     1      -1.527  12.327  23.082  0.00  0.00    +0.000 C 
ATOM      9  C   UNL     1      -0.681  11.251  22.470  0.00  0.00    +0.000 A 
ATOM     10  C   UNL     1      -0.585   9.998  23.078  0.00  0.00    +0.000 A 
ATOM     11  C   UNL     1       0.187   8.997  22.494  0.00  0.00    +0.000 A 
ATOM     12  C   UNL     1       0.889   9.228  21.308  0.00  0.00    +0.000 A 
ATOM     13  C   UNL     1       0.846  10.503  20.731  0.00  0.00    +0.000 A 
ATOM     14  C   UNL     1       0.053  11.509  21.301  0.00  0.00    +0.000 A 
ATOM     15  C   UNL     1      -0.022  12.857  20.656  0.00  0.00    +0.000 C 
ATOM     16  O   UNL     1       0.741  13.139  19.737  0.00  0.00    +0.000 OA
ENDBRANCH   1  12
BRANCH   2  17
ATOM     17  C   UNL     1       2.679   6.932  18.844  0.00  0.00    +0.000 A 
ATOM     18  C   UNL     1       3.536   7.191  17.755  0.00  0.00    +0.000 A 
ATOM     19  C   UNL     1       4.368   6.199  17.278  0.00  0.00    +0.000 A 
ATOM     20  F   UNL     1       5.182   6.453  16.247  0.00  0.00    +0.000 F 
ATOM     21  C   UNL     1       4.371   4.945  17.862  0.00  0.00    +0.000 A 
ATOM     22  C   UNL     1       3.527   4.677  18.951  0.00  0.00    +0.000 A 
ATOM     23  C   UNL     1       3.545   3.414  19.559  0.00  0.00    +0.000 A 
ATOM     24  C   UNL     1       2.713   3.150  20.638  0.00  0.00    +0.000 A 
ATOM     25  C   UNL     1       1.879   4.157  21.069  0.00  0.00    +0.000 A 
ATOM     26  N   UNL     1       1.839   5.388  20.510  0.00  0.00    +0.000 NA
ATOM     27  C   UNL     1       2.653   5.668  19.460  0.00  0.00    +0.000 A 
ENDBRANCH   2  17
TORSDOF 2
ENDMDL
MODEL 8
REMARK VINA RESULT:      -8.2      2.614      3.353
REMARK  Name = 
REMARK  3 active torsions:
REMARK  status: ('A' for Active; 'I' for Inactive)
REMARK    1  A    between atoms: C_1  and  N_2
REMARK    2  A    between atoms: C_8  and  N_9
REMARK    3  A    between atoms: C_10  and  C_12
REMARK                            x       y       z     vdW  Elec       q    Type
REMARK                         _______ _______ _______ _____ _____    ______ ____
ROOT
ATOM      1  N   UNL     1       2.073   8.125  18.179  0.00  0.00    +0.000 N 
ATOM      2  C   UNL     1       2.311   7.066  19.035  0.00  0.00    +0.000 C 
ATOM      3  O   UNL     1       2.239   7.117  20.261  0.00  0.00    +0.000 OA
ATOM      4  H   UNL     1       2.057   7.900  17.182  0.00  0.00    +0.000 HD
ENDROOT
BRANCH   1  12
ATOM      5  C   UNL     1      -1.130  12.638  22.979  0.00  0.00    +0.000 C 
ATOM      6  N   UNL     1      -0.416  12.451  21.732  0.00  0.00    +0.000 N 
ATOM      7  C   UNL     1       0.595  13.434  21.367  0.00  0.00    +0.000 C 
ATOM      8  C   UNL     1       0.827  13.446  19.864  0.00  0.00    +0.000 C 
ATOM      9  C   UNL     1       1.144  12.057  19.398  0.00  0.00    +0.000 A 
ATOM     10  C   UNL     1       1.974  11.854  18.295  0.00  0.00    +0.000 A 
ATOM     11  C   UNL     1       2.280  10.560  17.879  0.00  0.00    +0.000 A 
ATOM     12  C   UNL     1       1.753   9.447  18.542  0.00  0.00    +0.000 A 
ATOM     13  C   UNL     1       0.869   9.648  19.609  0.00  0.00    +0.000 A 
ATOM     14  C   UNL     1       0.575  10.947  20.046  0.00  0.00    +0.000 A 
ATOM     15  C   UNL     1      -0.338  11.154  21.213  0.00  0.00    +0.000 C 
ATOM     16  O   UNL     1      -0.966  10.206  21.675  0.00  0.00    +0.000 OA
ENDBRANCH   1  12
BRANCH   2  17
ATOM     17  C   UNL     1       2.641   5.740  18.419  0.00  0.00    +0.000 A 
ATOM     18  C   UNL     1       1.783   4.672  18.752  0.00  0.00    +0.000 A 
ATOM     19  C   UNL     1       1.996   3.420  18.214  0.00  0.00    +0.000 A 
ATOM     20  F   UNL     1       1.176   2.412  18.531  0.00  0.00    +0.000 F 
ATOM     21  C   UNL     1       3.049   3.200  17.345  0.00  0.00    +0.000 A 
ATOM     22  C   UNL     1       3.906   4.257  17.001  0.00  0.00    +0.000 A 
ATOM     23  C   UNL     1       4.961   4.043  16.103  0.00  0.00    +0.000 A 
ATOM     24  C   UNL     1       5.807   5.088  15.760  0.00  0.00    +0.000 A 
ATOM     25  C   UNL     1       5.577   6.317  16.337  0.00  0.00    +0.000 A 
ATOM     26  N   UNL     1       4.568   6.561  17.203  0.00  0.00    +0.000 NA
ATOM     27  C   UNL     1       3.724   5.553  17.542  0.00  0.00    +0.000 A 
ENDBRANCH   2  17
TORSDOF 2
ENDMDL
MODEL 9
REMARK VINA RESULT:      -8.1      1.486      1.514
REMARK  Name = 
REMARK  3 active torsions:
REMARK  status: ('A' for Active; 'I' for Inactive)
REMARK    1  A    between atoms: C_1  and  N_2
REMARK    2  A    between atoms: C_8  and  N_9
REMARK    3  A    between atoms: C_10  and  C_12
REMARK                            x       y       z     vdW  Elec       q    Type
REMARK                         _______ _______ _______ _____ _____    ______ ____
ROOT
ATOM      1  N   UNL     1       1.772   8.329  19.275  0.00  0.00    +0.000 N 
ATOM      2  C   UNL     1       2.517   8.026  18.150  0.00  0.00    +0.000 C 
ATOM      3  O   UNL     1       2.529   8.682  17.112  0.00  0.00    +0.000 OA
ATOM      4  H   UNL     1       1.955   7.755  20.101  0.00  0.00    +0.000 HD
ENDROOT
BRANCH   1  12
ATOM      5  C   UNL     1      -4.378  11.623  17.040  0.00  0.00    +0.000 C 
ATOM      6  N   UNL     1      -3.217  11.611  17.907  0.00  0.00    +0.000 N 
ATOM      7  C   UNL     1      -3.383  12.066  19.280  0.00  0.00    +0.000 C 
ATOM      8  C   UNL     1      -2.058  12.534  19.864  0.00  0.00    +0.000 C 
ATOM      9  C   UNL     1      -1.035  11.450  19.709  0.00  0.00    +0.000 A 
ATOM     10  C   UNL     1      -0.000  11.317  20.637  0.00  0.00    +0.000 A 
ATOM     11  C   UNL     1       0.936  10.295  20.498  0.00  0.00    +0.000 A 
ATOM     12  C   UNL     1       0.871   9.400  19.427  0.00  0.00    +0.000 A 
ATOM     13  C   UNL     1      -0.128   9.570  18.459  0.00  0.00    +0.000 A 
ATOM     14  C   UNL     1      -1.086  10.582  18.605  0.00  0.00    +0.000 A 
ATOM     15  C   UNL     1      -2.175  10.732  17.591  0.00  0.00    +0.000 C 
ATOM     16  O   UNL     1      -2.130  10.091  16.545  0.00  0.00    +0.000 OA
ENDBRANCH   1  12
BRANCH   2  17
ATOM     17  C   UNL     1       3.412   6.826  18.217  0.00  0.00    +0.000 A 
ATOM     18  C   UNL     1       4.585   6.886  17.438  0.00  0.00    +0.000 A 
ATOM     19  C   UNL     1       5.481   5.836  17.454  0.00  0.00    +0.000 A 
ATOM     20  F   UNL     1       6.594   5.901  16.715  0.00  0.00    +0.000 F 
ATOM     21  C   UNL     1       5.238   4.719  18.233  0.00  0.00    +0.000 A 
ATOM     22  C   UNL     1       4.076   4.651  19.017  0.00  0.00    +0.000 A 
ATOM     23  C   UNL     1       3.838   3.530  19.825  0.00  0.00    +0.000 A 
ATOM     24  C   UNL     1       2.692   3.464  20.604  0.00  0.00    +0.000 A 
ATOM     25  C   UNL     1       1.810   4.520  20.541  0.00  0.00    +0.000 A 
ATOM     26  N   UNL     1       2.009   5.618  19.778  0.00  0.00    +0.000 NA
ATOM     27  C   UNL     1       3.130   5.705  19.017  0.00  0.00    +0.000 A 
ENDBRANCH   2  17
TORSDOF 2
ENDMDL
