MODEL 1
REMARK VINA RESULT:      -8.9      0.000      0.000
REMARK  Name = 
REMARK  5 active torsions:
REMARK  status: ('A' for Active; 'I' for Inactive)
REMARK    1  A    between atoms: C_1  and  C_2
REMARK    2  A    between atoms: C_2  and  N_3
REMARK    3  A    between atoms: C_7  and  C_8
REMARK    4  A    between atoms: C_12  and  N_13
REMARK    5  A    between atoms: C_20  and  C_21
REMARK                            x       y       z     vdW  Elec       q    Type
REMARK                         _______ _______ _______ _____ _____    ______ ____
ROOT
ATOM      1  C   UNL     1       1.387   9.251  19.048  0.00  0.00    +0.000 A 
ATOM      2  C   UNL     1       1.048   8.716  20.302  0.00  0.00    +0.000 A 
ATOM      3  C   UNL     1       1.625   7.535  20.752  0.00  0.00    +0.000 A 
ATOM      4  C   UNL     1       2.452   6.810  19.907  0.00  0.00    +0.000 A 
ATOM      5  C   UNL     1       2.599   7.208  18.570  0.00  0.00    +0.000 A 
ATOM      6  C   UNL     1       2.201   8.497  18.193  0.00  0.00    +0.000 A 
ENDROOT
BRANCH   5   7
ATOM      7  N   UNL     1       2.688   6.194  17.527  0.00  0.00    +0.000 N 
ATOM      8  C   UNL     1       1.757   5.076  17.814  0.00  0.00    +0.000 C 
ATOM      9  C   UNL     1       2.624   4.137  18.597  0.00  0.00    +0.000 A 
ATOM     10  C   UNL     1       3.944   4.361  18.197  0.00  0.00    +0.000 A 
ATOM     11  C   UNL     1       5.032   3.776  18.818  0.00  0.00    +0.000 A 
ATOM     12  C   UNL     1       4.768   2.939  19.900  0.00  0.00    +0.000 A 
ATOM     13  C   UNL     1       3.444   2.716  20.329  0.00  0.00    +0.000 A 
ATOM     14  C   UNL     1       2.344   3.314  19.682  0.00  0.00    +0.000 A 
ATOM     15  C   UNL     1       3.969   5.589  17.372  0.00  0.00    +0.000 C 
ATOM     16  O   UNL     1       4.970   6.060  16.855  0.00  0.00    +0.000 OA
BRANCH  14  17
ATOM     17  C   UNL     1       0.962   3.141  20.269  0.00  0.00    +0.000 C 
ATOM     18  F   UNL     1       0.935   2.469  21.447  0.00  0.00    +0.000 F 
ATOM     19  F   UNL     1       0.357   4.335  20.512  0.00  0.00    +0.000 F 
ATOM     20  F   UNL     1       0.128   2.465  19.433  0.00  0.00    +0.000 F 
ENDBRANCH  14  17
ENDBRANCH   5   7
BRANCH   1  25
ATOM     21  N   UNL     1      -1.457  11.590  17.943  0.00  0.00    +0.000 NA
ATOM     22  C   UNL     1      -1.232  12.623  18.970  0.00  0.00    +0.000 C 
ATOM     23  C   UNL     1       0.253  12.939  19.139  0.00  0.00    +0.000 C 
ATOM     24  C   UNL     1       1.027  11.696  19.541  0.00  0.00    +0.000 C 
ATOM     25  C   UNL     1       0.765  10.550  18.560  0.00  0.00    +0.000 C 
ATOM     26  C   UNL     1      -0.747  10.345  18.292  0.00  0.00    +0.000 C 
BRANCH  21  28
ATOM     27  C   UNL     1      -3.302   9.912  17.554  0.00  0.00    +0.000 C 
ATOM     28  C   UNL     1      -2.910  11.365  17.797  0.00  0.00    +0.000 C 
ENDBRANCH  21  28
ENDBRANCH   1  25
TORSDOF 4
ENDMDL
MODEL 2
REMARK VINA RESULT:      -8.8      0.703      1.008
REMARK  Name = 
REMARK  5 active torsions:
REMARK  status: ('A' for Active; 'I' for Inactive)
REMARK    1  A    between atoms: C_1  and  C_2
REMARK    2  A    between atoms: C_2  and  N_3
REMARK    3  A    between atoms: C_7  and  C_8
REMARK    4  A    between atoms: C_12  and  N_13
REMARK    5  A    between atoms: C_20  and  C_21
REMARK                            x       y       z     vdW  Elec       q    Type
REMARK                         _______ _______ _______ _____ _____    ______ ____
ROOT
ATOM      1  C   UNL     1       1.026   9.354  19.568  0.00  0.00    +0.000 A 
ATOM      2  C   UNL     1       0.755   8.649  20.752  0.00  0.00    +0.000 A 
ATOM      3  C   UNL     1       1.432   7.473  21.052  0.00  0.00    +0.000 A 
ATOM      4  C   UNL     1       2.297   6.922  20.118  0.00  0.00    +0.000 A 
ATOM      5  C   UNL     1       2.386   7.487  18.837  0.00  0.00    +0.000 A 
ATOM      6  C   UNL     1       1.880   8.775  18.621  0.00  0.00    +0.000 A 
ENDROOT
BRANCH   5   7
ATOM      7  N   UNL     1       2.534   6.614  17.679  0.00  0.00    +0.000 N 
ATOM      8  C   UNL     1       1.682   5.410  17.829  0.00  0.00    +0.000 C 
ATOM      9  C   UNL     1       2.615   4.443  18.493  0.00  0.00    +0.000 A 
ATOM     10  C   UNL     1       3.914   4.801  18.124  0.00  0.00    +0.000 A 
ATOM     11  C   UNL     1       5.042   4.219  18.671  0.00  0.00    +0.000 A 
ATOM     12  C   UNL     1       4.843   3.242  19.643  0.00  0.00    +0.000 A 
ATOM     13  C   UNL     1       3.540   2.882  20.042  0.00  0.00    +0.000 A 
ATOM     14  C   UNL     1       2.398   3.479  19.470  0.00  0.00    +0.000 A 
ATOM     15  C   UNL     1       3.851   6.119  17.453  0.00  0.00    +0.000 C 
ATOM     16  O   UNL     1       4.815   6.713  16.998  0.00  0.00    +0.000 OA
BRANCH  14  17
ATOM     17  C   UNL     1       1.034   3.145  20.031  0.00  0.00    +0.000 C 
ATOM     18  F   UNL     1       0.308   4.224  20.414  0.00  0.00    +0.000 F 
ATOM     19  F   UNL     1       0.260   2.480  19.132  0.00  0.00    +0.000 F 
ATOM     20  F   UNL     1       1.110   2.338  21.124  0.00  0.00    +0.000 F 
ENDBRANCH  14  17
ENDBRANCH   5   7
BRANCH   1  25
ATOM     21  N   UNL     1      -1.636  11.562  17.890  0.00  0.00    +0.000 NA
ATOM     22  C   UNL     1      -2.236  12.075  19.134  0.00  0.00    +0.000 C 
ATOM     23  C   UNL     1      -1.170  12.473  20.154  0.00  0.00    +0.000 C 
ATOM     24  C   UNL     1      -0.291  11.286  20.508  0.00  0.00    +0.000 C 
ATOM     25  C   UNL     1       0.294  10.647  19.245  0.00  0.00    +0.000 C 
ATOM     26  C   UNL     1      -0.787  10.388  18.166  0.00  0.00    +0.000 C 
BRANCH  21  28
ATOM     27  C   UNL     1      -2.585   9.872  16.272  0.00  0.00    +0.000 C 
ATOM     28  C   UNL     1      -2.715  11.240  16.933  0.00  0.00    +0.000 C 
ENDBRANCH  21  28
ENDBRANCH   1  25
TORSDOF 4
ENDMDL
MODEL 3
REMARK VINA RESULT:      -8.7      2.984      3.906
REMARK  Name = 
REMARK  5 active torsions:
REMARK  status: ('A' for Active; 'I' for Inactive)
REMARK    1  A    between atoms: C_1  and  C_2
REMARK    2  A    between atoms: C_2  and  N_3
REMARK    3  A    between atoms: C_7  and  C_8
REMARK    4  A    between atoms: C_12  and  N_13
REMARK    5  A    between atoms: C_20  and  C_21
REMARK                            x       y       z     vdW  Elec       q    Type
REMARK                         _______ _______ _______ _____ _____    ______ ____
ROOT
ATOM      1  C   UNL     1       1.357   8.785  20.215  0.00  0.00    +0.000 A 
ATOM      2  C   UNL     1       1.705   9.149  18.904  0.00  0.00    +0.000 A 
ATOM      3  C   UNL     1       2.146   8.197  17.993  0.00  0.00    +0.000 A 
ATOM      4  C   UNL     1       2.363   6.894  18.414  0.00  0.00    +0.000 A 
ATOM      5  C   UNL     1       2.255   6.577  19.777  0.00  0.00    +0.000 A 
ATOM      6  C   UNL     1       1.606   7.472  20.637  0.00  0.00    +0.000 A 
ENDROOT
BRANCH   5   7
ATOM      7  N   UNL     1       3.188   5.626  20.366  0.00  0.00    +0.000 N 
ATOM      8  C   UNL     1       4.340   5.405  19.460  0.00  0.00    +0.000 C 
ATOM      9  C   UNL     1       3.883   4.230  18.649  0.00  0.00    +0.000 A 
ATOM     10  C   UNL     1       2.981   3.509  19.436  0.00  0.00    +0.000 A 
ATOM     11  C   UNL     1       2.243   2.443  18.957  0.00  0.00    +0.000 A 
ATOM     12  C   UNL     1       2.419   2.104  17.618  0.00  0.00    +0.000 A 
ATOM     13  C   UNL     1       3.310   2.831  16.804  0.00  0.00    +0.000 A 
ATOM     14  C   UNL     1       4.062   3.911  17.308  0.00  0.00    +0.000 A 
ATOM     15  C   UNL     1       2.656   4.329  20.625  0.00  0.00    +0.000 C 
ATOM     16  O   UNL     1       1.902   3.986  21.521  0.00  0.00    +0.000 OA
BRANCH  14  17
ATOM     17  C   UNL     1       4.901   4.733  16.356  0.00  0.00    +0.000 C 
ATOM     18  F   UNL     1       4.508   6.026  16.239  0.00  0.00    +0.000 F 
ATOM     19  F   UNL     1       6.207   4.777  16.733  0.00  0.00    +0.000 F 
ATOM     20  F   UNL     1       4.895   4.224  15.094  0.00  0.00    +0.000 F 
ENDBRANCH  14  17
ENDBRANCH   5   7
BRANCH   1  25
ATOM     21  N   UNL     1      -0.247  12.093  21.337  0.00  0.00    +0.000 NA
ATOM     22  C   UNL     1      -1.333  11.491  22.131  0.00  0.00    +0.000 C 
ATOM     23  C   UNL     1      -0.830  10.334  22.992  0.00  0.00    +0.000 C 
ATOM     24  C   UNL     1      -0.217   9.245  22.128  0.00  0.00    +0.000 C 
ATOM     25  C   UNL     1       0.863   9.824  21.209  0.00  0.00    +0.000 C 
ATOM     26  C   UNL     1       0.374  11.087  20.456  0.00  0.00    +0.000 C 
BRANCH  21  28
ATOM     27  C   UNL     1      -0.845  13.002  19.060  0.00  0.00    +0.000 C 
ATOM     28  C   UNL     1      -0.789  13.231  20.566  0.00  0.00    +0.000 C 
ENDBRANCH  21  28
ENDBRANCH   1  25
TORSDOF 4
ENDMDL
MODEL 4
REMARK VINA RESULT:      -8.6      3.431      4.660
REMARK  Name = 
REMARK  5 active torsions:
REMARK  status: ('A' for Active; 'I' for Inactive)
REMARK    1  A    between atoms: C_1  and  C_2
REMARK    2  A    between atoms: C_2  and  N_3
REMARK    3  A    between atoms: C_7  and  C_8
REMARK    4  A    between atoms: C_12  and  N_13
REMARK    5  A    between atoms: C_20  and  C_21
REMARK                            x       y       z     vdW  Elec       q    Type
REMARK                         _______ _______ _______ _____ _____    ______ ____
ROOT
ATOM      1  C   UNL     1       1.860   8.030  19.887  0.00  0.00    +0.000 A 
ATOM      2  C   UNL     1       2.244   8.645  18.684  0.00  0.00    +0.000 A 
ATOM      3  C   UNL     1       2.685   7.888  17.606  0.00  0.00    +0.000 A 
ATOM      4  C   UNL     1       2.867   6.521  17.756  0.00  0.00    +0.000 A 
ATOM      5  C   UNL     1       2.722   5.937  19.024  0.00  0.00    +0.000 A 
ATOM      6  C   UNL     1       2.072   6.654  20.037  0.00  0.00    +0.000 A 
ENDROOT
BRANCH   5   7
ATOM      7  N   UNL     1       3.623   4.864  19.424  0.00  0.00    +0.000 N 
ATOM      8  C   UNL     1       5.022   5.351  19.458  0.00  0.00    +0.000 C 
ATOM      9  C   UNL     1       5.499   5.037  18.072  0.00  0.00    +0.000 A 
ATOM     10  C   UNL     1       4.751   3.950  17.612  0.00  0.00    +0.000 A 
ATOM     11  C   UNL     1       4.817   3.482  16.313  0.00  0.00    +0.000 A 
ATOM     12  C   UNL     1       5.669   4.155  15.441  0.00  0.00    +0.000 A 
ATOM     13  C   UNL     1       6.418   5.264  15.882  0.00  0.00    +0.000 A 
ATOM     14  C   UNL     1       6.346   5.726  17.211  0.00  0.00    +0.000 A 
ATOM     15  C   UNL     1       3.638   3.727  18.563  0.00  0.00    +0.000 C 
ATOM     16  O   UNL     1       2.801   2.846  18.459  0.00  0.00    +0.000 OA
BRANCH  14  17
ATOM     17  C   UNL     1       7.072   6.997  17.589  0.00  0.00    +0.000 C 
ATOM     18  F   UNL     1       7.970   7.423  16.666  0.00  0.00    +0.000 F 
ATOM     19  F   UNL     1       6.216   8.038  17.777  0.00  0.00    +0.000 F 
ATOM     20  F   UNL     1       7.763   6.869  18.754  0.00  0.00    +0.000 F 
ENDBRANCH  14  17
ENDBRANCH   5   7
BRANCH   1  25
ATOM     21  N   UNL     1       0.592  11.185  21.680  0.00  0.00    +0.000 NA
ATOM     22  C   UNL     1      -0.686  10.614  22.139  0.00  0.00    +0.000 C 
ATOM     23  C   UNL     1      -0.508   9.205  22.700  0.00  0.00    +0.000 C 
ATOM     24  C   UNL     1       0.075   8.276  21.648  0.00  0.00    +0.000 C 
ATOM     25  C   UNL     1       1.365   8.857  21.063  0.00  0.00    +0.000 C 
ATOM     26  C   UNL     1       1.197  10.337  20.637  0.00  0.00    +0.000 C 
BRANCH  21  28
ATOM     27  C   UNL     1      -0.007  12.656  19.718  0.00  0.00    +0.000 C 
ATOM     28  C   UNL     1       0.358  12.561  21.196  0.00  0.00    +0.000 C 
ENDBRANCH  21  28
ENDBRANCH   1  25
TORSDOF 4
ENDMDL
MODEL 5
REMARK VINA RESULT:      -8.4      1.038      1.423
REMARK  Name = 
REMARK  5 active torsions:
REMARK  status: ('A' for Active; 'I' for Inactive)
REMARK    1  A    between atoms: C_1  and  C_2
REMARK    2  A    between atoms: C_2  and  N_3
REMARK    3  A    between atoms: C_7  and  C_8
REMARK    4  A    between atoms: C_12  and  N_13
REMARK    5  A    between atoms: C_20  and  C_21
REMARK                            x       y       z     vdW  Elec       q    Type
REMARK                         _______ _______ _______ _____ _____    ______ ____
ROOT
ATOM      1  C   UNL     1       1.295   9.371  19.170  0.00  0.00    +0.000 A 
ATOM      2  C   UNL     1       0.941   8.789  20.397  0.00  0.00    +0.000 A 
ATOM      3  C   UNL     1       1.518   7.595  20.812  0.00  0.00    +0.000 A 
ATOM      4  C   UNL     1       2.361   6.905  19.954  0.00  0.00    +0.000 A 
ATOM      5  C   UNL     1       2.526   7.354  18.634  0.00  0.00    +0.000 A 
ATOM      6  C   UNL     1       2.126   8.654  18.299  0.00  0.00    +0.000 A 
ENDROOT
BRANCH   5   7
ATOM      7  N   UNL     1       2.637   6.380  17.556  0.00  0.00    +0.000 N 
ATOM      8  C   UNL     1       1.735   5.230  17.806  0.00  0.00    +0.000 C 
ATOM      9  C   UNL     1       2.628   4.286  18.553  0.00  0.00    +0.000 A 
ATOM     10  C   UNL     1       3.941   4.556  18.158  0.00  0.00    +0.000 A 
ATOM     11  C   UNL     1       5.045   3.977  18.755  0.00  0.00    +0.000 A 
ATOM     12  C   UNL     1       4.806   3.097  19.807  0.00  0.00    +0.000 A 
ATOM     13  C   UNL     1       3.490   2.826  20.232  0.00  0.00    +0.000 A 
ATOM     14  C   UNL     1       2.373   3.418  19.609  0.00  0.00    +0.000 A 
ATOM     15  C   UNL     1       3.932   5.813  17.376  0.00  0.00    +0.000 C 
ATOM     16  O   UNL     1       4.919   6.327  16.874  0.00  0.00    +0.000 OA
BRANCH  14  17
ATOM     17  C   UNL     1       0.997   3.190  20.193  0.00  0.00    +0.000 C 
ATOM     18  F   UNL     1       0.144   2.528  19.371  0.00  0.00    +0.000 F 
ATOM     19  F   UNL     1       1.043   2.461  21.340  0.00  0.00    +0.000 F 
ATOM     20  F   UNL     1       0.375   4.356  20.517  0.00  0.00    +0.000 F 
ENDBRANCH  14  17
ENDBRANCH   5   7
BRANCH   1  25
ATOM     21  N   UNL     1      -1.139  12.343  19.323  0.00  0.00    +0.000 NA
ATOM     22  C   UNL     1      -0.113  13.395  19.418  0.00  0.00    +0.000 C 
ATOM     23  C   UNL     1       1.038  13.154  18.443  0.00  0.00    +0.000 C 
ATOM     24  C   UNL     1       1.705  11.816  18.716  0.00  0.00    +0.000 C 
ATOM     25  C   UNL     1       0.673  10.684  18.720  0.00  0.00    +0.000 C 
ATOM     26  C   UNL     1      -0.556  11.018  19.603  0.00  0.00    +0.000 C 
BRANCH  21  28
ATOM     27  C   UNL     1      -1.984  12.248  21.700  0.00  0.00    +0.000 C 
ATOM     28  C   UNL     1      -2.241  12.660  20.254  0.00  0.00    +0.000 C 
ENDBRANCH  21  28
ENDBRANCH   1  25
TORSDOF 4
ENDMDL
MODEL 6
REMARK VINA RESULT:      -8.3      1.029      2.019
REMARK  Name = 
REMARK  5 active torsions:
REMARK  status: ('A' for Active; 'I' for Inactive)
REMARK    1  A    between atoms: C_1  and  C_2
REMARK    2  A    between atoms: C_2  and  N_3
REMARK    3  A    between atoms: C_7  and  C_8
REMARK    4  A    between atoms: C_12  and  N_13
REMARK    5  A    between atoms: C_20  and  C_21
REMARK                            x       y       z     vdW  Elec       q    Type
REMARK                         _______ _______ _______ _____ _____    ______ ____
ROOT
ATOM      1  C   UNL     1       0.860   9.281  19.994  0.00  0.00    +0.000 A 
ATOM      2  C   UNL     1       0.612   8.447  21.096  0.00  0.00    +0.000 A 
ATOM      3  C   UNL     1       1.332   7.273  21.279  0.00  0.00    +0.000 A 
ATOM      4  C   UNL     1       2.221   6.854  20.300  0.00  0.00    +0.000 A 
ATOM      5  C   UNL     1       2.293   7.552  19.084  0.00  0.00    +0.000 A 
ATOM      6  C   UNL     1       1.739   8.835  18.998  0.00  0.00    +0.000 A 
ENDROOT
BRANCH   5   7
ATOM      7  N   UNL     1       2.479   6.810  17.843  0.00  0.00    +0.000 N 
ATOM      8  C   UNL     1       1.671   5.567  17.860  0.00  0.00    +0.000 C 
ATOM      9  C   UNL     1       2.636   4.571  18.430  0.00  0.00    +0.000 A 
ATOM     10  C   UNL     1       3.923   5.011  18.111  0.00  0.00    +0.000 A 
ATOM     11  C   UNL     1       5.069   4.417  18.604  0.00  0.00    +0.000 A 
ATOM     12  C   UNL     1       4.900   3.338  19.468  0.00  0.00    +0.000 A 
ATOM     13  C   UNL     1       3.610   2.892  19.816  0.00  0.00    +0.000 A 
ATOM     14  C   UNL     1       2.450   3.503  19.300  0.00  0.00    +0.000 A 
ATOM     15  C   UNL     1       3.815   6.389  17.579  0.00  0.00    +0.000 C 
ATOM     16  O   UNL     1       4.758   7.062  17.196  0.00  0.00    +0.000 OA
BRANCH  14  17
ATOM     17  C   UNL     1       1.096   3.064  19.811  0.00  0.00    +0.000 C 
ATOM     18  F   UNL     1       1.148   2.170  20.830  0.00  0.00    +0.000 F 
ATOM     19  F   UNL     1       0.361   4.109  20.274  0.00  0.00    +0.000 F 
ATOM     20  F   UNL     1       0.343   2.480  18.839  0.00  0.00    +0.000 F 
ENDBRANCH  14  17
ENDBRANCH   5   7
BRANCH   1  25
ATOM     21  N   UNL     1       0.360  12.983  19.088  0.00  0.00    +0.000 NA
ATOM     22  C   UNL     1      -0.641  12.762  18.029  0.00  0.00    +0.000 C 
ATOM     23  C   UNL     1      -1.688  11.732  18.446  0.00  0.00    +0.000 C 
ATOM     24  C   UNL     1      -1.035  10.398  18.765  0.00  0.00    +0.000 C 
ATOM     25  C   UNL     1       0.080  10.572  19.800  0.00  0.00    +0.000 C 
ATOM     26  C   UNL     1       1.048  11.723  19.427  0.00  0.00    +0.000 C 
BRANCH  21  28
ATOM     27  C   UNL     1       2.731  13.514  18.405  0.00  0.00    +0.000 C 
ATOM     28  C   UNL     1       1.312  14.020  18.642  0.00  0.00    +0.000 C 
ENDBRANCH  21  28
ENDBRANCH   1  25
TORSDOF 4
ENDMDL
MODEL 7
REMARK VINA RESULT:      -8.2      3.046      3.920
REMARK  Name = 
REMARK  5 active torsions:
REMARK  status: ('A' for Active; 'I' for Inactive)
REMARK    1  A    between atoms: C_1  and  C_2
REMARK    2  A    between atoms: C_2  and  N_3
REMARK    3  A    between atoms: C_7  and  C_8
REMARK    4  A    between atoms: C_12  and  N_13
REMARK    5  A    between atoms: C_20  and  C_21
REMARK                            x       y       z     vdW  Elec       q    Type
REMARK                         _______ _______ _______ _____ _____    ______ ____
ROOT
ATOM      1  C   UNL     1       1.340   9.152  18.813  0.00  0.00    +0.000 A 
ATOM      2  C   UNL     1       2.255   9.513  17.811  0.00  0.00    +0.000 A 
ATOM      3  C   UNL     1       3.116   8.573  17.258  0.00  0.00    +0.000 A 
ATOM      4  C   UNL     1       3.159   7.290  17.784  0.00  0.00    +0.000 A 
ATOM      5  C   UNL     1       2.427   6.990  18.943  0.00  0.00    +0.000 A 
ATOM      6  C   UNL     1       1.411   7.862  19.355  0.00  0.00    +0.000 A 
ENDROOT
BRANCH   5   7
ATOM      7  N   UNL     1       3.005   6.102  19.943  0.00  0.00    +0.000 N 
ATOM      8  C   UNL     1       4.301   5.563  19.467  0.00  0.00    +0.000 C 
ATOM      9  C   UNL     1       3.885   4.291  18.791  0.00  0.00    +0.000 A 
ATOM     10  C   UNL     1       2.703   3.864  19.402  0.00  0.00    +0.000 A 
ATOM     11  C   UNL     1       1.951   2.803  18.935  0.00  0.00    +0.000 A 
ATOM     12  C   UNL     1       2.413   2.156  17.791  0.00  0.00    +0.000 A 
ATOM     13  C   UNL     1       3.593   2.584  17.151  0.00  0.00    +0.000 A 
ATOM     14  C   UNL     1       4.353   3.664  17.642  0.00  0.00    +0.000 A 
ATOM     15  C   UNL     1       2.218   4.959  20.272  0.00  0.00    +0.000 C 
ATOM     16  O   UNL     1       1.210   4.907  20.958  0.00  0.00    +0.000 OA
BRANCH  14  17
ATOM     17  C   UNL     1       5.535   4.158  16.839  0.00  0.00    +0.000 C 
ATOM     18  F   UNL     1       6.674   4.314  17.560  0.00  0.00    +0.000 F 
ATOM     19  F   UNL     1       5.854   3.310  15.825  0.00  0.00    +0.000 F 
ATOM     20  F   UNL     1       5.293   5.363  16.255  0.00  0.00    +0.000 F 
ENDBRANCH  14  17
ENDBRANCH   5   7
BRANCH   1  25
ATOM     21  N   UNL     1      -0.710  10.849  21.587  0.00  0.00    +0.000 NA
ATOM     22  C   UNL     1      -0.087  12.178  21.465  0.00  0.00    +0.000 C 
ATOM     23  C   UNL     1       0.072  12.597  20.005  0.00  0.00    +0.000 C 
ATOM     24  C   UNL     1       0.934  11.600  19.249  0.00  0.00    +0.000 C 
ATOM     25  C   UNL     1       0.390  10.178  19.410  0.00  0.00    +0.000 C 
ATOM     26  C   UNL     1       0.097   9.829  20.891  0.00  0.00    +0.000 C 
BRANCH  21  28
ATOM     27  C   UNL     1       0.034   9.412  23.525  0.00  0.00    +0.000 C 
ATOM     28  C   UNL     1      -0.878  10.526  23.019  0.00  0.00    +0.000 C 
ENDBRANCH  21  28
ENDBRANCH   1  25
TORSDOF 4
ENDMDL
MODEL 8
REMARK VINA RESULT:      -8.2      4.570      8.851
REMARK  Name = 
REMARK  5 active torsions:
REMARK  status: ('A' for Active; 'I' for Inactive)
REMARK    1  A    between atoms: C_1  and  C_2
REMARK    2  A    between atoms: C_2  and  N_3
REMARK    3  A    between atoms: C_7  and  C_8
REMARK    4  A    between atoms: C_12  and  N_13
REMARK    5  A    between atoms: C_20  and  C_21
REMARK                            x       y       z     vdW  Elec       q    Type
REMARK                         _______ _______ _______ _____ _____    ______ ____
ROOT
ATOM      1  C   UNL     1       0.844   9.121  21.052  0.00  0.00    +0.000 A 
ATOM      2  C   UNL     1       0.799   9.009  22.451  0.00  0.00    +0.000 A 
ATOM      3  C   UNL     1      -0.148   9.704  23.192  0.00  0.00    +0.000 A 
ATOM      4  C   UNL     1      -0.981  10.614  22.559  0.00  0.00    +0.000 A 
ATOM      5  C   UNL     1      -0.778  10.915  21.203  0.00  0.00    +0.000 A 
ATOM      6  C   UNL     1       0.017  10.063  20.426  0.00  0.00    +0.000 A 
ENDROOT
BRANCH   5   7
ATOM      7  N   UNL     1      -0.958  12.285  20.739  0.00  0.00    +0.000 N 
ATOM      8  C   UNL     1      -1.633  13.097  21.780  0.00  0.00    +0.000 C 
ATOM      9  C   UNL     1      -3.078  12.938  21.415  0.00  0.00    +0.000 A 
ATOM     10  C   UNL     1      -3.135  12.691  20.041  0.00  0.00    +0.000 A 
ATOM     11  C   UNL     1      -4.299  12.346  19.382  0.00  0.00    +0.000 A 
ATOM     12  C   UNL     1      -5.453  12.234  20.154  0.00  0.00    +0.000 A 
ATOM     13  C   UNL     1      -5.412  12.461  21.544  0.00  0.00    +0.000 A 
ATOM     14  C   UNL     1      -4.218  12.820  22.201  0.00  0.00    +0.000 A 
ATOM     15  C   UNL     1      -1.756  12.432  19.567  0.00  0.00    +0.000 C 
ATOM     16  O   UNL     1      -1.452  12.191  18.411  0.00  0.00    +0.000 OA
BRANCH  14  17
ATOM     17  C   UNL     1      -4.211  12.923  23.710  0.00  0.00    +0.000 C 
ATOM     18  F   UNL     1      -5.443  12.895  24.277  0.00  0.00    +0.000 F 
ATOM     19  F   UNL     1      -3.517  11.907  24.288  0.00  0.00    +0.000 F 
ATOM     20  F   UNL     1      -3.624  14.071  24.146  0.00  0.00    +0.000 F 
ENDBRANCH  14  17
ENDBRANCH   5   7
BRANCH   1  25
ATOM     21  N   UNL     1       2.607   6.000  19.663  0.00  0.00    +0.000 NA
ATOM     22  C   UNL     1       2.391   6.306  18.239  0.00  0.00    +0.000 C 
ATOM     23  C   UNL     1       2.666   7.775  17.926  0.00  0.00    +0.000 C 
ATOM     24  C   UNL     1       1.762   8.680  18.747  0.00  0.00    +0.000 C 
ATOM     25  C   UNL     1       1.873   8.351  20.238  0.00  0.00    +0.000 C 
ATOM     26  C   UNL     1       1.736   6.833  20.514  0.00  0.00    +0.000 C 
BRANCH  21  28
ATOM     27  C   UNL     1       0.990   4.226  20.444  0.00  0.00    +0.000 C 
ATOM     28  C   UNL     1       2.371   4.559  19.888  0.00  0.00    +0.000 C 
ENDBRANCH  21  28
ENDBRANCH   1  25
TORSDOF 4
ENDMDL
MODEL 9
REMARK VINA RESULT:      -8.2      3.056      4.100
REMARK  Name = 
REMARK  5 active torsions:
REMARK  status: ('A' for Active; 'I' for Inactive)
REMARK    1  A    between atoms: C_1  and  C_2
REMARK    2  A    between atoms: C_2  and  N_3
REMARK    3  A    between atoms: C_7  and  C_8
REMARK    4  A    between atoms: C_12  and  N_13
REMARK    5  A    between atoms: C_20  and  C_21
REMARK                            x       y       z     vdW  Elec       q    Type
REMARK                         _______ _______ _______ _____ _____    ______ ____
ROOT
ATOM      1  C   UNL     1       1.258   9.249  19.677  0.00  0.00    +0.000 A 
ATOM      2  C   UNL     1       1.745   9.590  18.405  0.00  0.00    +0.000 A 
ATOM      3  C   UNL     1       2.307   8.627  17.575  0.00  0.00    +0.000 A 
ATOM      4  C   UNL     1       2.502   7.339  18.053  0.00  0.00    +0.000 A 
ATOM      5  C   UNL     1       2.246   7.054  19.403  0.00  0.00    +0.000 A 
ATOM      6  C   UNL     1       1.485   7.954  20.160  0.00  0.00    +0.000 A 
ENDROOT
BRANCH   5   7
ATOM      7  N   UNL     1       3.126   6.140  20.120  0.00  0.00    +0.000 N 
ATOM      8  C   UNL     1       4.307   5.805  19.290  0.00  0.00    +0.000 C 
ATOM      9  C   UNL     1       3.850   4.570  18.574  0.00  0.00    +0.000 A 
ATOM     10  C   UNL     1       2.896   3.950  19.385  0.00  0.00    +0.000 A 
ATOM     11  C   UNL     1       2.148   2.862  18.976  0.00  0.00    +0.000 A 
ATOM     12  C   UNL     1       2.369   2.392  17.684  0.00  0.00    +0.000 A 
ATOM     13  C   UNL     1       3.314   3.016  16.845  0.00  0.00    +0.000 A 
ATOM     14  C   UNL     1       4.075   4.121  17.278  0.00  0.00    +0.000 A 
ATOM     15  C   UNL     1       2.546   4.887  20.476  0.00  0.00    +0.000 C 
ATOM     16  O   UNL     1       1.746   4.650  21.366  0.00  0.00    +0.000 OA
BRANCH  14  17
ATOM     17  C   UNL     1       4.976   4.826  16.291  0.00  0.00    +0.000 C 
ATOM     18  F   UNL     1       4.995   4.269  15.054  0.00  0.00    +0.000 F 
ATOM     19  F   UNL     1       4.614   6.124  16.104  0.00  0.00    +0.000 F 
ATOM     20  F   UNL     1       6.272   4.858  16.707  0.00  0.00    +0.000 F 
ENDBRANCH  14  17
ENDBRANCH   5   7
BRANCH   1  25
ATOM     21  N   UNL     1       0.875  12.713  21.300  0.00  0.00    +0.000 NA
ATOM     22  C   UNL     1      -0.498  12.967  20.828  0.00  0.00    +0.000 C 
ATOM     23  C   UNL     1      -1.388  11.736  20.986  0.00  0.00    +0.000 C 
ATOM     24  C   UNL     1      -0.828  10.562  20.201  0.00  0.00    +0.000 C 
ATOM     25  C   UNL     1       0.632  10.300  20.581  0.00  0.00    +0.000 C 
ATOM     26  C   UNL     1       1.483  11.595  20.555  0.00  0.00    +0.000 C 
BRANCH  21  28
ATOM     27  C   UNL     1       2.870  13.833  20.233  0.00  0.00    +0.000 C 
ATOM     28  C   UNL     1       1.667  13.953  21.164  0.00  0.00    +0.000 C 
ENDBRANCH  21  28
ENDBRANCH   1  25
TORSDOF 4
ENDMDL
