MODEL 1
REMARK VINA RESULT:      -9.0      0.000      0.000
REMARK  Name = 
REMARK  8 active torsions:
REMARK  status: ('A' for Active; 'I' for Inactive)
REMARK    1  A    between atoms: C_1  and  C_2
REMARK    2  A    between atoms: C_2  and  C_3
REMARK    3  A    between atoms: C_7  and  C_8
REMARK    4  A    between atoms: N_14  and  C_15
REMARK    5  A    between atoms: C_19  and  C_20
REMARK    6  A    between atoms: C_20  and  C_21
REMARK    7  A    between atoms: C_21  and  C_22
REMARK    8  A    between atoms: N_26  and  C_27
REMARK                            x       y       z     vdW  Elec       q    Type
REMARK                         _______ _______ _______ _____ _____    ______ ____
ROOT
ATOM      1  C   UNL     1       0.113  11.680  19.400  0.00  0.00    +0.000 A 
ATOM      2  C   UNL     1       0.853  10.807  18.601  0.00  0.00    +0.000 A 
ATOM      3  C   UNL     1       1.218   9.596  19.149  0.00  0.00    +0.000 A 
ATOM      4  C   UNL     1       0.876   9.207  20.445  0.00  0.00    +0.000 A 
ATOM      5  C   UNL     1       0.185  10.078  21.279  0.00  0.00    +0.000 A 
ATOM      6  C   UNL     1      -0.184  11.321  20.738  0.00  0.00    +0.000 A 
ATOM      7  C   UNL     1       1.344   7.810  20.682  0.00  0.00    +0.000 C 
ATOM      8  N   UNL     1       1.977   7.460  19.419  0.00  0.00    +0.000 N 
ATOM      9  C   UNL     1       1.957   8.516  18.512  0.00  0.00    +0.000 C 
ATOM     10  O   UNL     1       2.451   8.633  17.403  0.00  0.00    +0.000 OA
ENDROOT
BRANCH   8  11
ATOM     11  C   UNL     1       2.708   6.270  19.265  0.00  0.00    +0.000 A 
ATOM     12  C   UNL     1       2.566   5.237  20.191  0.00  0.00    +0.000 A 
ATOM     13  C   UNL     1       3.239   4.035  20.012  0.00  0.00    +0.000 A 
ATOM     14  C   UNL     1       4.061   3.858  18.903  0.00  0.00    +0.000 A 
ATOM     15  C   UNL     1       4.206   4.872  17.945  0.00  0.00    +0.000 A 
ATOM     16  C   UNL     1       3.539   6.084  18.151  0.00  0.00    +0.000 A 
BRANCH  15  17
ATOM     17  C   UNL     1       5.057   4.698  16.704  0.00  0.00    +0.000 C 
BRANCH  17  18
ATOM     18  C   UNL     1       6.562   4.657  16.997  0.00  0.00    +0.000 C 
BRANCH  18  19
ATOM     19  C   UNL     1       7.104   6.006  17.338  0.00  0.00    +0.000 A 
ATOM     20  N   UNL     1       7.142   7.058  16.562  0.00  0.00    +0.000 NA
ATOM     21  N   UNL     1       7.804   8.069  17.228  0.00  0.00    +0.000 NA
ATOM     22  C   UNL     1       8.146   7.602  18.401  0.00  0.00    +0.000 A 
ATOM     23  N   UNL     1       7.717   6.316  18.532  0.00  0.00    +0.000 N 
ATOM     24  C   UNL     1       7.904   5.466  19.671  0.00  0.00    +0.000 C 
ENDBRANCH  18  19
ENDBRANCH  17  18
ENDBRANCH  15  17
ENDBRANCH   8  11
BRANCH   5  25
ATOM     25  C   UNL     1      -0.176   9.738  22.700  0.00  0.00    +0.000 C 
ATOM     26  F   UNL     1      -0.830  10.744  23.344  0.00  0.00    +0.000 F 
ATOM     27  F   UNL     1      -0.993   8.652  22.781  0.00  0.00    +0.000 F 
ATOM     28  F   UNL     1       0.910   9.448  23.467  0.00  0.00    +0.000 F 
ENDBRANCH   5  25
BRANCH   1  30
ATOM     29  C   UNL     1       0.635  14.024  18.728  0.00  0.00    +0.000 C 
ATOM     30  C   UNL     1      -0.446  12.955  18.825  0.00  0.00    +0.000 C 
ENDBRANCH   1  30
TORSDOF 6
ENDMDL
MODEL 2
REMARK VINA RESULT:      -8.8      3.427      8.282
REMARK  Name = 
REMARK  8 active torsions:
REMARK  status: ('A' for Active; 'I' for Inactive)
REMARK    1  A    between atoms: C_1  and  C_2
REMARK    2  A    between atoms: C_2  and  C_3
REMARK    3  A    between atoms: C_7  and  C_8
REMARK    4  A    between atoms: N_14  and  C_15
REMARK    5  A    between atoms: C_19  and  C_20
REMARK    6  A    between atoms: C_20  and  C_21
REMARK    7  A    between atoms: C_21  and  C_22
REMARK    8  A    between atoms: N_26  and  C_27
REMARK                            x       y       z     vdW  Elec       q    Type
REMARK                         _______ _______ _______ _____ _____    ______ ____
ROOT
ATOM      1  C   UNL     1       3.860   4.459  17.730  0.00  0.00    +0.000 A 
ATOM      2  C   UNL     1       3.487   5.799  17.611  0.00  0.00    +0.000 A 
ATOM      3  C   UNL     1       2.717   6.338  18.619  0.00  0.00    +0.000 A 
ATOM      4  C   UNL     1       2.311   5.616  19.743  0.00  0.00    +0.000 A 
ATOM      5  C   UNL     1       2.625   4.267  19.861  0.00  0.00    +0.000 A 
ATOM      6  C   UNL     1       3.399   3.701  18.833  0.00  0.00    +0.000 A 
ATOM      7  C   UNL     1       1.579   6.522  20.675  0.00  0.00    +0.000 C 
ATOM      8  N   UNL     1       1.606   7.800  19.977  0.00  0.00    +0.000 N 
ATOM      9  C   UNL     1       2.234   7.706  18.737  0.00  0.00    +0.000 C 
ATOM     10  O   UNL     1       2.376   8.524  17.844  0.00  0.00    +0.000 OA
ENDROOT
BRANCH   8  11
ATOM     11  C   UNL     1       0.874   8.907  20.435  0.00  0.00    +0.000 A 
ATOM     12  C   UNL     1       0.814   9.190  21.800  0.00  0.00    +0.000 A 
ATOM     13  C   UNL     1       0.142  10.317  22.255  0.00  0.00    +0.000 A 
ATOM     14  C   UNL     1      -0.476  11.171  21.347  0.00  0.00    +0.000 A 
ATOM     15  C   UNL     1      -0.415  10.923  19.968  0.00  0.00    +0.000 A 
ATOM     16  C   UNL     1       0.247   9.772  19.527  0.00  0.00    +0.000 A 
BRANCH  15  17
ATOM     17  C   UNL     1      -1.038  11.853  18.948  0.00  0.00    +0.000 C 
BRANCH  17  18
ATOM     18  C   UNL     1      -2.542  11.621  18.750  0.00  0.00    +0.000 C 
BRANCH  18  19
ATOM     19  C   UNL     1      -2.852  11.087  17.390  0.00  0.00    +0.000 A 
ATOM     20  N   UNL     1      -2.062  10.381  16.623  0.00  0.00    +0.000 NA
ATOM     21  N   UNL     1      -2.698  10.171  15.417  0.00  0.00    +0.000 NA
ATOM     22  C   UNL     1      -3.867  10.754  15.487  0.00  0.00    +0.000 A 
ATOM     23  N   UNL     1      -4.025  11.330  16.711  0.00  0.00    +0.000 N 
ATOM     24  C   UNL     1      -5.169  12.065  17.167  0.00  0.00    +0.000 C 
ENDBRANCH  18  19
ENDBRANCH  17  18
ENDBRANCH  15  17
ENDBRANCH   8  11
BRANCH   5  25
ATOM     25  C   UNL     1       2.181   3.422  21.024  0.00  0.00    +0.000 C 
ATOM     26  F   UNL     1       0.840   3.184  21.034  0.00  0.00    +0.000 F 
ATOM     27  F   UNL     1       2.776   2.198  21.031  0.00  0.00    +0.000 F 
ATOM     28  F   UNL     1       2.469   3.986  22.227  0.00  0.00    +0.000 F 
ENDBRANCH   5  25
BRANCH   1  30
ATOM     29  C   UNL     1       5.423   4.908  15.840  0.00  0.00    +0.000 C 
ATOM     30  C   UNL     1       4.819   3.842  16.745  0.00  0.00    +0.000 C 
ENDBRANCH   1  30
TORSDOF 6
ENDMDL
MODEL 3
REMARK VINA RESULT:      -8.8      1.207      1.921
REMARK  Name = 
REMARK  8 active torsions:
REMARK  status: ('A' for Active; 'I' for Inactive)
REMARK    1  A    between atoms: C_1  and  C_2
REMARK    2  A    between atoms: C_2  and  C_3
REMARK    3  A    between atoms: C_7  and  C_8
REMARK    4  A    between atoms: N_14  and  C_15
REMARK    5  A    between atoms: C_19  and  C_20
REMARK    6  A    between atoms: C_20  and  C_21
REMARK    7  A    between atoms: C_21  and  C_22
REMARK    8  A    between atoms: N_26  and  C_27
REMARK                            x       y       z     vdW  Elec       q    Type
REMARK                         _______ _______ _______ _____ _____    ______ ____
ROOT
ATOM      1  C   UNL     1       0.018  11.575  19.454  0.00  0.00    +0.000 A 
ATOM      2  C   UNL     1       0.765  10.729  18.633  0.00  0.00    +0.000 A 
ATOM      3  C   UNL     1       1.177   9.526  19.166  0.00  0.00    +0.000 A 
ATOM      4  C   UNL     1       0.874   9.120  20.466  0.00  0.00    +0.000 A 
ATOM      5  C   UNL     1       0.177   9.965  21.320  0.00  0.00    +0.000 A 
ATOM      6  C   UNL     1      -0.240  11.201  20.795  0.00  0.00    +0.000 A 
ATOM      7  C   UNL     1       1.387   7.736  20.684  0.00  0.00    +0.000 C 
ATOM      8  N   UNL     1       2.004   7.411  19.405  0.00  0.00    +0.000 N 
ATOM      9  C   UNL     1       1.932   8.471  18.505  0.00  0.00    +0.000 C 
ATOM     10  O   UNL     1       2.399   8.609  17.387  0.00  0.00    +0.000 OA
ENDROOT
BRANCH   8  11
ATOM     11  C   UNL     1       2.765   6.244  19.228  0.00  0.00    +0.000 A 
ATOM     12  C   UNL     1       2.145   5.057  18.838  0.00  0.00    +0.000 A 
ATOM     13  C   UNL     1       2.900   3.915  18.603  0.00  0.00    +0.000 A 
ATOM     14  C   UNL     1       4.283   3.952  18.756  0.00  0.00    +0.000 A 
ATOM     15  C   UNL     1       4.935   5.137  19.128  0.00  0.00    +0.000 A 
ATOM     16  C   UNL     1       4.158   6.273  19.383  0.00  0.00    +0.000 A 
BRANCH  15  17
ATOM     17  C   UNL     1       6.441   5.226  19.262  0.00  0.00    +0.000 C 
BRANCH  17  18
ATOM     18  C   UNL     1       7.099   6.093  18.182  0.00  0.00    +0.000 C 
BRANCH  18  19
ATOM     19  C   UNL     1       6.976   5.485  16.823  0.00  0.00    +0.000 A 
ATOM     20  N   UNL     1       7.760   4.584  16.290  0.00  0.00    +0.000 NA
ATOM     21  N   UNL     1       7.353   4.364  14.991  0.00  0.00    +0.000 NA
ATOM     22  C   UNL     1       6.321   5.138  14.770  0.00  0.00    +0.000 A 
ATOM     23  N   UNL     1       6.029   5.852  15.893  0.00  0.00    +0.000 N 
ATOM     24  C   UNL     1       4.973   6.810  16.045  0.00  0.00    +0.000 C 
ENDBRANCH  18  19
ENDBRANCH  17  18
ENDBRANCH  15  17
ENDBRANCH   8  11
BRANCH   5  25
ATOM     25  C   UNL     1      -0.144   9.606  22.746  0.00  0.00    +0.000 C 
ATOM     26  F   UNL     1      -0.792  10.599  23.418  0.00  0.00    +0.000 F 
ATOM     27  F   UNL     1      -0.946   8.510  22.837  0.00  0.00    +0.000 F 
ATOM     28  F   UNL     1       0.965   9.322  23.481  0.00  0.00    +0.000 F 
ENDBRANCH   5  25
BRANCH   1  30
ATOM     29  C   UNL     1      -1.817  13.246  19.706  0.00  0.00    +0.000 C 
ATOM     30  C   UNL     1      -0.591  12.837  18.899  0.00  0.00    +0.000 C 
ENDBRANCH   1  30
TORSDOF 6
ENDMDL
MODEL 4
REMARK VINA RESULT:      -8.8      1.818      2.607
REMARK  Name = 
REMARK  8 active torsions:
REMARK  status: ('A' for Active; 'I' for Inactive)
REMARK    1  A    between atoms: C_1  and  C_2
REMARK    2  A    between atoms: C_2  and  C_3
REMARK    3  A    between atoms: C_7  and  C_8
REMARK    4  A    between atoms: N_14  and  C_15
REMARK    5  A    between atoms: C_19  and  C_20
REMARK    6  A    between atoms: C_20  and  C_21
REMARK    7  A    between atoms: C_21  and  C_22
REMARK    8  A    between atoms: N_26  and  C_27
REMARK                            x       y       z     vdW  Elec       q    Type
REMARK                         _______ _______ _______ _____ _____    ______ ____
ROOT
ATOM      1  C   UNL     1       0.342  11.961  19.662  0.00  0.00    +0.000 A 
ATOM      2  C   UNL     1       0.995  11.177  18.710  0.00  0.00    +0.000 A 
ATOM      3  C   UNL     1       1.307   9.881  19.057  0.00  0.00    +0.000 A 
ATOM      4  C   UNL     1       0.993   9.323  20.297  0.00  0.00    +0.000 A 
ATOM      5  C   UNL     1       0.390  10.096  21.282  0.00  0.00    +0.000 A 
ATOM      6  C   UNL     1       0.076  11.425  20.945  0.00  0.00    +0.000 A 
ATOM      7  C   UNL     1       1.383   7.882  20.305  0.00  0.00    +0.000 C 
ATOM      8  N   UNL     1       1.944   7.689  18.975  0.00  0.00    +0.000 N 
ATOM      9  C   UNL     1       1.952   8.868  18.234  0.00  0.00    +0.000 C 
ATOM     10  O   UNL     1       2.409   9.121  17.132  0.00  0.00    +0.000 OA
ENDROOT
BRANCH   8  11
ATOM     11  C   UNL     1       2.594   6.498  18.615  0.00  0.00    +0.000 A 
ATOM     12  C   UNL     1       2.008   5.265  18.905  0.00  0.00    +0.000 A 
ATOM     13  C   UNL     1       2.616   4.085  18.498  0.00  0.00    +0.000 A 
ATOM     14  C   UNL     1       3.817   4.128  17.796  0.00  0.00    +0.000 A 
ATOM     15  C   UNL     1       4.419   5.354  17.473  0.00  0.00    +0.000 A 
ATOM     16  C   UNL     1       3.806   6.532  17.909  0.00  0.00    +0.000 A 
BRANCH  15  17
ATOM     17  C   UNL     1       5.703   5.440  16.674  0.00  0.00    +0.000 C 
BRANCH  17  18
ATOM     18  C   UNL     1       5.834   4.342  15.611  0.00  0.00    +0.000 C 
BRANCH  18  19
ATOM     19  C   UNL     1       6.780   4.727  14.521  0.00  0.00    +0.000 A 
ATOM     20  N   UNL     1       7.797   5.543  14.613  0.00  0.00    +0.000 NA
ATOM     21  N   UNL     1       8.350   5.696  13.359  0.00  0.00    +0.000 NA
ATOM     22  C   UNL     1       7.653   4.958  12.534  0.00  0.00    +0.000 A 
ATOM     23  N   UNL     1       6.664   4.313  13.212  0.00  0.00    +0.000 N 
ATOM     24  C   UNL     1       5.691   3.418  12.656  0.00  0.00    +0.000 C 
ENDBRANCH  18  19
ENDBRANCH  17  18
ENDBRANCH  15  17
ENDBRANCH   8  11
BRANCH   5  25
ATOM     25  C   UNL     1       0.064   9.569  22.653  0.00  0.00    +0.000 C 
ATOM     26  F   UNL     1      -0.762   8.486  22.630  0.00  0.00    +0.000 F 
ATOM     27  F   UNL     1       1.175   9.175  23.334  0.00  0.00    +0.000 F 
ATOM     28  F   UNL     1      -0.552  10.491  23.441  0.00  0.00    +0.000 F 
ENDBRANCH   5  25
BRANCH   1  30
ATOM     29  C   UNL     1      -1.511  13.603  19.960  0.00  0.00    +0.000 C 
ATOM     30  C   UNL     1      -0.161  13.336  19.306  0.00  0.00    +0.000 C 
ENDBRANCH   1  30
TORSDOF 6
ENDMDL
MODEL 5
REMARK VINA RESULT:      -8.7      0.627      1.336
REMARK  Name = 
REMARK  8 active torsions:
REMARK  status: ('A' for Active; 'I' for Inactive)
REMARK    1  A    between atoms: C_1  and  C_2
REMARK    2  A    between atoms: C_2  and  C_3
REMARK    3  A    between atoms: C_7  and  C_8
REMARK    4  A    between atoms: N_14  and  C_15
REMARK    5  A    between atoms: C_19  and  C_20
REMARK    6  A    between atoms: C_20  and  C_21
REMARK    7  A    between atoms: C_21  and  C_22
REMARK    8  A    between atoms: N_26  and  C_27
REMARK                            x       y       z     vdW  Elec       q    Type
REMARK                         _______ _______ _______ _____ _____    ______ ____
ROOT
ATOM      1  C   UNL     1       0.186  11.712  19.380  0.00  0.00    +0.000 A 
ATOM      2  C   UNL     1       0.910  10.848  18.558  0.00  0.00    +0.000 A 
ATOM      3  C   UNL     1       1.268   9.623  19.078  0.00  0.00    +0.000 A 
ATOM      4  C   UNL     1       0.932   9.211  20.368  0.00  0.00    +0.000 A 
ATOM      5  C   UNL     1       0.257  10.071  21.225  0.00  0.00    +0.000 A 
ATOM      6  C   UNL     1      -0.104  11.329  20.712  0.00  0.00    +0.000 A 
ATOM      7  C   UNL     1       1.388   7.805  20.572  0.00  0.00    +0.000 C 
ATOM      8  N   UNL     1       2.008   7.474  19.297  0.00  0.00    +0.000 N 
ATOM      9  C   UNL     1       1.991   8.549  18.412  0.00  0.00    +0.000 C 
ATOM     10  O   UNL     1       2.477   8.684  17.302  0.00  0.00    +0.000 OA
ENDROOT
BRANCH   8  11
ATOM     11  C   UNL     1       2.725   6.281  19.113  0.00  0.00    +0.000 A 
ATOM     12  C   UNL     1       2.677   5.278  20.082  0.00  0.00    +0.000 A 
ATOM     13  C   UNL     1       3.334   4.072  19.878  0.00  0.00    +0.000 A 
ATOM     14  C   UNL     1       4.047   3.859  18.702  0.00  0.00    +0.000 A 
ATOM     15  C   UNL     1       4.097   4.841  17.702  0.00  0.00    +0.000 A 
ATOM     16  C   UNL     1       3.447   6.059  17.931  0.00  0.00    +0.000 A 
BRANCH  15  17
ATOM     17  C   UNL     1       4.826   4.628  16.392  0.00  0.00    +0.000 C 
BRANCH  17  18
ATOM     18  C   UNL     1       6.027   5.563  16.203  0.00  0.00    +0.000 C 
BRANCH  18  19
ATOM     19  C   UNL     1       6.937   5.554  17.387  0.00  0.00    +0.000 A 
ATOM     20  N   UNL     1       7.302   4.514  18.091  0.00  0.00    +0.000 NA
ATOM     21  N   UNL     1       8.070   4.950  19.150  0.00  0.00    +0.000 NA
ATOM     22  C   UNL     1       8.158   6.252  19.056  0.00  0.00    +0.000 A 
ATOM     23  N   UNL     1       7.479   6.684  17.957  0.00  0.00    +0.000 N 
ATOM     24  C   UNL     1       7.339   8.043  17.520  0.00  0.00    +0.000 C 
ENDBRANCH  18  19
ENDBRANCH  17  18
ENDBRANCH  15  17
ENDBRANCH   8  11
BRANCH   5  25
ATOM     25  C   UNL     1      -0.097   9.705  22.642  0.00  0.00    +0.000 C 
ATOM     26  F   UNL     1       0.990   9.402  23.405  0.00  0.00    +0.000 F 
ATOM     27  F   UNL     1      -0.740  10.713  23.292  0.00  0.00    +0.000 F 
ATOM     28  F   UNL     1      -0.919   8.624  22.718  0.00  0.00    +0.000 F 
ENDBRANCH   5  25
BRANCH   1  30
ATOM     29  C   UNL     1       0.676  14.114  18.921  0.00  0.00    +0.000 C 
ATOM     30  C   UNL     1      -0.365  13.005  18.836  0.00  0.00    +0.000 C 
ENDBRANCH   1  30
TORSDOF 6
ENDMDL
MODEL 6
REMARK VINA RESULT:      -8.7      3.749      8.522
REMARK  Name = 
REMARK  8 active torsions:
REMARK  status: ('A' for Active; 'I' for Inactive)
REMARK    1  A    between atoms: C_1  and  C_2
REMARK    2  A    between atoms: C_2  and  C_3
REMARK    3  A    between atoms: C_7  and  C_8
REMARK    4  A    between atoms: N_14  and  C_15
REMARK    5  A    between atoms: C_19  and  C_20
REMARK    6  A    between atoms: C_20  and  C_21
REMARK    7  A    between atoms: C_21  and  C_22
REMARK    8  A    between atoms: N_26  and  C_27
REMARK                            x       y       z     vdW  Elec       q    Type
REMARK                         _______ _______ _______ _____ _____    ______ ____
ROOT
ATOM      1  C   UNL     1       4.191   4.558  17.575  0.00  0.00    +0.000 A 
ATOM      2  C   UNL     1       3.803   5.898  17.589  0.00  0.00    +0.000 A 
ATOM      3  C   UNL     1       2.979   6.312  18.613  0.00  0.00    +0.000 A 
ATOM      4  C   UNL     1       2.533   5.464  19.628  0.00  0.00    +0.000 A 
ATOM      5  C   UNL     1       2.862   4.114  19.609  0.00  0.00    +0.000 A 
ATOM      6  C   UNL     1       3.692   3.675  18.563  0.00  0.00    +0.000 A 
ATOM      7  C   UNL     1       1.744   6.252  20.620  0.00  0.00    +0.000 C 
ATOM      8  N   UNL     1       1.783   7.600  20.071  0.00  0.00    +0.000 N 
ATOM      9  C   UNL     1       2.469   7.653  18.861  0.00  0.00    +0.000 C 
ATOM     10  O   UNL     1       2.640   8.568  18.073  0.00  0.00    +0.000 OA
ENDROOT
BRANCH   8  11
ATOM     11  C   UNL     1       1.013   8.641  20.616  0.00  0.00    +0.000 A 
ATOM     12  C   UNL     1       1.004   8.859  21.993  0.00  0.00    +0.000 A 
ATOM     13  C   UNL     1       0.293   9.923  22.532  0.00  0.00    +0.000 A 
ATOM     14  C   UNL     1      -0.416  10.779  21.695  0.00  0.00    +0.000 A 
ATOM     15  C   UNL     1      -0.410  10.596  20.304  0.00  0.00    +0.000 A 
ATOM     16  C   UNL     1       0.294   9.507  19.779  0.00  0.00    +0.000 A 
BRANCH  15  17
ATOM     17  C   UNL     1      -1.134  11.533  19.360  0.00  0.00    +0.000 C 
BRANCH  17  18
ATOM     18  C   UNL     1      -1.882  10.806  18.235  0.00  0.00    +0.000 C 
BRANCH  18  19
ATOM     19  C   UNL     1      -3.243  11.375  18.007  0.00  0.00    +0.000 A 
ATOM     20  N   UNL     1      -4.028  11.921  18.900  0.00  0.00    +0.000 NA
ATOM     21  N   UNL     1      -5.229  12.231  18.297  0.00  0.00    +0.000 NA
ATOM     22  C   UNL     1      -5.138  11.870  17.043  0.00  0.00    +0.000 A 
ATOM     23  N   UNL     1      -3.906  11.342  16.800  0.00  0.00    +0.000 N 
ATOM     24  C   UNL     1      -3.428  10.829  15.549  0.00  0.00    +0.000 C 
ENDBRANCH  18  19
ENDBRANCH  17  18
ENDBRANCH  15  17
ENDBRANCH   8  11
BRANCH   5  25
ATOM     25  C   UNL     1       2.378   3.138  20.648  0.00  0.00    +0.000 C 
ATOM     26  F   UNL     1       2.620   3.548  21.924  0.00  0.00    +0.000 F 
ATOM     27  F   UNL     1       1.035   2.926  20.573  0.00  0.00    +0.000 F 
ATOM     28  F   UNL     1       2.958   1.914  20.533  0.00  0.00    +0.000 F 
ENDBRANCH   5  25
BRANCH   1  30
ATOM     29  C   UNL     1       5.694   5.209  15.694  0.00  0.00    +0.000 C 
ATOM     30  C   UNL     1       5.204   4.065  16.574  0.00  0.00    +0.000 C 
ENDBRANCH   1  30
TORSDOF 6
ENDMDL
MODEL 7
REMARK VINA RESULT:      -8.7      2.332      3.663
REMARK  Name = 
REMARK  8 active torsions:
REMARK  status: ('A' for Active; 'I' for Inactive)
REMARK    1  A    between atoms: C_1  and  C_2
REMARK    2  A    between atoms: C_2  and  C_3
REMARK    3  A    between atoms: C_7  and  C_8
REMARK    4  A    between atoms: N_14  and  C_15
REMARK    5  A    between atoms: C_19  and  C_20
REMARK    6  A    between atoms: C_20  and  C_21
REMARK    7  A    between atoms: C_21  and  C_22
REMARK    8  A    between atoms: N_26  and  C_27
REMARK                            x       y       z     vdW  Elec       q    Type
REMARK                         _______ _______ _______ _____ _____    ______ ____
ROOT
ATOM      1  C   UNL     1      -0.315  11.876  19.676  0.00  0.00    +0.000 A 
ATOM      2  C   UNL     1       0.435  11.217  18.701  0.00  0.00    +0.000 A 
ATOM      3  C   UNL     1       0.956   9.982  19.024  0.00  0.00    +0.000 A 
ATOM      4  C   UNL     1       0.757   9.367  20.261  0.00  0.00    +0.000 A 
ATOM      5  C   UNL     1       0.058  10.023  21.267  0.00  0.00    +0.000 A 
ATOM      6  C   UNL     1      -0.469  11.289  20.955  0.00  0.00    +0.000 A 
ATOM      7  C   UNL     1       1.371   8.007  20.241  0.00  0.00    +0.000 C 
ATOM      8  N   UNL     1       1.931   7.921  18.899  0.00  0.00    +0.000 N 
ATOM      9  C   UNL     1       1.738   9.095  18.175  0.00  0.00    +0.000 C 
ATOM     10  O   UNL     1       2.127   9.430  17.070  0.00  0.00    +0.000 OA
ENDROOT
BRANCH   8  11
ATOM     11  C   UNL     1       2.754   6.852  18.511  0.00  0.00    +0.000 A 
ATOM     12  C   UNL     1       4.134   6.927  18.699  0.00  0.00    +0.000 A 
ATOM     13  C   UNL     1       4.948   5.850  18.372  0.00  0.00    +0.000 A 
ATOM     14  C   UNL     1       4.386   4.687  17.855  0.00  0.00    +0.000 A 
ATOM     15  C   UNL     1       2.999   4.575  17.674  0.00  0.00    +0.000 A 
ATOM     16  C   UNL     1       2.196   5.677  17.987  0.00  0.00    +0.000 A 
BRANCH  15  17
ATOM     17  C   UNL     1       2.349   3.310  17.154  0.00  0.00    +0.000 C 
BRANCH  17  18
ATOM     18  C   UNL     1       2.581   2.091  18.055  0.00  0.00    +0.000 C 
BRANCH  18  19
ATOM     19  C   UNL     1       2.209   2.364  19.475  0.00  0.00    +0.000 A 
ATOM     20  N   UNL     1       1.014   2.618  19.941  0.00  0.00    +0.000 NA
ATOM     21  N   UNL     1       1.121   2.904  21.287  0.00  0.00    +0.000 NA
ATOM     22  C   UNL     1       2.386   2.809  21.605  0.00  0.00    +0.000 A 
ATOM     23  N   UNL     1       3.114   2.455  20.510  0.00  0.00    +0.000 N 
ATOM     24  C   UNL     1       4.534   2.257  20.455  0.00  0.00    +0.000 C 
ENDBRANCH  18  19
ENDBRANCH  17  18
ENDBRANCH  15  17
ENDBRANCH   8  11
BRANCH   5  25
ATOM     25  C   UNL     1      -0.154   9.434  22.635  0.00  0.00    +0.000 C 
ATOM     26  F   UNL     1       1.009   9.134  23.277  0.00  0.00    +0.000 F 
ATOM     27  F   UNL     1      -0.828  10.278  23.463  0.00  0.00    +0.000 F 
ATOM     28  F   UNL     1      -0.874   8.281  22.609  0.00  0.00    +0.000 F 
ENDBRANCH   5  25
BRANCH   1  30
ATOM     29  C   UNL     1      -0.114  14.357  19.527  0.00  0.00    +0.000 C 
ATOM     30  C   UNL     1      -1.037  13.158  19.349  0.00  0.00    +0.000 C 
ENDBRANCH   1  30
TORSDOF 6
ENDMDL
MODEL 8
REMARK VINA RESULT:      -8.6      3.018      4.741
REMARK  Name = 
REMARK  8 active torsions:
REMARK  status: ('A' for Active; 'I' for Inactive)
REMARK    1  A    between atoms: C_1  and  C_2
REMARK    2  A    between atoms: C_2  and  C_3
REMARK    3  A    between atoms: C_7  and  C_8
REMARK    4  A    between atoms: N_14  and  C_15
REMARK    5  A    between atoms: C_19  and  C_20
REMARK    6  A    between atoms: C_20  and  C_21
REMARK    7  A    between atoms: C_21  and  C_22
REMARK    8  A    between atoms: N_26  and  C_27
REMARK                            x       y       z     vdW  Elec       q    Type
REMARK                         _______ _______ _______ _____ _____    ______ ____
ROOT
ATOM      1  C   UNL     1      -0.292   9.989  22.003  0.00  0.00    +0.000 A 
ATOM      2  C   UNL     1       0.382   8.777  21.848  0.00  0.00    +0.000 A 
ATOM      3  C   UNL     1       0.999   8.540  20.639  0.00  0.00    +0.000 A 
ATOM      4  C   UNL     1       0.988   9.452  19.582  0.00  0.00    +0.000 A 
ATOM      5  C   UNL     1       0.281  10.643  19.691  0.00  0.00    +0.000 A 
ATOM      6  C   UNL     1      -0.363  10.893  20.915  0.00  0.00    +0.000 A 
ATOM      7  C   UNL     1       1.826   8.925  18.465  0.00  0.00    +0.000 C 
ATOM      8  N   UNL     1       2.295   7.648  18.984  0.00  0.00    +0.000 N 
ATOM      9  C   UNL     1       1.782   7.376  20.250  0.00  0.00    +0.000 C 
ATOM     10  O   UNL     1       1.877   6.390  20.961  0.00  0.00    +0.000 OA
ENDROOT
BRANCH   8  11
ATOM     11  C   UNL     1       2.991   6.734  18.176  0.00  0.00    +0.000 A 
ATOM     12  C   UNL     1       4.147   7.132  17.505  0.00  0.00    +0.000 A 
ATOM     13  C   UNL     1       4.874   6.218  16.753  0.00  0.00    +0.000 A 
ATOM     14  C   UNL     1       4.448   4.896  16.666  0.00  0.00    +0.000 A 
ATOM     15  C   UNL     1       3.300   4.462  17.346  0.00  0.00    +0.000 A 
ATOM     16  C   UNL     1       2.567   5.400  18.081  0.00  0.00    +0.000 A 
BRANCH  15  17
ATOM     17  C   UNL     1       2.831   3.023  17.309  0.00  0.00    +0.000 C 
BRANCH  17  18
ATOM     18  C   UNL     1       3.468   2.146  18.396  0.00  0.00    +0.000 C 
BRANCH  18  19
ATOM     19  C   UNL     1       2.894   2.423  19.746  0.00  0.00    +0.000 A 
ATOM     20  N   UNL     1       3.549   2.523  20.874  0.00  0.00    +0.000 NA
ATOM     21  N   UNL     1       2.638   2.691  21.896  0.00  0.00    +0.000 NA
ATOM     22  C   UNL     1       1.446   2.695  21.356  0.00  0.00    +0.000 A 
ATOM     23  N   UNL     1       1.548   2.548  20.006  0.00  0.00    +0.000 N 
ATOM     24  C   UNL     1       0.464   2.500  19.068  0.00  0.00    +0.000 C 
ENDBRANCH  18  19
ENDBRANCH  17  18
ENDBRANCH  15  17
ENDBRANCH   8  11
BRANCH   5  25
ATOM     25  C   UNL     1       0.193  11.649  18.574  0.00  0.00    +0.000 C 
ATOM     26  F   UNL     1      -0.444  11.170  17.469  0.00  0.00    +0.000 F 
ATOM     27  F   UNL     1      -0.487  12.770  18.939  0.00  0.00    +0.000 F 
ATOM     28  F   UNL     1       1.413  12.072  18.147  0.00  0.00    +0.000 F 
ENDBRANCH   5  25
BRANCH   1  30
ATOM     29  C   UNL     1      -1.912  11.475  23.180  0.00  0.00    +0.000 C 
ATOM     30  C   UNL     1      -0.864  10.381  23.341  0.00  0.00    +0.000 C 
ENDBRANCH   1  30
TORSDOF 6
ENDMDL
MODEL 9
REMARK VINA RESULT:      -8.6      2.989      4.595
REMARK  Name = 
REMARK  8 active torsions:
REMARK  status: ('A' for Active; 'I' for Inactive)
REMARK    1  A    between atoms: C_1  and  C_2
REMARK    2  A    between atoms: C_2  and  C_3
REMARK    3  A    between atoms: C_7  and  C_8
REMARK    4  A    between atoms: N_14  and  C_15
REMARK    5  A    between atoms: C_19  and  C_20
REMARK    6  A    between atoms: C_20  and  C_21
REMARK    7  A    between atoms: C_21  and  C_22
REMARK    8  A    between atoms: N_26  and  C_27
REMARK                            x       y       z     vdW  Elec       q    Type
REMARK                         _______ _______ _______ _____ _____    ______ ____
ROOT
ATOM      1  C   UNL     1      -0.199   9.881  22.015  0.00  0.00    +0.000 A 
ATOM      2  C   UNL     1       0.433   8.646  21.865  0.00  0.00    +0.000 A 
ATOM      3  C   UNL     1       1.060   8.392  20.664  0.00  0.00    +0.000 A 
ATOM      4  C   UNL     1       1.101   9.309  19.612  0.00  0.00    +0.000 A 
ATOM      5  C   UNL     1       0.437  10.525  19.716  0.00  0.00    +0.000 A 
ATOM      6  C   UNL     1      -0.218  10.792  20.931  0.00  0.00    +0.000 A 
ATOM      7  C   UNL     1       1.937   8.757  18.506  0.00  0.00    +0.000 C 
ATOM      8  N   UNL     1       2.350   7.461  19.026  0.00  0.00    +0.000 N 
ATOM      9  C   UNL     1       1.807   7.202  20.282  0.00  0.00    +0.000 C 
ATOM     10  O   UNL     1       1.853   6.210  20.989  0.00  0.00    +0.000 OA
ENDROOT
BRANCH   8  11
ATOM     11  C   UNL     1       3.025   6.526  18.224  0.00  0.00    +0.000 A 
ATOM     12  C   UNL     1       4.297   6.817  17.730  0.00  0.00    +0.000 A 
ATOM     13  C   UNL     1       4.995   5.874  16.987  0.00  0.00    +0.000 A 
ATOM     14  C   UNL     1       4.425   4.630  16.733  0.00  0.00    +0.000 A 
ATOM     15  C   UNL     1       3.156   4.302  17.234  0.00  0.00    +0.000 A 
ATOM     16  C   UNL     1       2.457   5.271  17.961  0.00  0.00    +0.000 A 
BRANCH  15  17
ATOM     17  C   UNL     1       2.524   2.944  17.013  0.00  0.00    +0.000 C 
BRANCH  17  18
ATOM     18  C   UNL     1       2.956   1.895  18.046  0.00  0.00    +0.000 C 
BRANCH  18  19
ATOM     19  C   UNL     1       2.453   2.216  19.415  0.00  0.00    +0.000 A 
ATOM     20  N   UNL     1       1.213   2.443  19.765  0.00  0.00    +0.000 NA
ATOM     21  N   UNL     1       1.192   2.791  21.099  0.00  0.00    +0.000 NA
ATOM     22  C   UNL     1       2.427   2.759  21.529  0.00  0.00    +0.000 A 
ATOM     23  N   UNL     1       3.260   2.387  20.517  0.00  0.00    +0.000 N 
ATOM     24  C   UNL     1       4.685   2.243  20.594  0.00  0.00    +0.000 C 
ENDBRANCH  18  19
ENDBRANCH  17  18
ENDBRANCH  15  17
ENDBRANCH   8  11
BRANCH   5  25
ATOM     25  C   UNL     1       0.404  11.539  18.604  0.00  0.00    +0.000 C 
ATOM     26  F   UNL     1      -0.284  11.113  17.509  0.00  0.00    +0.000 F 
ATOM     27  F   UNL     1      -0.185  12.705  18.984  0.00  0.00    +0.000 F 
ATOM     28  F   UNL     1       1.645  11.873  18.158  0.00  0.00    +0.000 F 
ENDBRANCH   5  25
BRANCH   1  30
ATOM     29  C   UNL     1      -1.741  11.456  23.181  0.00  0.00    +0.000 C 
ATOM     30  C   UNL     1      -0.778  10.287  23.345  0.00  0.00    +0.000 C 
ENDBRANCH   1  30
TORSDOF 6
ENDMDL
