MODEL 1
REMARK VINA RESULT:      -9.5      0.000      0.000
REMARK  Name = 
REMARK  9 active torsions:
REMARK  status: ('A' for Active; 'I' for Inactive)
REMARK    1  A    between atoms: C_1  and  C_2
REMARK    2  A    between atoms: C_2  and  C_3
REMARK    3  A    between atoms: C_3  and  N_4
REMARK    4  A    between atoms: N_4  and  C_5
REMARK    5  A    between atoms: N_4  and  C_12
REMARK    6  A    between atoms: C_5  and  C_6
REMARK    7  A    between atoms: N_10  and  C_11
REMARK    8  A    between atoms: C_16  and  N_17
REMARK    9  A    between atoms: C_24  and  C_25
REMARK                            x       y       z     vdW  Elec       q    Type
REMARK                         _______ _______ _______ _____ _____    ______ ____
ROOT
ATOM      1  C   UNL     1       4.725   4.591  17.937  0.00  0.00    +0.000 C 
ATOM      2  C   UNL     1       4.351   3.511  18.648  0.00  0.00    +0.000 C 
ATOM      3  C   UNL     1       3.212   3.523  19.619  0.00  0.00    +0.000 C 
ATOM      4  C   UNL     1       2.862   4.927  20.128  0.00  0.00    +0.000 C 
ATOM      5  C   UNL     1       3.060   6.022  19.096  0.00  0.00    +0.000 C 
ATOM      6  C   UNL     1       3.926   5.805  18.087  0.00  0.00    +0.000 C 
ENDROOT
BRANCH   5   7
ATOM      7  N   UNL     1       2.359   7.220  19.245  0.00  0.00    +0.000 N 
ATOM      8  C   UNL     1       1.712   7.600  20.499  0.00  0.00    +0.000 C 
ATOM      9  C   UNL     1       1.136   8.950  20.214  0.00  0.00    +0.000 A 
ATOM     10  C   UNL     1       1.417   9.301  18.896  0.00  0.00    +0.000 A 
ATOM     11  C   UNL     1       0.999  10.488  18.323  0.00  0.00    +0.000 A 
ATOM     12  C   UNL     1       0.261  11.360  19.122  0.00  0.00    +0.000 A 
ATOM     13  C   UNL     1      -0.030  11.028  20.458  0.00  0.00    +0.000 A 
ATOM     14  C   UNL     1       0.412   9.815  21.029  0.00  0.00    +0.000 A 
ATOM     15  C   UNL     1       2.194   8.224  18.278  0.00  0.00    +0.000 C 
ATOM     16  O   UNL     1       2.577   8.299  17.123  0.00  0.00    +0.000 OA
BRANCH  14  17
ATOM     17  C   UNL     1       0.091   9.505  22.468  0.00  0.00    +0.000 C 
ATOM     18  F   UNL     1      -0.715   8.419  22.628  0.00  0.00    +0.000 F 
ATOM     19  F   UNL     1       1.207   9.249  23.202  0.00  0.00    +0.000 F 
ATOM     20  F   UNL     1      -0.542  10.533  23.094  0.00  0.00    +0.000 F 
ENDBRANCH  14  17
ENDBRANCH   5   7
BRANCH   1  21
ATOM     21  N   UNL     1       5.808   4.603  17.043  0.00  0.00    +0.000 N 
BRANCH  21  22
ATOM     22  C   UNL     1       7.201   4.661  17.533  0.00  0.00    +0.000 C 
BRANCH  22  24
ATOM     23  C   UNL     1       7.523   7.206  17.639  0.00  0.00    +0.000 C 
ATOM     24  C   UNL     1       7.469   5.891  18.407  0.00  0.00    +0.000 C 
ENDBRANCH  22  24
ENDBRANCH  21  22
BRANCH  21  25
ATOM     25  C   UNL     1       5.579   4.297  15.601  0.00  0.00    +0.000 C 
BRANCH  25  26
ATOM     26  C   UNL     1       6.603   4.682  14.577  0.00  0.00    +0.000 A 
ATOM     27  N   UNL     1       7.674   5.430  14.775  0.00  0.00    +0.000 NA
ATOM     28  N   UNL     1       8.325   5.584  13.577  0.00  0.00    +0.000 NA
ATOM     29  C   UNL     1       7.665   4.896  12.677  0.00  0.00    +0.000 A 
ATOM     30  N   UNL     1       6.608   4.273  13.266  0.00  0.00    +0.000 N 
ATOM     31  C   UNL     1       5.717   3.347  12.620  0.00  0.00    +0.000 C 
ENDBRANCH  25  26
ENDBRANCH  21  25
ENDBRANCH   1  21
TORSDOF 7
ENDMDL
MODEL 2
REMARK VINA RESULT:      -9.3      1.235      2.950
REMARK  Name = 
REMARK  9 active torsions:
REMARK  status: ('A' for Active; 'I' for Inactive)
REMARK    1  A    between atoms: C_1  and  C_2
REMARK    2  A    between atoms: C_2  and  C_3
REMARK    3  A    between atoms: C_3  and  N_4
REMARK    4  A    between atoms: N_4  and  C_5
REMARK    5  A    between atoms: N_4  and  C_12
REMARK    6  A    between atoms: C_5  and  C_6
REMARK    7  A    between atoms: N_10  and  C_11
REMARK    8  A    between atoms: C_16  and  N_17
REMARK    9  A    between atoms: C_24  and  C_25
REMARK                            x       y       z     vdW  Elec       q    Type
REMARK                         _______ _______ _______ _____ _____    ______ ____
ROOT
ATOM      1  C   UNL     1       4.200   4.607  17.619  0.00  0.00    +0.000 C 
ATOM      2  C   UNL     1       3.680   3.515  18.209  0.00  0.00    +0.000 C 
ATOM      3  C   UNL     1       2.523   3.570  19.158  0.00  0.00    +0.000 C 
ATOM      4  C   UNL     1       2.330   4.948  19.803  0.00  0.00    +0.000 C 
ATOM      5  C   UNL     1       2.687   6.108  18.891  0.00  0.00    +0.000 C 
ATOM      6  C   UNL     1       3.548   5.888  17.879  0.00  0.00    +0.000 C 
ENDROOT
BRANCH   5   7
ATOM      7  N   UNL     1       2.131   7.361  19.151  0.00  0.00    +0.000 N 
ATOM      8  C   UNL     1       1.483   7.685  20.421  0.00  0.00    +0.000 C 
ATOM      9  C   UNL     1       1.087   9.119  20.270  0.00  0.00    +0.000 A 
ATOM     10  C   UNL     1       1.462   9.568  19.007  0.00  0.00    +0.000 A 
ATOM     11  C   UNL     1       1.216  10.853  18.556  0.00  0.00    +0.000 A 
ATOM     12  C   UNL     1       0.557  11.721  19.424  0.00  0.00    +0.000 A 
ATOM     13  C   UNL     1       0.172  11.288  20.707  0.00  0.00    +0.000 A 
ATOM     14  C   UNL     1       0.440   9.977  21.154  0.00  0.00    +0.000 A 
ATOM     15  C   UNL     1       2.129   8.475  18.296  0.00  0.00    +0.000 C 
ATOM     16  O   UNL     1       2.566   8.622  17.168  0.00  0.00    +0.000 OA
BRANCH  14  17
ATOM     17  C   UNL     1       0.024   9.559  22.541  0.00  0.00    +0.000 C 
ATOM     18  F   UNL     1      -0.567  10.555  23.257  0.00  0.00    +0.000 F 
ATOM     19  F   UNL     1      -0.869   8.534  22.525  0.00  0.00    +0.000 F 
ATOM     20  F   UNL     1       1.073   9.133  23.294  0.00  0.00    +0.000 F 
ENDBRANCH  14  17
ENDBRANCH   5   7
BRANCH   1  21
ATOM     21  N   UNL     1       5.301   4.576  16.748  0.00  0.00    +0.000 N 
BRANCH  21  22
ATOM     22  C   UNL     1       5.117   4.628  15.283  0.00  0.00    +0.000 C 
BRANCH  22  24
ATOM     23  C   UNL     1       6.195   4.048  13.025  0.00  0.00    +0.000 C 
ATOM     24  C   UNL     1       6.157   3.793  14.527  0.00  0.00    +0.000 C 
ENDBRANCH  22  24
ENDBRANCH  21  22
BRANCH  21  25
ATOM     25  C   UNL     1       6.680   4.750  17.293  0.00  0.00    +0.000 C 
BRANCH  25  26
ATOM     26  C   UNL     1       7.220   6.124  17.551  0.00  0.00    +0.000 A 
ATOM     27  N   UNL     1       7.107   7.177  16.760  0.00  0.00    +0.000 NA
ATOM     28  N   UNL     1       7.777   8.227  17.336  0.00  0.00    +0.000 NA
ATOM     29  C   UNL     1       8.254   7.810  18.484  0.00  0.00    +0.000 A 
ATOM     30  N   UNL     1       7.886   6.515  18.686  0.00  0.00    +0.000 N 
ATOM     31  C   UNL     1       8.134   5.752  19.879  0.00  0.00    +0.000 C 
ENDBRANCH  25  26
ENDBRANCH  21  25
ENDBRANCH   1  21
TORSDOF 7
ENDMDL
MODEL 3
REMARK VINA RESULT:      -9.0      0.940      1.092
REMARK  Name = 
REMARK  9 active torsions:
REMARK  status: ('A' for Active; 'I' for Inactive)
REMARK    1  A    between atoms: C_1  and  C_2
REMARK    2  A    between atoms: C_2  and  C_3
REMARK    3  A    between atoms: C_3  and  N_4
REMARK    4  A    between atoms: N_4  and  C_5
REMARK    5  A    between atoms: N_4  and  C_12
REMARK    6  A    between atoms: C_5  and  C_6
REMARK    7  A    between atoms: N_10  and  C_11
REMARK    8  A    between atoms: C_16  and  N_17
REMARK    9  A    between atoms: C_24  and  C_25
REMARK                            x       y       z     vdW  Elec       q    Type
REMARK                         _______ _______ _______ _____ _____    ______ ____
ROOT
ATOM      1  C   UNL     1       4.722   5.480  17.595  0.00  0.00    +0.000 C 
ATOM      2  C   UNL     1       4.016   4.343  17.456  0.00  0.00    +0.000 C 
ATOM      3  C   UNL     1       2.550   4.248  17.743  0.00  0.00    +0.000 C 
ATOM      4  C   UNL     1       2.041   5.349  18.683  0.00  0.00    +0.000 C 
ATOM      5  C   UNL     1       2.751   6.679  18.509  0.00  0.00    +0.000 C 
ATOM      6  C   UNL     1       3.990   6.684  17.981  0.00  0.00    +0.000 C 
ENDROOT
BRANCH   5   7
ATOM      7  N   UNL     1       2.104   7.844  18.928  0.00  0.00    +0.000 N 
ATOM      8  C   UNL     1       1.485   7.968  20.246  0.00  0.00    +0.000 C 
ATOM      9  C   UNL     1       0.966   9.370  20.271  0.00  0.00    +0.000 A 
ATOM     10  C   UNL     1       1.249   9.987  19.056  0.00  0.00    +0.000 A 
ATOM     11  C   UNL     1       0.879  11.287  18.761  0.00  0.00    +0.000 A 
ATOM     12  C   UNL     1       0.187  11.993  19.743  0.00  0.00    +0.000 A 
ATOM     13  C   UNL     1      -0.106  11.390  20.981  0.00  0.00    +0.000 A 
ATOM     14  C   UNL     1       0.288  10.066  21.267  0.00  0.00    +0.000 A 
ATOM     15  C   UNL     1       1.974   9.040  18.204  0.00  0.00    +0.000 C 
ATOM     16  O   UNL     1       2.349   9.348  17.086  0.00  0.00    +0.000 OA
BRANCH  14  17
ATOM     17  C   UNL     1      -0.033   9.464  22.611  0.00  0.00    +0.000 C 
ATOM     18  F   UNL     1      -0.818   8.354  22.540  0.00  0.00    +0.000 F 
ATOM     19  F   UNL     1       1.086   9.084  23.286  0.00  0.00    +0.000 F 
ATOM     20  F   UNL     1      -0.689  10.331  23.428  0.00  0.00    +0.000 F 
ENDBRANCH  14  17
ENDBRANCH   5   7
BRANCH   1  21
ATOM     21  N   UNL     1       6.102   5.578  17.356  0.00  0.00    +0.000 N 
BRANCH  21  22
ATOM     22  C   UNL     1       6.944   6.521  18.122  0.00  0.00    +0.000 C 
BRANCH  22  24
ATOM     23  C   UNL     1       8.228   8.745  18.051  0.00  0.00    +0.000 C 
ATOM     24  C   UNL     1       7.386   7.728  17.288  0.00  0.00    +0.000 C 
ENDBRANCH  22  24
ENDBRANCH  21  22
BRANCH  21  25
ATOM     25  C   UNL     1       6.781   4.552  16.512  0.00  0.00    +0.000 C 
BRANCH  25  26
ATOM     26  C   UNL     1       7.137   4.862  15.090  0.00  0.00    +0.000 A 
ATOM     27  N   UNL     1       8.171   5.572  14.673  0.00  0.00    +0.000 NA
ATOM     28  N   UNL     1       8.114   5.661  13.304  0.00  0.00    +0.000 NA
ATOM     29  C   UNL     1       7.072   4.971  12.906  0.00  0.00    +0.000 A 
ATOM     30  N   UNL     1       6.459   4.410  13.985  0.00  0.00    +0.000 N 
ATOM     31  C   UNL     1       5.347   3.500  13.935  0.00  0.00    +0.000 C 
ENDBRANCH  25  26
ENDBRANCH  21  25
ENDBRANCH   1  21
TORSDOF 7
ENDMDL
MODEL 4
REMARK VINA RESULT:      -8.9      1.410      3.012
REMARK  Name = 
REMARK  9 active torsions:
REMARK  status: ('A' for Active; 'I' for Inactive)
REMARK    1  A    between atoms: C_1  and  C_2
REMARK    2  A    between atoms: C_2  and  C_3
REMARK    3  A    between atoms: C_3  and  N_4
REMARK    4  A    between atoms: N_4  and  C_5
REMARK    5  A    between atoms: N_4  and  C_12
REMARK    6  A    between atoms: C_5  and  C_6
REMARK    7  A    between atoms: N_10  and  C_11
REMARK    8  A    between atoms: C_16  and  N_17
REMARK    9  A    between atoms: C_24  and  C_25
REMARK                            x       y       z     vdW  Elec       q    Type
REMARK                         _______ _______ _______ _____ _____    ______ ____
ROOT
ATOM      1  C   UNL     1       4.098   5.088  17.485  0.00  0.00    +0.000 C 
ATOM      2  C   UNL     1       3.759   3.979  18.167  0.00  0.00    +0.000 C 
ATOM      3  C   UNL     1       2.737   3.970  19.262  0.00  0.00    +0.000 C 
ATOM      4  C   UNL     1       2.509   5.349  19.892  0.00  0.00    +0.000 C 
ATOM      5  C   UNL     1       2.639   6.501  18.912  0.00  0.00    +0.000 C 
ATOM      6  C   UNL     1       3.376   6.318  17.799  0.00  0.00    +0.000 C 
ENDROOT
BRANCH   5   7
ATOM      7  N   UNL     1       2.014   7.712  19.213  0.00  0.00    +0.000 N 
ATOM      8  C   UNL     1       1.406   7.980  20.516  0.00  0.00    +0.000 C 
ATOM      9  C   UNL     1       0.909   9.385  20.401  0.00  0.00    +0.000 A 
ATOM     10  C   UNL     1       1.194   9.871  19.128  0.00  0.00    +0.000 A 
ATOM     11  C   UNL     1       0.841  11.140  18.705  0.00  0.00    +0.000 A 
ATOM     12  C   UNL     1       0.167  11.953  19.614  0.00  0.00    +0.000 A 
ATOM     13  C   UNL     1      -0.126  11.484  20.908  0.00  0.00    +0.000 A 
ATOM     14  C   UNL     1       0.249  10.189  21.325  0.00  0.00    +0.000 A 
ATOM     15  C   UNL     1       1.897   8.831  18.373  0.00  0.00    +0.000 C 
ATOM     16  O   UNL     1       2.270   9.018  17.228  0.00  0.00    +0.000 OA
BRANCH  14  17
ATOM     17  C   UNL     1      -0.073   9.732  22.725  0.00  0.00    +0.000 C 
ATOM     18  F   UNL     1      -0.900   8.651  22.770  0.00  0.00    +0.000 F 
ATOM     19  F   UNL     1       1.042   9.375  23.418  0.00  0.00    +0.000 F 
ATOM     20  F   UNL     1      -0.682  10.698  23.462  0.00  0.00    +0.000 F 
ENDBRANCH  14  17
ENDBRANCH   5   7
BRANCH   1  21
ATOM     21  N   UNL     1       5.073   5.118  16.475  0.00  0.00    +0.000 N 
BRANCH  21  22
ATOM     22  C   UNL     1       4.856   4.432  15.184  0.00  0.00    +0.000 C 
BRANCH  22  24
ATOM     23  C   UNL     1       6.358   3.900  13.170  0.00  0.00    +0.000 C 
ATOM     24  C   UNL     1       6.118   3.735  14.666  0.00  0.00    +0.000 C 
ENDBRANCH  22  24
ENDBRANCH  21  22
BRANCH  21  25
ATOM     25  C   UNL     1       6.229   6.055  16.591  0.00  0.00    +0.000 C 
BRANCH  25  26
ATOM     26  C   UNL     1       7.119   6.008  17.795  0.00  0.00    +0.000 A 
ATOM     27  N   UNL     1       7.405   4.943  18.523  0.00  0.00    +0.000 NA
ATOM     28  N   UNL     1       8.216   5.330  19.561  0.00  0.00    +0.000 NA
ATOM     29  C   UNL     1       8.445   6.614  19.426  0.00  0.00    +0.000 A 
ATOM     30  N   UNL     1       7.820   7.072  18.306  0.00  0.00    +0.000 N 
ATOM     31  C   UNL     1       7.928   8.404  17.775  0.00  0.00    +0.000 C 
ENDBRANCH  25  26
ENDBRANCH  21  25
ENDBRANCH   1  21
TORSDOF 7
ENDMDL
MODEL 5
REMARK VINA RESULT:      -8.8      1.280      3.023
REMARK  Name = 
REMARK  9 active torsions:
REMARK  status: ('A' for Active; 'I' for Inactive)
REMARK    1  A    between atoms: C_1  and  C_2
REMARK    2  A    between atoms: C_2  and  C_3
REMARK    3  A    between atoms: C_3  and  N_4
REMARK    4  A    between atoms: N_4  and  C_5
REMARK    5  A    between atoms: N_4  and  C_12
REMARK    6  A    between atoms: C_5  and  C_6
REMARK    7  A    between atoms: N_10  and  C_11
REMARK    8  A    between atoms: C_16  and  N_17
REMARK    9  A    between atoms: C_24  and  C_25
REMARK                            x       y       z     vdW  Elec       q    Type
REMARK                         _______ _______ _______ _____ _____    ______ ____
ROOT
ATOM      1  C   UNL     1       4.607   4.334  17.140  0.00  0.00    +0.000 C 
ATOM      2  C   UNL     1       4.344   3.291  17.950  0.00  0.00    +0.000 C 
ATOM      3  C   UNL     1       3.401   3.372  19.110  0.00  0.00    +0.000 C 
ATOM      4  C   UNL     1       3.181   4.803  19.617  0.00  0.00    +0.000 C 
ATOM      5  C   UNL     1       3.214   5.854  18.522  0.00  0.00    +0.000 C 
ATOM      6  C   UNL     1       3.876   5.575  17.383  0.00  0.00    +0.000 C 
ENDROOT
BRANCH   5   7
ATOM      7  N   UNL     1       2.579   7.077  18.747  0.00  0.00    +0.000 N 
ATOM      8  C   UNL     1       1.807   7.350  19.957  0.00  0.00    +0.000 C 
ATOM      9  C   UNL     1       1.359   8.767  19.789  0.00  0.00    +0.000 A 
ATOM     10  C   UNL     1       1.824   9.253  18.570  0.00  0.00    +0.000 A 
ATOM     11  C   UNL     1       1.559  10.532  18.114  0.00  0.00    +0.000 A 
ATOM     12  C   UNL     1       0.785  11.355  18.931  0.00  0.00    +0.000 A 
ATOM     13  C   UNL     1       0.310  10.885  20.170  0.00  0.00    +0.000 A 
ATOM     14  C   UNL     1       0.598   9.580  20.622  0.00  0.00    +0.000 A 
ATOM     15  C   UNL     1       2.600   8.202  17.908  0.00  0.00    +0.000 C 
ATOM     16  O   UNL     1       3.128   8.388  16.825  0.00  0.00    +0.000 OA
BRANCH  14  17
ATOM     17  C   UNL     1       0.081   9.122  21.962  0.00  0.00    +0.000 C 
ATOM     18  F   UNL     1      -0.630  10.073  22.628  0.00  0.00    +0.000 F 
ATOM     19  F   UNL     1      -0.747   8.048  21.855  0.00  0.00    +0.000 F 
ATOM     20  F   UNL     1       1.079   8.745  22.805  0.00  0.00    +0.000 F 
ENDBRANCH  14  17
ENDBRANCH   5   7
BRANCH   1  21
ATOM     21  N   UNL     1       5.510   4.281  16.066  0.00  0.00    +0.000 N 
BRANCH  21  22
ATOM     22  C   UNL     1       5.040   4.391  14.669  0.00  0.00    +0.000 C 
BRANCH  22  24
ATOM     23  C   UNL     1       5.543   3.347  12.377  0.00  0.00    +0.000 C 
ATOM     24  C   UNL     1       6.105   3.963  13.653  0.00  0.00    +0.000 C 
ENDBRANCH  22  24
ENDBRANCH  21  22
BRANCH  21  25
ATOM     25  C   UNL     1       6.976   4.375  16.327  0.00  0.00    +0.000 C 
BRANCH  25  26
ATOM     26  C   UNL     1       7.478   5.011  17.587  0.00  0.00    +0.000 A 
ATOM     27  N   UNL     1       8.046   4.395  18.610  0.00  0.00    +0.000 NA
ATOM     28  N   UNL     1       8.318   5.326  19.581  0.00  0.00    +0.000 NA
ATOM     29  C   UNL     1       7.950   6.497  19.121  0.00  0.00    +0.000 A 
ATOM     30  N   UNL     1       7.466   6.357  17.856  0.00  0.00    +0.000 N 
ATOM     31  C   UNL     1       7.065   7.434  16.991  0.00  0.00    +0.000 C 
ENDBRANCH  25  26
ENDBRANCH  21  25
ENDBRANCH   1  21
TORSDOF 7
ENDMDL
MODEL 6
REMARK VINA RESULT:      -8.8      2.840      4.924
REMARK  Name = 
REMARK  9 active torsions:
REMARK  status: ('A' for Active; 'I' for Inactive)
REMARK    1  A    between atoms: C_1  and  C_2
REMARK    2  A    between atoms: C_2  and  C_3
REMARK    3  A    between atoms: C_3  and  N_4
REMARK    4  A    between atoms: N_4  and  C_5
REMARK    5  A    between atoms: N_4  and  C_12
REMARK    6  A    between atoms: C_5  and  C_6
REMARK    7  A    between atoms: N_10  and  C_11
REMARK    8  A    between atoms: C_16  and  N_17
REMARK    9  A    between atoms: C_24  and  C_25
REMARK                            x       y       z     vdW  Elec       q    Type
REMARK                         _______ _______ _______ _____ _____    ______ ____
ROOT
ATOM      1  C   UNL     1       2.625   6.765  19.275  0.00  0.00    +0.000 C 
ATOM      2  C   UNL     1       2.909   7.115  18.007  0.00  0.00    +0.000 C 
ATOM      3  C   UNL     1       2.556   8.449  17.426  0.00  0.00    +0.000 C 
ATOM      4  C   UNL     1       1.419   9.156  18.172  0.00  0.00    +0.000 C 
ATOM      5  C   UNL     1       1.409   8.894  19.668  0.00  0.00    +0.000 C 
ATOM      6  C   UNL     1       2.002   7.775  20.128  0.00  0.00    +0.000 C 
ENDROOT
BRANCH   5   7
ATOM      7  N   UNL     1       0.766   9.807  20.505  0.00  0.00    +0.000 N 
ATOM      8  C   UNL     1       0.997  11.248  20.421  0.00  0.00    +0.000 C 
ATOM      9  C   UNL     1       0.082  11.822  21.455  0.00  0.00    +0.000 A 
ATOM     10  C   UNL     1      -0.600  10.788  22.090  0.00  0.00    +0.000 A 
ATOM     11  C   UNL     1      -1.509  10.995  23.112  0.00  0.00    +0.000 A 
ATOM     12  C   UNL     1      -1.736  12.311  23.509  0.00  0.00    +0.000 A 
ATOM     13  C   UNL     1      -1.061  13.372  22.877  0.00  0.00    +0.000 A 
ATOM     14  C   UNL     1      -0.143  13.142  21.830  0.00  0.00    +0.000 A 
ATOM     15  C   UNL     1      -0.185   9.515  21.496  0.00  0.00    +0.000 C 
ATOM     16  O   UNL     1      -0.653   8.454  21.873  0.00  0.00    +0.000 OA
BRANCH  14  17
ATOM     17  C   UNL     1       0.546  14.309  21.170  0.00  0.00    +0.000 C 
ATOM     18  F   UNL     1       0.314  14.395  19.831  0.00  0.00    +0.000 F 
ATOM     19  F   UNL     1       0.153  15.502  21.692  0.00  0.00    +0.000 F 
ATOM     20  F   UNL     1       1.898  14.263  21.312  0.00  0.00    +0.000 F 
ENDBRANCH  14  17
ENDBRANCH   5   7
BRANCH   1  21
ATOM     21  N   UNL     1       2.925   5.509  19.826  0.00  0.00    +0.000 N 
BRANCH  21  22
ATOM     22  C   UNL     1       2.230   5.022  21.036  0.00  0.00    +0.000 C 
BRANCH  22  24
ATOM     23  C   UNL     1       1.453   2.628  21.549  0.00  0.00    +0.000 C 
ATOM     24  C   UNL     1       1.235   3.896  20.732  0.00  0.00    +0.000 C 
ENDBRANCH  22  24
ENDBRANCH  21  22
BRANCH  21  25
ATOM     25  C   UNL     1       3.759   4.543  19.053  0.00  0.00    +0.000 C 
BRANCH  25  26
ATOM     26  C   UNL     1       5.217   4.812  18.836  0.00  0.00    +0.000 A 
ATOM     27  N   UNL     1       6.134   4.987  19.772  0.00  0.00    +0.000 NA
ATOM     28  N   UNL     1       7.334   5.253  19.160  0.00  0.00    +0.000 NA
ATOM     29  C   UNL     1       7.138   5.197  17.865  0.00  0.00    +0.000 A 
ATOM     30  N   UNL     1       5.840   4.873  17.615  0.00  0.00    +0.000 N 
ATOM     31  C   UNL     1       5.278   4.617  16.316  0.00  0.00    +0.000 C 
ENDBRANCH  25  26
ENDBRANCH  21  25
ENDBRANCH   1  21
TORSDOF 7
ENDMDL
MODEL 7
REMARK VINA RESULT:      -8.7      2.792      4.630
REMARK  Name = 
REMARK  9 active torsions:
REMARK  status: ('A' for Active; 'I' for Inactive)
REMARK    1  A    between atoms: C_1  and  C_2
REMARK    2  A    between atoms: C_2  and  C_3
REMARK    3  A    between atoms: C_3  and  N_4
REMARK    4  A    between atoms: N_4  and  C_5
REMARK    5  A    between atoms: N_4  and  C_12
REMARK    6  A    between atoms: C_5  and  C_6
REMARK    7  A    between atoms: N_10  and  C_11
REMARK    8  A    between atoms: C_16  and  N_17
REMARK    9  A    between atoms: C_24  and  C_25
REMARK                            x       y       z     vdW  Elec       q    Type
REMARK                         _______ _______ _______ _____ _____    ______ ____
ROOT
ATOM      1  C   UNL     1       3.026   6.345  19.122  0.00  0.00    +0.000 C 
ATOM      2  C   UNL     1       3.520   6.768  17.944  0.00  0.00    +0.000 C 
ATOM      3  C   UNL     1       3.226   8.119  17.369  0.00  0.00    +0.000 C 
ATOM      4  C   UNL     1       1.945   8.752  17.927  0.00  0.00    +0.000 C 
ATOM      5  C   UNL     1       1.676   8.412  19.382  0.00  0.00    +0.000 C 
ATOM      6  C   UNL     1       2.219   7.290  19.891  0.00  0.00    +0.000 C 
ENDROOT
BRANCH   5   7
ATOM      7  N   UNL     1       0.856   9.260  20.128  0.00  0.00    +0.000 N 
ATOM      8  C   UNL     1      -0.029  10.245  19.507  0.00  0.00    +0.000 C 
ATOM      9  C   UNL     1      -0.732  10.880  20.664  0.00  0.00    +0.000 A 
ATOM     10  C   UNL     1      -0.269  10.315  21.849  0.00  0.00    +0.000 A 
ATOM     11  C   UNL     1      -0.714  10.706  23.099  0.00  0.00    +0.000 A 
ATOM     12  C   UNL     1      -1.672  11.718  23.150  0.00  0.00    +0.000 A 
ATOM     13  C   UNL     1      -2.157  12.299  21.963  0.00  0.00    +0.000 A 
ATOM     14  C   UNL     1      -1.697  11.881  20.696  0.00  0.00    +0.000 A 
ATOM     15  C   UNL     1       0.724   9.288  21.526  0.00  0.00    +0.000 C 
ATOM     16  O   UNL     1       1.271   8.635  22.398  0.00  0.00    +0.000 OA
BRANCH  14  17
ATOM     17  C   UNL     1      -2.254  12.521  19.450  0.00  0.00    +0.000 C 
ATOM     18  F   UNL     1      -2.808  11.632  18.580  0.00  0.00    +0.000 F 
ATOM     19  F   UNL     1      -3.231  13.425  19.728  0.00  0.00    +0.000 F 
ATOM     20  F   UNL     1      -1.308  13.194  18.742  0.00  0.00    +0.000 F 
ENDBRANCH  14  17
ENDBRANCH   5   7
BRANCH   1  21
ATOM     21  N   UNL     1       3.270   5.072  19.661  0.00  0.00    +0.000 N 
BRANCH  21  22
ATOM     22  C   UNL     1       2.424   4.526  20.743  0.00  0.00    +0.000 C 
BRANCH  22  24
ATOM     23  C   UNL     1       0.884   2.778  19.661  0.00  0.00    +0.000 C 
ATOM     24  C   UNL     1       1.011   4.172  20.266  0.00  0.00    +0.000 C 
ENDBRANCH  22  24
ENDBRANCH  21  22
BRANCH  21  25
ATOM     25  C   UNL     1       4.222   4.149  18.976  0.00  0.00    +0.000 C 
BRANCH  25  26
ATOM     26  C   UNL     1       5.640   4.570  18.738  0.00  0.00    +0.000 A 
ATOM     27  N   UNL     1       6.504   4.980  19.650  0.00  0.00    +0.000 NA
ATOM     28  N   UNL     1       7.676   5.315  19.019  0.00  0.00    +0.000 NA
ATOM     29  C   UNL     1       7.523   5.067  17.741  0.00  0.00    +0.000 A 
ATOM     30  N   UNL     1       6.282   4.550  17.524  0.00  0.00    +0.000 N 
ATOM     31  C   UNL     1       5.788   4.059  16.265  0.00  0.00    +0.000 C 
ENDBRANCH  25  26
ENDBRANCH  21  25
ENDBRANCH   1  21
TORSDOF 7
ENDMDL
MODEL 8
REMARK VINA RESULT:      -8.5      4.359      8.913
REMARK  Name = 
REMARK  9 active torsions:
REMARK  status: ('A' for Active; 'I' for Inactive)
REMARK    1  A    between atoms: C_1  and  C_2
REMARK    2  A    between atoms: C_2  and  C_3
REMARK    3  A    between atoms: C_3  and  N_4
REMARK    4  A    between atoms: N_4  and  C_5
REMARK    5  A    between atoms: N_4  and  C_12
REMARK    6  A    between atoms: C_5  and  C_6
REMARK    7  A    between atoms: N_10  and  C_11
REMARK    8  A    between atoms: C_16  and  N_17
REMARK    9  A    between atoms: C_24  and  C_25
REMARK                            x       y       z     vdW  Elec       q    Type
REMARK                         _______ _______ _______ _____ _____    ______ ____
ROOT
ATOM      1  C   UNL     1       0.396  10.261  19.643  0.00  0.00    +0.000 C 
ATOM      2  C   UNL     1       0.487  10.448  20.973  0.00  0.00    +0.000 C 
ATOM      3  C   UNL     1       1.254   9.535  21.878  0.00  0.00    +0.000 C 
ATOM      4  C   UNL     1       1.466   8.134  21.292  0.00  0.00    +0.000 C 
ATOM      5  C   UNL     1       1.644   8.120  19.784  0.00  0.00    +0.000 C 
ATOM      6  C   UNL     1       1.142   9.145  19.068  0.00  0.00    +0.000 C 
ENDROOT
BRANCH   5   7
ATOM      7  N   UNL     1       2.297   7.036  19.195  0.00  0.00    +0.000 N 
ATOM      8  C   UNL     1       3.293   7.198  18.138  0.00  0.00    +0.000 C 
ATOM      9  C   UNL     1       3.747   5.803  17.851  0.00  0.00    +0.000 A 
ATOM     10  C   UNL     1       3.050   4.916  18.667  0.00  0.00    +0.000 A 
ATOM     11  C   UNL     1       3.232   3.545  18.625  0.00  0.00    +0.000 A 
ATOM     12  C   UNL     1       4.162   3.051  17.713  0.00  0.00    +0.000 A 
ATOM     13  C   UNL     1       4.881   3.931  16.882  0.00  0.00    +0.000 A 
ATOM     14  C   UNL     1       4.689   5.327  16.944  0.00  0.00    +0.000 A 
ATOM     15  C   UNL     1       2.141   5.680  19.524  0.00  0.00    +0.000 C 
ATOM     16  O   UNL     1       1.425   5.129  20.343  0.00  0.00    +0.000 OA
BRANCH  14  17
ATOM     17  C   UNL     1       5.491   6.234  16.046  0.00  0.00    +0.000 C 
ATOM     18  F   UNL     1       6.328   5.568  15.204  0.00  0.00    +0.000 F 
ATOM     19  F   UNL     1       4.699   7.002  15.251  0.00  0.00    +0.000 F 
ATOM     20  F   UNL     1       6.276   7.097  16.744  0.00  0.00    +0.000 F 
ENDBRANCH  14  17
ENDBRANCH   5   7
BRANCH   1  21
ATOM     21  N   UNL     1      -0.342  11.093  18.785  0.00  0.00    +0.000 N 
BRANCH  21  22
ATOM     22  C   UNL     1       0.031  12.509  18.589  0.00  0.00    +0.000 C 
BRANCH  22  24
ATOM     23  C   UNL     1       1.986  14.154  18.855  0.00  0.00    +0.000 C 
ATOM     24  C   UNL     1       1.548  12.722  18.565  0.00  0.00    +0.000 C 
ENDBRANCH  22  24
ENDBRANCH  21  22
BRANCH  21  25
ATOM     25  C   UNL     1      -1.352  10.494  17.864  0.00  0.00    +0.000 C 
BRANCH  25  26
ATOM     26  C   UNL     1      -2.735  11.066  17.787  0.00  0.00    +0.000 A 
ATOM     27  N   UNL     1      -3.425  11.596  18.782  0.00  0.00    +0.000 NA
ATOM     28  N   UNL     1      -4.661  11.959  18.308  0.00  0.00    +0.000 NA
ATOM     29  C   UNL     1      -4.691  11.681  17.027  0.00  0.00    +0.000 A 
ATOM     30  N   UNL     1      -3.489  11.168  16.645  0.00  0.00    +0.000 N 
ATOM     31  C   UNL     1      -3.109  10.844  15.296  0.00  0.00    +0.000 C 
ENDBRANCH  25  26
ENDBRANCH  21  25
ENDBRANCH   1  21
TORSDOF 7
ENDMDL
MODEL 9
REMARK VINA RESULT:      -8.5      2.388      3.904
REMARK  Name = 
REMARK  9 active torsions:
REMARK  status: ('A' for Active; 'I' for Inactive)
REMARK    1  A    between atoms: C_1  and  C_2
REMARK    2  A    between atoms: C_2  and  C_3
REMARK    3  A    between atoms: C_3  and  N_4
REMARK    4  A    between atoms: N_4  and  C_5
REMARK    5  A    between atoms: N_4  and  C_12
REMARK    6  A    between atoms: C_5  and  C_6
REMARK    7  A    between atoms: N_10  and  C_11
REMARK    8  A    between atoms: C_16  and  N_17
REMARK    9  A    between atoms: C_24  and  C_25
REMARK                            x       y       z     vdW  Elec       q    Type
REMARK                         _______ _______ _______ _____ _____    ______ ____
ROOT
ATOM      1  C   UNL     1       4.447   4.291  16.820  0.00  0.00    +0.000 C 
ATOM      2  C   UNL     1       3.775   3.125  16.836  0.00  0.00    +0.000 C 
ATOM      3  C   UNL     1       2.497   2.925  17.590  0.00  0.00    +0.000 C 
ATOM      4  C   UNL     1       2.301   3.931  18.731  0.00  0.00    +0.000 C 
ATOM      5  C   UNL     1       2.863   5.310  18.437  0.00  0.00    +0.000 C 
ATOM      6  C   UNL     1       3.848   5.422  17.525  0.00  0.00    +0.000 C 
ENDROOT
BRANCH   5   7
ATOM      7  N   UNL     1       2.358   6.404  19.141  0.00  0.00    +0.000 N 
ATOM      8  C   UNL     1       2.221   7.730  18.540  0.00  0.00    +0.000 C 
ATOM      9  C   UNL     1       1.609   8.558  19.625  0.00  0.00    +0.000 A 
ATOM     10  C   UNL     1       1.430   7.770  20.758  0.00  0.00    +0.000 A 
ATOM     11  C   UNL     1       0.900   8.253  21.941  0.00  0.00    +0.000 A 
ATOM     12  C   UNL     1       0.537   9.598  21.977  0.00  0.00    +0.000 A 
ATOM     13  C   UNL     1       0.704  10.411  20.840  0.00  0.00    +0.000 A 
ATOM     14  C   UNL     1       1.239   9.898  19.639  0.00  0.00    +0.000 A 
ATOM     15  C   UNL     1       1.889   6.410  20.465  0.00  0.00    +0.000 C 
ATOM     16  O   UNL     1       1.824   5.523  21.298  0.00  0.00    +0.000 OA
BRANCH  14  17
ATOM     17  C   UNL     1       1.388  10.801  18.441  0.00  0.00    +0.000 C 
ATOM     18  F   UNL     1       2.457  11.640  18.518  0.00  0.00    +0.000 F 
ATOM     19  F   UNL     1       1.549  10.101  17.286  0.00  0.00    +0.000 F 
ATOM     20  F   UNL     1       0.302  11.598  18.250  0.00  0.00    +0.000 F 
ENDBRANCH  14  17
ENDBRANCH   5   7
BRANCH   1  21
ATOM     21  N   UNL     1       5.660   4.486  16.140  0.00  0.00    +0.000 N 
BRANCH  21  22
ATOM     22  C   UNL     1       5.685   4.758  14.688  0.00  0.00    +0.000 C 
BRANCH  22  24
ATOM     23  C   UNL     1       5.772   3.530  12.434  0.00  0.00    +0.000 C 
ATOM     24  C   UNL     1       6.256   3.589  13.878  0.00  0.00    +0.000 C 
ENDBRANCH  22  24
ENDBRANCH  21  22
BRANCH  21  25
ATOM     25  C   UNL     1       6.919   4.679  16.917  0.00  0.00    +0.000 C 
BRANCH  25  26
ATOM     26  C   UNL     1       7.337   6.051  17.348  0.00  0.00    +0.000 A 
ATOM     27  N   UNL     1       7.255   7.161  16.635  0.00  0.00    +0.000 NA
ATOM     28  N   UNL     1       7.783   8.191  17.372  0.00  0.00    +0.000 NA
ATOM     29  C   UNL     1       8.142   7.703  18.534  0.00  0.00    +0.000 A 
ATOM     30  N   UNL     1       7.835   6.378  18.585  0.00  0.00    +0.000 N 
ATOM     31  C   UNL     1       7.983   5.529  19.737  0.00  0.00    +0.000 C 
ENDBRANCH  25  26
ENDBRANCH  21  25
ENDBRANCH   1  21
TORSDOF 7
ENDMDL
