MODEL 1
REMARK VINA RESULT:      -8.4      0.000      0.000
REMARK  Name = 
REMARK  6 active torsions:
REMARK  status: ('A' for Active; 'I' for Inactive)
REMARK    1  A    between atoms: C_1  and  C_2
REMARK    2  A    between atoms: C_5  and  C_6
REMARK    3  A    between atoms: C_7  and  S_8
REMARK    4  A    between atoms: S_8  and  N_11
REMARK    5  A    between atoms: N_11  and  C_12
REMARK    6  A    between atoms: C_16  and  C_17
REMARK                            x       y       z     vdW  Elec       q    Type
REMARK                         _______ _______ _______ _____ _____    ______ ____
ROOT
ATOM      1  C   UNL     1       5.082   4.410  18.688  0.00  0.00    +0.000 A 
ATOM      2  C   UNL     1       4.179   5.460  18.856  0.00  0.00    +0.000 A 
ATOM      3  C   UNL     1       3.945   6.343  17.804  0.00  0.00    +0.000 A 
ATOM      4  C   UNL     1       4.631   6.188  16.597  0.00  0.00    +0.000 A 
ATOM      5  C   UNL     1       5.589   5.177  16.447  0.00  0.00    +0.000 A 
ATOM      6  C   UNL     1       5.767   4.254  17.483  0.00  0.00    +0.000 A 
ENDROOT
BRANCH   5   7
ATOM      7  C   UNL     1       6.453   5.100  15.262  0.00  0.00    +0.000 A 
ATOM      8  N   UNL     1       7.565   5.785  15.074  0.00  0.00    +0.000 NA
ATOM      9  N   UNL     1       8.067   5.471  13.836  0.00  0.00    +0.000 NA
ATOM     10  C   UNL     1       7.253   4.614  13.262  0.00  0.00    +0.000 A 
ATOM     11  N   UNL     1       6.193   4.384  14.107  0.00  0.00    +0.000 N 
ATOM     12  C   UNL     1       5.007   3.597  13.833  0.00  0.00    +0.000 C 
ATOM     13  C   UNL     1       4.516   3.652  12.393  0.00  0.00    +0.000 C 
ATOM     14  C   UNL     1       5.294   2.741  11.447  0.00  0.00    +0.000 C 
ATOM     15  C   UNL     1       6.800   2.665  11.702  0.00  0.00    +0.000 C 
ATOM     16  C   UNL     1       7.452   4.027  11.904  0.00  0.00    +0.000 C 
ENDBRANCH   5   7
BRANCH   1  17
ATOM     17  N   UNL     1       5.349   3.498  19.754  0.00  0.00    +0.000 N 
ATOM     18  H   UNL     1       5.381   3.950  20.668  0.00  0.00    +0.000 HD
BRANCH  17  19
ATOM     19  S   UNL     1       4.319   2.158  19.890  0.00  0.00    +0.000 S 
ATOM     20  O   UNL     1       4.370   1.680  21.258  0.00  0.00    +0.000 OA
ATOM     21  O   UNL     1       4.636   1.281  18.787  0.00  0.00    +0.000 OA
BRANCH  19  28
ATOM     22  C   UNL     1       2.684   2.553  16.993  0.00  0.00    +0.000 C 
ATOM     23  C   UNL     1       2.093   2.772  18.337  0.00  0.00    +0.000 A 
ATOM     24  N   UNL     1       0.813   3.153  18.448  0.00  0.00    +0.000 NA
ATOM     25  N   UNL     1       0.613   3.267  19.769  0.00  0.00    +0.000 N 
ATOM     26  C   UNL     1       1.709   2.955  20.526  0.00  0.00    +0.000 A 
ATOM     27  C   UNL     1       1.684   2.994  22.005  0.00  0.00    +0.000 C 
ATOM     28  C   UNL     1       2.696   2.635  19.610  0.00  0.00    +0.000 A 
ATOM     29  H   UNL     1      -0.306   3.559  20.087  0.00  0.00    +0.000 HD
ENDBRANCH  19  28
ENDBRANCH  17  19
ENDBRANCH   1  17
TORSDOF 4
ENDMDL
MODEL 2
REMARK VINA RESULT:      -8.3      0.256      1.583
REMARK  Name = 
REMARK  6 active torsions:
REMARK  status: ('A' for Active; 'I' for Inactive)
REMARK    1  A    between atoms: C_1  and  C_2
REMARK    2  A    between atoms: C_5  and  C_6
REMARK    3  A    between atoms: C_7  and  S_8
REMARK    4  A    between atoms: S_8  and  N_11
REMARK    5  A    between atoms: N_11  and  C_12
REMARK    6  A    between atoms: C_16  and  C_17
REMARK                            x       y       z     vdW  Elec       q    Type
REMARK                         _______ _______ _______ _____ _____    ______ ____
ROOT
ATOM      1  C   UNL     1       5.233   4.436  18.572  0.00  0.00    +0.000 A 
ATOM      2  C   UNL     1       4.397   5.533  18.777  0.00  0.00    +0.000 A 
ATOM      3  C   UNL     1       4.185   6.442  17.743  0.00  0.00    +0.000 A 
ATOM      4  C   UNL     1       4.827   6.264  16.516  0.00  0.00    +0.000 A 
ATOM      5  C   UNL     1       5.722   5.203  16.327  0.00  0.00    +0.000 A 
ATOM      6  C   UNL     1       5.876   4.258  17.347  0.00  0.00    +0.000 A 
ENDROOT
BRANCH   5   7
ATOM      7  C   UNL     1       6.547   5.092  15.118  0.00  0.00    +0.000 A 
ATOM      8  N   UNL     1       7.658   5.764  14.880  0.00  0.00    +0.000 NA
ATOM      9  N   UNL     1       8.118   5.419  13.634  0.00  0.00    +0.000 NA
ATOM     10  C   UNL     1       7.279   4.557  13.104  0.00  0.00    +0.000 A 
ATOM     11  N   UNL     1       6.245   4.355  13.987  0.00  0.00    +0.000 N 
ATOM     12  C   UNL     1       5.045   3.573  13.767  0.00  0.00    +0.000 C 
ATOM     13  C   UNL     1       4.509   3.601  12.342  0.00  0.00    +0.000 C 
ATOM     14  C   UNL     1       5.249   2.663  11.393  0.00  0.00    +0.000 C 
ATOM     15  C   UNL     1       6.762   2.579  11.602  0.00  0.00    +0.000 C 
ATOM     16  C   UNL     1       7.431   3.940  11.754  0.00  0.00    +0.000 C 
ENDBRANCH   5   7
BRANCH   1  17
ATOM     17  N   UNL     1       5.478   3.497  19.620  0.00  0.00    +0.000 N 
ATOM     18  H   UNL     1       5.614   3.939  20.530  0.00  0.00    +0.000 HD
BRANCH  17  19
ATOM     19  S   UNL     1       4.330   2.265  19.825  0.00  0.00    +0.000 S 
ATOM     20  O   UNL     1       4.357   1.842  21.212  0.00  0.00    +0.000 OA
ATOM     21  O   UNL     1       4.550   1.317  18.757  0.00  0.00    +0.000 OA
BRANCH  19  28
ATOM     22  C   UNL     1       2.014   3.284  22.019  0.00  0.00    +0.000 C 
ATOM     23  C   UNL     1       1.844   3.288  20.544  0.00  0.00    +0.000 A 
ATOM     24  N   UNL     1       0.698   3.726  20.006  0.00  0.00    +0.000 NA
ATOM     25  N   UNL     1       0.876   3.585  18.683  0.00  0.00    +0.000 N 
ATOM     26  C   UNL     1       2.103   3.090  18.338  0.00  0.00    +0.000 A 
ATOM     27  C   UNL     1       2.503   2.885  16.928  0.00  0.00    +0.000 C 
ATOM     28  C   UNL     1       2.755   2.879  19.541  0.00  0.00    +0.000 A 
ATOM     29  H   UNL     1       0.114   3.855  18.070  0.00  0.00    +0.000 HD
ENDBRANCH  19  28
ENDBRANCH  17  19
ENDBRANCH   1  17
TORSDOF 4
ENDMDL
MODEL 3
REMARK VINA RESULT:      -8.3      5.917      9.365
REMARK  Name = 
REMARK  6 active torsions:
REMARK  status: ('A' for Active; 'I' for Inactive)
REMARK    1  A    between atoms: C_1  and  C_2
REMARK    2  A    between atoms: C_5  and  C_6
REMARK    3  A    between atoms: C_7  and  S_8
REMARK    4  A    between atoms: S_8  and  N_11
REMARK    5  A    between atoms: N_11  and  C_12
REMARK    6  A    between atoms: C_16  and  C_17
REMARK                            x       y       z     vdW  Elec       q    Type
REMARK                         _______ _______ _______ _____ _____    ______ ____
ROOT
ATOM      1  C   UNL     1       2.230   7.754  19.340  0.00  0.00    +0.000 A 
ATOM      2  C   UNL     1       1.992   8.219  18.047  0.00  0.00    +0.000 A 
ATOM      3  C   UNL     1       1.198   9.348  17.855  0.00  0.00    +0.000 A 
ATOM      4  C   UNL     1       0.627   9.993  18.954  0.00  0.00    +0.000 A 
ATOM      5  C   UNL     1       0.805   9.489  20.249  0.00  0.00    +0.000 A 
ATOM      6  C   UNL     1       1.659   8.397  20.438  0.00  0.00    +0.000 A 
ENDROOT
BRANCH   5   7
ATOM      7  C   UNL     1       0.074  10.034  21.399  0.00  0.00    +0.000 A 
ATOM      8  N   UNL     1       0.029   9.500  22.605  0.00  0.00    +0.000 NA
ATOM      9  N   UNL     1      -0.783  10.275  23.395  0.00  0.00    +0.000 NA
ATOM     10  C   UNL     1      -1.249  11.266  22.668  0.00  0.00    +0.000 A 
ATOM     11  N   UNL     1      -0.771  11.130  21.386  0.00  0.00    +0.000 N 
ATOM     12  C   UNL     1      -1.119  11.931  20.230  0.00  0.00    +0.000 C 
ATOM     13  C   UNL     1      -2.562  12.418  20.194  0.00  0.00    +0.000 C 
ATOM     14  C   UNL     1      -2.817  13.639  21.072  0.00  0.00    +0.000 C 
ATOM     15  C   UNL     1      -2.076  13.650  22.410  0.00  0.00    +0.000 C 
ATOM     16  C   UNL     1      -2.168  12.331  23.166  0.00  0.00    +0.000 C 
ENDBRANCH   5   7
BRANCH   1  17
ATOM     17  N   UNL     1       3.029   6.591  19.563  0.00  0.00    +0.000 N 
ATOM     18  H   UNL     1       3.515   6.606  20.460  0.00  0.00    +0.000 HD
BRANCH  17  19
ATOM     19  S   UNL     1       2.247   5.091  19.439  0.00  0.00    +0.000 S 
ATOM     20  O   UNL     1       1.780   4.930  18.076  0.00  0.00    +0.000 OA
ATOM     21  O   UNL     1       1.328   5.014  20.551  0.00  0.00    +0.000 OA
BRANCH  19  28
ATOM     22  C   UNL     1       2.089   2.544  21.610  0.00  0.00    +0.000 C 
ATOM     23  C   UNL     1       3.208   2.783  20.662  0.00  0.00    +0.000 A 
ATOM     24  N   UNL     1       4.249   1.941  20.635  0.00  0.00    +0.000 NA
ATOM     25  N   UNL     1       5.062   2.447  19.694  0.00  0.00    +0.000 N 
ATOM     26  C   UNL     1       4.578   3.576  19.093  0.00  0.00    +0.000 A 
ATOM     27  C   UNL     1       5.314   4.270  18.012  0.00  0.00    +0.000 C 
ATOM     28  C   UNL     1       3.367   3.822  19.715  0.00  0.00    +0.000 A 
ATOM     29  H   UNL     1       5.934   1.962  19.510  0.00  0.00    +0.000 HD
ENDBRANCH  19  28
ENDBRANCH  17  19
ENDBRANCH   1  17
TORSDOF 4
ENDMDL
MODEL 4
REMARK VINA RESULT:      -8.2      1.670      2.066
REMARK  Name = 
REMARK  6 active torsions:
REMARK  status: ('A' for Active; 'I' for Inactive)
REMARK    1  A    between atoms: C_1  and  C_2
REMARK    2  A    between atoms: C_5  and  C_6
REMARK    3  A    between atoms: C_7  and  S_8
REMARK    4  A    between atoms: S_8  and  N_11
REMARK    5  A    between atoms: N_11  and  C_12
REMARK    6  A    between atoms: C_16  and  C_17
REMARK                            x       y       z     vdW  Elec       q    Type
REMARK                         _______ _______ _______ _____ _____    ______ ____
ROOT
ATOM      1  C   UNL     1       5.937   4.343  18.205  0.00  0.00    +0.000 A 
ATOM      2  C   UNL     1       6.413   5.358  19.034  0.00  0.00    +0.000 A 
ATOM      3  C   UNL     1       7.143   6.411  18.487  0.00  0.00    +0.000 A 
ATOM      4  C   UNL     1       7.413   6.434  17.117  0.00  0.00    +0.000 A 
ATOM      5  C   UNL     1       6.997   5.382  16.291  0.00  0.00    +0.000 A 
ATOM      6  C   UNL     1       6.207   4.365  16.837  0.00  0.00    +0.000 A 
ENDROOT
BRANCH   5   7
ATOM      7  C   UNL     1       7.419   5.286  14.888  0.00  0.00    +0.000 A 
ATOM      8  N   UNL     1       8.370   6.004  14.320  0.00  0.00    +0.000 NA
ATOM      9  N   UNL     1       8.445   5.657  12.994  0.00  0.00    +0.000 NA
ATOM     10  C   UNL     1       7.530   4.745  12.750  0.00  0.00    +0.000 A 
ATOM     11  N   UNL     1       6.825   4.512  13.907  0.00  0.00    +0.000 N 
ATOM     12  C   UNL     1       5.657   3.670  14.068  0.00  0.00    +0.000 C 
ATOM     13  C   UNL     1       4.712   3.644  12.874  0.00  0.00    +0.000 C 
ATOM     14  C   UNL     1       5.175   2.724  11.748  0.00  0.00    +0.000 C 
ATOM     15  C   UNL     1       6.682   2.715  11.487  0.00  0.00    +0.000 C 
ATOM     16  C   UNL     1       7.295   4.109  11.420  0.00  0.00    +0.000 C 
ENDBRANCH   5   7
BRANCH   1  17
ATOM     17  N   UNL     1       5.198   3.246  18.743  0.00  0.00    +0.000 N 
ATOM     18  H   UNL     1       5.381   3.087  19.734  0.00  0.00    +0.000 HD
BRANCH  17  19
ATOM     19  S   UNL     1       3.514   3.288  18.543  0.00  0.00    +0.000 S 
ATOM     20  O   UNL     1       2.963   2.044  19.048  0.00  0.00    +0.000 OA
ATOM     21  O   UNL     1       3.271   3.706  17.182  0.00  0.00    +0.000 OA
BRANCH  19  28
ATOM     22  C   UNL     1       3.154   6.547  17.859  0.00  0.00    +0.000 C 
ATOM     23  C   UNL     1       2.731   5.894  19.123  0.00  0.00    +0.000 A 
ATOM     24  N   UNL     1       2.154   6.623  20.089  0.00  0.00    +0.000 NA
ATOM     25  N   UNL     1       1.913   5.742  21.072  0.00  0.00    +0.000 N 
ATOM     26  C   UNL     1       2.294   4.462  20.775  0.00  0.00    +0.000 A 
ATOM     27  C   UNL     1       2.090   3.340  21.719  0.00  0.00    +0.000 C 
ATOM     28  C   UNL     1       2.840   4.536  19.506  0.00  0.00    +0.000 A 
ATOM     29  H   UNL     1       1.479   6.086  21.922  0.00  0.00    +0.000 HD
ENDBRANCH  19  28
ENDBRANCH  17  19
ENDBRANCH   1  17
TORSDOF 4
ENDMDL
MODEL 5
REMARK VINA RESULT:      -8.2      1.882      2.267
REMARK  Name = 
REMARK  6 active torsions:
REMARK  status: ('A' for Active; 'I' for Inactive)
REMARK    1  A    between atoms: C_1  and  C_2
REMARK    2  A    between atoms: C_5  and  C_6
REMARK    3  A    between atoms: C_7  and  S_8
REMARK    4  A    between atoms: S_8  and  N_11
REMARK    5  A    between atoms: N_11  and  C_12
REMARK    6  A    between atoms: C_16  and  C_17
REMARK                            x       y       z     vdW  Elec       q    Type
REMARK                         _______ _______ _______ _____ _____    ______ ____
ROOT
ATOM      1  C   UNL     1       4.444   3.450  17.906  0.00  0.00    +0.000 A 
ATOM      2  C   UNL     1       4.990   3.952  19.086  0.00  0.00    +0.000 A 
ATOM      3  C   UNL     1       6.078   4.820  19.029  0.00  0.00    +0.000 A 
ATOM      4  C   UNL     1       6.630   5.165  17.793  0.00  0.00    +0.000 A 
ATOM      5  C   UNL     1       6.129   4.609  16.609  0.00  0.00    +0.000 A 
ATOM      6  C   UNL     1       4.995   3.793  16.671  0.00  0.00    +0.000 A 
ENDROOT
BRANCH   5   7
ATOM      7  C   UNL     1       6.798   4.807  15.317  0.00  0.00    +0.000 A 
ATOM      8  N   UNL     1       7.769   5.669  15.078  0.00  0.00    +0.000 NA
ATOM      9  N   UNL     1       8.106   5.588  13.750  0.00  0.00    +0.000 NA
ATOM     10  C   UNL     1       7.329   4.697  13.176  0.00  0.00    +0.000 A 
ATOM     11  N   UNL     1       6.454   4.209  14.118  0.00  0.00    +0.000 N 
ATOM     12  C   UNL     1       5.351   3.294  13.900  0.00  0.00    +0.000 C 
ATOM     13  C   UNL     1       4.636   3.452  12.565  0.00  0.00    +0.000 C 
ATOM     14  C   UNL     1       5.367   2.792  11.399  0.00  0.00    +0.000 C 
ATOM     15  C   UNL     1       6.891   2.909  11.430  0.00  0.00    +0.000 C 
ATOM     16  C   UNL     1       7.385   4.318  11.733  0.00  0.00    +0.000 C 
ENDBRANCH   5   7
BRANCH   1  17
ATOM     17  N   UNL     1       3.337   2.548  17.938  0.00  0.00    +0.000 N 
ATOM     18  H   UNL     1       3.457   1.791  18.612  0.00  0.00    +0.000 HD
BRANCH  17  19
ATOM     19  S   UNL     1       1.806   3.226  18.211  0.00  0.00    +0.000 S 
ATOM     20  O   UNL     1       0.937   2.193  18.741  0.00  0.00    +0.000 OA
ATOM     21  O   UNL     1       1.455   3.945  17.009  0.00  0.00    +0.000 OA
BRANCH  19  28
ATOM     22  C   UNL     1       2.345   6.518  17.899  0.00  0.00    +0.000 C 
ATOM     23  C   UNL     1       2.139   5.811  19.188  0.00  0.00    +0.000 A 
ATOM     24  N   UNL     1       2.158   6.500  20.337  0.00  0.00    +0.000 NA
ATOM     25  N   UNL     1       1.954   5.573  21.285  0.00  0.00    +0.000 N 
ATOM     26  C   UNL     1       1.783   4.307  20.796  0.00  0.00    +0.000 A 
ATOM     27  C   UNL     1       1.522   3.149  21.679  0.00  0.00    +0.000 C 
ATOM     28  C   UNL     1       1.908   4.434  19.424  0.00  0.00    +0.000 A 
ATOM     29  H   UNL     1       1.939   5.879  22.253  0.00  0.00    +0.000 HD
ENDBRANCH  19  28
ENDBRANCH  17  19
ENDBRANCH   1  17
TORSDOF 4
ENDMDL
MODEL 6
REMARK VINA RESULT:      -8.1      1.882      2.604
REMARK  Name = 
REMARK  6 active torsions:
REMARK  status: ('A' for Active; 'I' for Inactive)
REMARK    1  A    between atoms: C_1  and  C_2
REMARK    2  A    between atoms: C_5  and  C_6
REMARK    3  A    between atoms: C_7  and  S_8
REMARK    4  A    between atoms: S_8  and  N_11
REMARK    5  A    between atoms: N_11  and  C_12
REMARK    6  A    between atoms: C_16  and  C_17
REMARK                            x       y       z     vdW  Elec       q    Type
REMARK                         _______ _______ _______ _____ _____    ______ ____
ROOT
ATOM      1  C   UNL     1       4.392   3.426  17.874  0.00  0.00    +0.000 A 
ATOM      2  C   UNL     1       4.942   3.903  19.062  0.00  0.00    +0.000 A 
ATOM      3  C   UNL     1       6.041   4.758  19.020  0.00  0.00    +0.000 A 
ATOM      4  C   UNL     1       6.601   5.113  17.790  0.00  0.00    +0.000 A 
ATOM      5  C   UNL     1       6.096   4.580  16.597  0.00  0.00    +0.000 A 
ATOM      6  C   UNL     1       4.950   3.779  16.645  0.00  0.00    +0.000 A 
ENDROOT
BRANCH   5   7
ATOM      7  C   UNL     1       6.771   4.788  15.310  0.00  0.00    +0.000 A 
ATOM      8  N   UNL     1       7.736   5.658  15.079  0.00  0.00    +0.000 NA
ATOM      9  N   UNL     1       8.081   5.584  13.753  0.00  0.00    +0.000 NA
ATOM     10  C   UNL     1       7.316   4.687  13.172  0.00  0.00    +0.000 A 
ATOM     11  N   UNL     1       6.439   4.190  14.107  0.00  0.00    +0.000 N 
ATOM     12  C   UNL     1       5.346   3.266  13.881  0.00  0.00    +0.000 C 
ATOM     13  C   UNL     1       4.638   3.421  12.541  0.00  0.00    +0.000 C 
ATOM     14  C   UNL     1       5.381   2.770  11.378  0.00  0.00    +0.000 C 
ATOM     15  C   UNL     1       6.904   2.901  11.418  0.00  0.00    +0.000 C 
ATOM     16  C   UNL     1       7.384   4.313  11.729  0.00  0.00    +0.000 C 
ENDBRANCH   5   7
BRANCH   1  17
ATOM     17  N   UNL     1       3.273   2.539  17.890  0.00  0.00    +0.000 N 
ATOM     18  H   UNL     1       3.388   1.761  18.541  0.00  0.00    +0.000 HD
BRANCH  17  19
ATOM     19  S   UNL     1       1.754   3.230  18.195  0.00  0.00    +0.000 S 
ATOM     20  O   UNL     1       0.888   2.206  18.746  0.00  0.00    +0.000 OA
ATOM     21  O   UNL     1       1.382   3.949  16.998  0.00  0.00    +0.000 OA
BRANCH  19  28
ATOM     22  C   UNL     1       1.461   2.966  21.521  0.00  0.00    +0.000 C 
ATOM     23  C   UNL     1       1.753   4.227  20.793  0.00  0.00    +0.000 A 
ATOM     24  N   UNL     1       1.923   5.367  21.476  0.00  0.00    +0.000 NA
ATOM     25  N   UNL     1       2.155   6.290  20.530  0.00  0.00    +0.000 N 
ATOM     26  C   UNL     1       2.162   5.790  19.257  0.00  0.00    +0.000 A 
ATOM     27  C   UNL     1       2.425   6.643  18.077  0.00  0.00    +0.000 C 
ATOM     28  C   UNL     1       1.892   4.441  19.401  0.00  0.00    +0.000 A 
ATOM     29  H   UNL     1       2.307   7.248  20.829  0.00  0.00    +0.000 HD
ENDBRANCH  19  28
ENDBRANCH  17  19
ENDBRANCH   1  17
TORSDOF 4
ENDMDL
MODEL 7
REMARK VINA RESULT:      -8.1      5.844      9.187
REMARK  Name = 
REMARK  6 active torsions:
REMARK  status: ('A' for Active; 'I' for Inactive)
REMARK    1  A    between atoms: C_1  and  C_2
REMARK    2  A    between atoms: C_5  and  C_6
REMARK    3  A    between atoms: C_7  and  S_8
REMARK    4  A    between atoms: S_8  and  N_11
REMARK    5  A    between atoms: N_11  and  C_12
REMARK    6  A    between atoms: C_16  and  C_17
REMARK                            x       y       z     vdW  Elec       q    Type
REMARK                         _______ _______ _______ _____ _____    ______ ____
ROOT
ATOM      1  C   UNL     1       2.272   7.645  19.290  0.00  0.00    +0.000 A 
ATOM      2  C   UNL     1       2.065   8.158  18.010  0.00  0.00    +0.000 A 
ATOM      3  C   UNL     1       1.322   9.326  17.846  0.00  0.00    +0.000 A 
ATOM      4  C   UNL     1       0.770   9.963  18.960  0.00  0.00    +0.000 A 
ATOM      5  C   UNL     1       0.915   9.413  20.240  0.00  0.00    +0.000 A 
ATOM      6  C   UNL     1       1.720   8.280  20.403  0.00  0.00    +0.000 A 
ENDROOT
BRANCH   5   7
ATOM      7  C   UNL     1       0.198   9.954  21.401  0.00  0.00    +0.000 A 
ATOM      8  N   UNL     1       0.156   9.408  22.602  0.00  0.00    +0.000 NA
ATOM      9  N   UNL     1      -0.642  10.184  23.406  0.00  0.00    +0.000 NA
ATOM     10  C   UNL     1      -1.102  11.187  22.692  0.00  0.00    +0.000 A 
ATOM     11  N   UNL     1      -0.635  11.058  21.405  0.00  0.00    +0.000 N 
ATOM     12  C   UNL     1      -0.983  11.876  20.260  0.00  0.00    +0.000 C 
ATOM     13  C   UNL     1      -2.420  12.378  20.239  0.00  0.00    +0.000 C 
ATOM     14  C   UNL     1      -2.656  13.593  21.131  0.00  0.00    +0.000 C 
ATOM     15  C   UNL     1      -1.905  13.583  22.464  0.00  0.00    +0.000 C 
ATOM     16  C   UNL     1      -2.007  12.257  23.208  0.00  0.00    +0.000 C 
ENDBRANCH   5   7
BRANCH   1  17
ATOM     17  N   UNL     1       3.018   6.443  19.484  0.00  0.00    +0.000 N 
ATOM     18  H   UNL     1       3.567   6.447  20.345  0.00  0.00    +0.000 HD
BRANCH  17  19
ATOM     19  S   UNL     1       2.147   4.988  19.448  0.00  0.00    +0.000 S 
ATOM     20  O   UNL     1       1.779   4.710  18.073  0.00  0.00    +0.000 OA
ATOM     21  O   UNL     1       1.140   5.086  20.479  0.00  0.00    +0.000 OA
BRANCH  19  28
ATOM     22  C   UNL     1       5.187   4.104  18.352  0.00  0.00    +0.000 C 
ATOM     23  C   UNL     1       4.432   3.400  19.419  0.00  0.00    +0.000 A 
ATOM     24  N   UNL     1       4.969   2.329  20.019  0.00  0.00    +0.000 NA
ATOM     25  N   UNL     1       4.039   1.942  20.905  0.00  0.00    +0.000 N 
ATOM     26  C   UNL     1       2.923   2.733  20.918  0.00  0.00    +0.000 A 
ATOM     27  C   UNL     1       1.793   2.487  21.842  0.00  0.00    +0.000 C 
ATOM     28  C   UNL     1       3.152   3.692  19.947  0.00  0.00    +0.000 A 
ATOM     29  H   UNL     1       4.236   1.127  21.475  0.00  0.00    +0.000 HD
ENDBRANCH  19  28
ENDBRANCH  17  19
ENDBRANCH   1  17
TORSDOF 4
ENDMDL
MODEL 8
REMARK VINA RESULT:      -8.1      1.646      2.433
REMARK  Name = 
REMARK  6 active torsions:
REMARK  status: ('A' for Active; 'I' for Inactive)
REMARK    1  A    between atoms: C_1  and  C_2
REMARK    2  A    between atoms: C_5  and  C_6
REMARK    3  A    between atoms: C_7  and  S_8
REMARK    4  A    between atoms: S_8  and  N_11
REMARK    5  A    between atoms: N_11  and  C_12
REMARK    6  A    between atoms: C_16  and  C_17
REMARK                            x       y       z     vdW  Elec       q    Type
REMARK                         _______ _______ _______ _____ _____    ______ ____
ROOT
ATOM      1  C   UNL     1       5.938   4.339  18.236  0.00  0.00    +0.000 A 
ATOM      2  C   UNL     1       6.417   5.351  19.067  0.00  0.00    +0.000 A 
ATOM      3  C   UNL     1       7.147   6.405  18.521  0.00  0.00    +0.000 A 
ATOM      4  C   UNL     1       7.416   6.430  17.150  0.00  0.00    +0.000 A 
ATOM      5  C   UNL     1       6.997   5.380  16.323  0.00  0.00    +0.000 A 
ATOM      6  C   UNL     1       6.206   4.363  16.868  0.00  0.00    +0.000 A 
ENDROOT
BRANCH   5   7
ATOM      7  C   UNL     1       7.417   5.287  14.919  0.00  0.00    +0.000 A 
ATOM      8  N   UNL     1       8.369   6.004  14.351  0.00  0.00    +0.000 NA
ATOM      9  N   UNL     1       8.442   5.659  13.025  0.00  0.00    +0.000 NA
ATOM     10  C   UNL     1       7.524   4.751  12.779  0.00  0.00    +0.000 A 
ATOM     11  N   UNL     1       6.819   4.517  13.937  0.00  0.00    +0.000 N 
ATOM     12  C   UNL     1       5.649   3.678  14.097  0.00  0.00    +0.000 C 
ATOM     13  C   UNL     1       4.702   3.658  12.904  0.00  0.00    +0.000 C 
ATOM     14  C   UNL     1       5.161   2.739  11.776  0.00  0.00    +0.000 C 
ATOM     15  C   UNL     1       6.667   2.727  11.512  0.00  0.00    +0.000 C 
ATOM     16  C   UNL     1       7.284   4.119  11.449  0.00  0.00    +0.000 C 
ENDBRANCH   5   7
BRANCH   1  17
ATOM     17  N   UNL     1       5.198   3.242  18.773  0.00  0.00    +0.000 N 
ATOM     18  H   UNL     1       5.371   3.091  19.767  0.00  0.00    +0.000 HD
BRANCH  17  19
ATOM     19  S   UNL     1       3.516   3.274  18.553  0.00  0.00    +0.000 S 
ATOM     20  O   UNL     1       2.959   2.062  19.123  0.00  0.00    +0.000 OA
ATOM     21  O   UNL     1       3.289   3.613  17.167  0.00  0.00    +0.000 OA
BRANCH  19  28
ATOM     22  C   UNL     1       1.973   3.258  21.526  0.00  0.00    +0.000 C 
ATOM     23  C   UNL     1       2.200   4.467  20.695  0.00  0.00    +0.000 A 
ATOM     24  N   UNL     1       1.778   5.662  21.128  0.00  0.00    +0.000 NA
ATOM     25  N   UNL     1       2.128   6.513  20.151  0.00  0.00    +0.000 N 
ATOM     26  C   UNL     1       2.782   5.920  19.107  0.00  0.00    +0.000 A 
ATOM     27  C   UNL     1       3.273   6.692  17.943  0.00  0.00    +0.000 C 
ATOM     28  C   UNL     1       2.835   4.577  19.434  0.00  0.00    +0.000 A 
ATOM     29  H   UNL     1       1.893   7.493  20.268  0.00  0.00    +0.000 HD
ENDBRANCH  19  28
ENDBRANCH  17  19
ENDBRANCH   1  17
TORSDOF 4
ENDMDL
MODEL 9
REMARK VINA RESULT:      -8.0      3.322      7.265
REMARK  Name = 
REMARK  6 active torsions:
REMARK  status: ('A' for Active; 'I' for Inactive)
REMARK    1  A    between atoms: C_1  and  C_2
REMARK    2  A    between atoms: C_5  and  C_6
REMARK    3  A    between atoms: C_7  and  S_8
REMARK    4  A    between atoms: S_8  and  N_11
REMARK    5  A    between atoms: N_11  and  C_12
REMARK    6  A    between atoms: C_16  and  C_17
REMARK                            x       y       z     vdW  Elec       q    Type
REMARK                         _______ _______ _______ _____ _____    ______ ____
ROOT
ATOM      1  C   UNL     1       4.734   4.166  18.647  0.00  0.00    +0.000 A 
ATOM      2  C   UNL     1       3.989   3.269  17.883  0.00  0.00    +0.000 A 
ATOM      3  C   UNL     1       2.623   3.481  17.706  0.00  0.00    +0.000 A 
ATOM      4  C   UNL     1       2.003   4.576  18.313  0.00  0.00    +0.000 A 
ATOM      5  C   UNL     1       2.733   5.441  19.138  0.00  0.00    +0.000 A 
ATOM      6  C   UNL     1       4.116   5.260  19.254  0.00  0.00    +0.000 A 
ENDROOT
BRANCH   5   7
ATOM      7  C   UNL     1       2.080   6.489  19.932  0.00  0.00    +0.000 A 
ATOM      8  N   UNL     1       1.509   6.319  21.110  0.00  0.00    +0.000 NA
ATOM      9  N   UNL     1       0.977   7.518  21.514  0.00  0.00    +0.000 NA
ATOM     10  C   UNL     1       1.202   8.411  20.575  0.00  0.00    +0.000 A 
ATOM     11  N   UNL     1       1.856   7.795  19.534  0.00  0.00    +0.000 N 
ATOM     12  C   UNL     1       2.199   8.373  18.250  0.00  0.00    +0.000 C 
ATOM     13  C   UNL     1       1.192   9.376  17.705  0.00  0.00    +0.000 C 
ATOM     14  C   UNL     1       1.319  10.766  18.323  0.00  0.00    +0.000 C 
ATOM     15  C   UNL     1       1.640  10.792  19.818  0.00  0.00    +0.000 C 
ATOM     16  C   UNL     1       0.779   9.840  20.640  0.00  0.00    +0.000 C 
ENDBRANCH   5   7
BRANCH   1  17
ATOM     17  N   UNL     1       6.132   3.965  18.855  0.00  0.00    +0.000 N 
ATOM     18  H   UNL     1       6.418   2.992  18.740  0.00  0.00    +0.000 HD
BRANCH  17  19
ATOM     19  S   UNL     1       7.187   4.912  17.924  0.00  0.00    +0.000 S 
ATOM     20  O   UNL     1       8.217   4.048  17.379  0.00  0.00    +0.000 OA
ATOM     21  O   UNL     1       7.534   6.058  18.733  0.00  0.00    +0.000 OA
BRANCH  19  28
ATOM     22  C   UNL     1       5.836   7.952  17.532  0.00  0.00    +0.000 C 
ATOM     23  C   UNL     1       5.816   6.877  16.508  0.00  0.00    +0.000 A 
ATOM     24  N   UNL     1       5.229   7.095  15.324  0.00  0.00    +0.000 NA
ATOM     25  N   UNL     1       5.380   5.940  14.659  0.00  0.00    +0.000 N 
ATOM     26  C   UNL     1       6.062   4.982  15.359  0.00  0.00    +0.000 A 
ATOM     27  C   UNL     1       6.355   3.648  14.789  0.00  0.00    +0.000 C 
ATOM     28  C   UNL     1       6.352   5.569  16.578  0.00  0.00    +0.000 A 
ATOM     29  H   UNL     1       4.995   5.876  13.723  0.00  0.00    +0.000 HD
ENDBRANCH  19  28
ENDBRANCH  17  19
ENDBRANCH   1  17
TORSDOF 4
ENDMDL
