MODEL 1
REMARK VINA RESULT:      -9.4      0.000      0.000
REMARK  Name = 
REMARK  5 active torsions:
REMARK  status: ('A' for Active; 'I' for Inactive)
REMARK    1  A    between atoms: C_2  and  C_15
REMARK    2  A    between atoms: N_3  and  C_4
REMARK    3  A    between atoms: C_4  and  C_5
REMARK    4  A    between atoms: C_17  and  C_18
REMARK    5  A    between atoms: C_18  and  C_19
REMARK                            x       y       z     vdW  Elec       q    Type
REMARK                         _______ _______ _______ _____ _____    ______ ____
ROOT
ATOM      1  O   UNL     1       5.813   3.979  18.614  0.00  0.00    +0.000 OA
ATOM      2  C   UNL     1       5.422   3.741  17.475  0.00  0.00    +0.000 C 
ATOM      3  N   UNL     1       4.337   2.930  17.203  0.00  0.00    +0.000 N 
ATOM      4  H   UNL     1       4.194   2.646  16.248  0.00  0.00    +0.000 HD
ENDROOT
BRANCH   2   5
ATOM      5  C   UNL     1       6.111   4.253  16.319  0.00  0.00    +0.000 A 
ATOM      6  C   UNL     1       6.067   3.948  14.974  0.00  0.00    +0.000 A 
ATOM      7  C   UNL     1       6.982   4.832  14.350  0.00  0.00    +0.000 A 
ATOM      8  N   UNL     1       7.613   5.594  15.253  0.00  0.00    +0.000 NA
ATOM      9  N   UNL     1       7.043   5.252  16.422  0.00  0.00    +0.000 N 
ATOM     10  H   UNL     1       7.337   5.726  17.271  0.00  0.00    +0.000 HD
BRANCH   7  11
ATOM     11  C   UNL     1       7.289   4.949  12.891  0.00  0.00    +0.000 C 
BRANCH  11  12
ATOM     12  C   UNL     1       6.717   3.707  12.247  0.00  0.00    +0.000 A 
ATOM     13  C   UNL     1       7.573   2.715  11.742  0.00  0.00    +0.000 A 
ATOM     14  C   UNL     1       7.055   1.592  11.095  0.00  0.00    +0.000 A 
ATOM     15  C   UNL     1       5.678   1.446  10.946  0.00  0.00    +0.000 A 
ATOM     16  C   UNL     1       4.816   2.414  11.457  0.00  0.00    +0.000 A 
ATOM     17  C   UNL     1       5.331   3.537  12.108  0.00  0.00    +0.000 A 
ENDBRANCH  11  12
ENDBRANCH   7  11
ENDBRANCH   2   5
BRANCH   3  18
ATOM     18  C   UNL     1       3.808   2.053  18.212  0.00  0.00    +0.000 C 
BRANCH  18  19
ATOM     19  C   UNL     1       3.139   2.728  19.371  0.00  0.00    +0.000 C 
ATOM     20  C   UNL     1       1.729   2.790  20.053  0.00  0.00    +0.000 C 
ATOM     21  C   UNL     1       1.292   3.889  21.068  0.00  0.00    +0.000 C 
ATOM     22  C   UNL     1       1.566   5.207  20.353  0.00  0.00    +0.000 A 
ATOM     23  C   UNL     1       1.499   6.508  20.821  0.00  0.00    +0.000 A 
ATOM     24  C   UNL     1       1.981   7.533  19.994  0.00  0.00    +0.000 A 
ATOM     25  C   UNL     1       2.532   7.253  18.735  0.00  0.00    +0.000 A 
ATOM     26  C   UNL     1       2.537   5.951  18.254  0.00  0.00    +0.000 A 
ATOM     27  C   UNL     1       2.009   4.948  19.053  0.00  0.00    +0.000 A 
ATOM     28  C   UNL     1       1.992   3.507  18.783  0.00  0.00    +0.000 C 
ENDBRANCH  18  19
ENDBRANCH   3  18
TORSDOF 5
ENDMDL
MODEL 2
REMARK VINA RESULT:      -9.1      6.270      8.529
REMARK  Name = 
REMARK  5 active torsions:
REMARK  status: ('A' for Active; 'I' for Inactive)
REMARK    1  A    between atoms: C_2  and  C_15
REMARK    2  A    between atoms: N_3  and  C_4
REMARK    3  A    between atoms: C_4  and  C_5
REMARK    4  A    between atoms: C_17  and  C_18
REMARK    5  A    between atoms: C_18  and  C_19
REMARK                            x       y       z     vdW  Elec       q    Type
REMARK                         _______ _______ _______ _____ _____    ______ ____
ROOT
ATOM      1  O   UNL     1       8.453   6.607  19.202  0.00  0.00    +0.000 OA
ATOM      2  C   UNL     1       7.905   7.183  18.267  0.00  0.00    +0.000 C 
ATOM      3  N   UNL     1       8.145   8.506  17.950  0.00  0.00    +0.000 N 
ATOM      4  H   UNL     1       7.527   8.948  17.288  0.00  0.00    +0.000 HD
ENDROOT
BRANCH   2   5
ATOM      5  C   UNL     1       6.914   6.527  17.454  0.00  0.00    +0.000 A 
ATOM      6  C   UNL     1       6.383   5.254  17.444  0.00  0.00    +0.000 A 
ATOM      7  C   UNL     1       5.424   5.245  16.400  0.00  0.00    +0.000 A 
ATOM      8  N   UNL     1       5.404   6.417  15.751  0.00  0.00    +0.000 NA
ATOM      9  N   UNL     1       6.280   7.179  16.428  0.00  0.00    +0.000 N 
ATOM     10  H   UNL     1       6.420   8.143  16.140  0.00  0.00    +0.000 HD
BRANCH   7  11
ATOM     11  C   UNL     1       4.531   4.118  15.990  0.00  0.00    +0.000 C 
BRANCH  11  12
ATOM     12  C   UNL     1       3.654   3.828  17.187  0.00  0.00    +0.000 A 
ATOM     13  C   UNL     1       3.699   2.570  17.807  0.00  0.00    +0.000 A 
ATOM     14  C   UNL     1       2.853   2.274  18.877  0.00  0.00    +0.000 A 
ATOM     15  C   UNL     1       1.952   3.231  19.339  0.00  0.00    +0.000 A 
ATOM     16  C   UNL     1       1.909   4.490  18.744  0.00  0.00    +0.000 A 
ATOM     17  C   UNL     1       2.757   4.790  17.676  0.00  0.00    +0.000 A 
ENDBRANCH  11  12
ENDBRANCH   7  11
ENDBRANCH   2   5
BRANCH   3  18
ATOM     18  C   UNL     1       8.792   9.379  18.892  0.00  0.00    +0.000 C 
BRANCH  18  19
ATOM     19  C   UNL     1       9.192  10.722  18.361  0.00  0.00    +0.000 C 
ATOM     20  C   UNL     1      10.428  11.408  17.684  0.00  0.00    +0.000 C 
ATOM     21  C   UNL     1      10.623  12.950  17.568  0.00  0.00    +0.000 C 
ATOM     22  C   UNL     1      10.478  13.466  18.994  0.00  0.00    +0.000 A 
ATOM     23  C   UNL     1      10.421  14.763  19.473  0.00  0.00    +0.000 A 
ATOM     24  C   UNL     1      10.101  14.955  20.825  0.00  0.00    +0.000 A 
ATOM     25  C   UNL     1       9.830  13.868  21.669  0.00  0.00    +0.000 A 
ATOM     26  C   UNL     1       9.950  12.571  21.190  0.00  0.00    +0.000 A 
ATOM     27  C   UNL     1      10.320  12.385  19.867  0.00  0.00    +0.000 A 
ATOM     28  C   UNL     1      10.420  11.118  19.136  0.00  0.00    +0.000 C 
ENDBRANCH  18  19
ENDBRANCH   3  18
TORSDOF 5
ENDMDL
MODEL 3
REMARK VINA RESULT:      -9.0      4.707      7.291
REMARK  Name = 
REMARK  5 active torsions:
REMARK  status: ('A' for Active; 'I' for Inactive)
REMARK    1  A    between atoms: C_2  and  C_15
REMARK    2  A    between atoms: N_3  and  C_4
REMARK    3  A    between atoms: C_4  and  C_5
REMARK    4  A    between atoms: C_17  and  C_18
REMARK    5  A    between atoms: C_18  and  C_19
REMARK                            x       y       z     vdW  Elec       q    Type
REMARK                         _______ _______ _______ _____ _____    ______ ____
ROOT
ATOM      1  O   UNL     1       2.058   9.334  17.245  0.00  0.00    +0.000 OA
ATOM      2  C   UNL     1       1.829   8.918  18.377  0.00  0.00    +0.000 C 
ATOM      3  N   UNL     1       1.255   9.695  19.364  0.00  0.00    +0.000 N 
ATOM      4  H   UNL     1       1.265   9.337  20.306  0.00  0.00    +0.000 HD
ENDROOT
BRANCH   2   5
ATOM      5  C   UNL     1       2.200   7.587  18.781  0.00  0.00    +0.000 A 
ATOM      6  C   UNL     1       2.728   6.503  18.111  0.00  0.00    +0.000 A 
ATOM      7  C   UNL     1       2.883   5.486  19.086  0.00  0.00    +0.000 A 
ATOM      8  N   UNL     1       2.415   5.883  20.278  0.00  0.00    +0.000 NA
ATOM      9  N   UNL     1       2.048   7.159  20.074  0.00  0.00    +0.000 N 
ATOM     10  H   UNL     1       1.684   7.698  20.855  0.00  0.00    +0.000 HD
BRANCH   7  11
ATOM     11  C   UNL     1       3.452   4.116  18.897  0.00  0.00    +0.000 C 
BRANCH  11  12
ATOM     12  C   UNL     1       4.718   4.303  18.091  0.00  0.00    +0.000 A 
ATOM     13  C   UNL     1       4.743   3.971  16.727  0.00  0.00    +0.000 A 
ATOM     14  C   UNL     1       5.921   4.086  15.989  0.00  0.00    +0.000 A 
ATOM     15  C   UNL     1       7.088   4.534  16.604  0.00  0.00    +0.000 A 
ATOM     16  C   UNL     1       7.074   4.884  17.952  0.00  0.00    +0.000 A 
ATOM     17  C   UNL     1       5.896   4.773  18.692  0.00  0.00    +0.000 A 
ENDBRANCH  11  12
ENDBRANCH   7  11
ENDBRANCH   2   5
BRANCH   3  18
ATOM     18  C   UNL     1       1.198  11.125  19.231  0.00  0.00    +0.000 C 
BRANCH  18  19
ATOM     19  C   UNL     1      -0.178  11.719  19.206  0.00  0.00    +0.000 C 
ATOM     20  C   UNL     1      -1.499  11.684  20.050  0.00  0.00    +0.000 C 
ATOM     21  C   UNL     1      -2.885  12.172  19.532  0.00  0.00    +0.000 C 
ATOM     22  C   UNL     1      -3.100  11.413  18.229  0.00  0.00    +0.000 A 
ATOM     23  C   UNL     1      -4.091  11.545  17.271  0.00  0.00    +0.000 A 
ATOM     24  C   UNL     1      -3.947  10.836  16.070  0.00  0.00    +0.000 A 
ATOM     25  C   UNL     1      -2.826  10.027  15.833  0.00  0.00    +0.000 A 
ATOM     26  C   UNL     1      -1.871   9.857  16.826  0.00  0.00    +0.000 A 
ATOM     27  C   UNL     1      -2.046  10.517  18.032  0.00  0.00    +0.000 A 
ATOM     28  C   UNL     1      -1.126  10.549  19.174  0.00  0.00    +0.000 C 
ENDBRANCH  18  19
ENDBRANCH   3  18
TORSDOF 5
ENDMDL
MODEL 4
REMARK VINA RESULT:      -8.9      5.468      8.493
REMARK  Name = 
REMARK  5 active torsions:
REMARK  status: ('A' for Active; 'I' for Inactive)
REMARK    1  A    between atoms: C_2  and  C_15
REMARK    2  A    between atoms: N_3  and  C_4
REMARK    3  A    between atoms: C_4  and  C_5
REMARK    4  A    between atoms: C_17  and  C_18
REMARK    5  A    between atoms: C_18  and  C_19
REMARK                            x       y       z     vdW  Elec       q    Type
REMARK                         _______ _______ _______ _____ _____    ______ ____
ROOT
ATOM      1  O   UNL     1       7.757   6.642  16.367  0.00  0.00    +0.000 OA
ATOM      2  C   UNL     1       6.928   7.070  17.165  0.00  0.00    +0.000 C 
ATOM      3  N   UNL     1       7.147   8.180  17.959  0.00  0.00    +0.000 N 
ATOM      4  H   UNL     1       6.494   8.356  18.706  0.00  0.00    +0.000 HD
ENDROOT
BRANCH   2   5
ATOM      5  C   UNL     1       5.670   6.404  17.376  0.00  0.00    +0.000 A 
ATOM      6  C   UNL     1       4.378   6.849  17.565  0.00  0.00    +0.000 A 
ATOM      7  C   UNL     1       3.584   5.682  17.695  0.00  0.00    +0.000 A 
ATOM      8  N   UNL     1       4.339   4.576  17.661  0.00  0.00    +0.000 NA
ATOM      9  N   UNL     1       5.580   5.037  17.430  0.00  0.00    +0.000 N 
ATOM     10  H   UNL     1       6.342   4.372  17.329  0.00  0.00    +0.000 HD
BRANCH   7  11
ATOM     11  C   UNL     1       2.102   5.601  17.878  0.00  0.00    +0.000 C 
BRANCH  11  12
ATOM     12  C   UNL     1       1.878   4.629  19.014  0.00  0.00    +0.000 A 
ATOM     13  C   UNL     1       2.267   4.967  20.320  0.00  0.00    +0.000 A 
ATOM     14  C   UNL     1       2.117   4.055  21.365  0.00  0.00    +0.000 A 
ATOM     15  C   UNL     1       1.577   2.794  21.118  0.00  0.00    +0.000 A 
ATOM     16  C   UNL     1       1.170   2.452  19.831  0.00  0.00    +0.000 A 
ATOM     17  C   UNL     1       1.316   3.364  18.784  0.00  0.00    +0.000 A 
ENDBRANCH  11  12
ENDBRANCH   7  11
ENDBRANCH   2   5
BRANCH   3  18
ATOM     18  C   UNL     1       8.475   8.699  18.142  0.00  0.00    +0.000 C 
BRANCH  18  19
ATOM     19  C   UNL     1       8.592  10.193  18.143  0.00  0.00    +0.000 C 
ATOM     20  C   UNL     1       9.661  11.298  17.837  0.00  0.00    +0.000 C 
ATOM     21  C   UNL     1       9.537  12.787  18.282  0.00  0.00    +0.000 C 
ATOM     22  C   UNL     1       9.294  12.722  19.784  0.00  0.00    +0.000 A 
ATOM     23  C   UNL     1       8.975  13.727  20.681  0.00  0.00    +0.000 A 
ATOM     24  C   UNL     1       8.627  13.359  21.989  0.00  0.00    +0.000 A 
ATOM     25  C   UNL     1       8.585  12.012  22.379  0.00  0.00    +0.000 A 
ATOM     26  C   UNL     1       8.966  11.020  21.486  0.00  0.00    +0.000 A 
ATOM     27  C   UNL     1       9.362  11.393  20.211  0.00  0.00    +0.000 A 
ATOM     28  C   UNL     1       9.716  10.514  19.092  0.00  0.00    +0.000 C 
ENDBRANCH  18  19
ENDBRANCH   3  18
TORSDOF 5
ENDMDL
MODEL 5
REMARK VINA RESULT:      -8.8      5.290      7.316
REMARK  Name = 
REMARK  5 active torsions:
REMARK  status: ('A' for Active; 'I' for Inactive)
REMARK    1  A    between atoms: C_2  and  C_15
REMARK    2  A    between atoms: N_3  and  C_4
REMARK    3  A    between atoms: C_4  and  C_5
REMARK    4  A    between atoms: C_17  and  C_18
REMARK    5  A    between atoms: C_18  and  C_19
REMARK                            x       y       z     vdW  Elec       q    Type
REMARK                         _______ _______ _______ _____ _____    ______ ____
ROOT
ATOM      1  O   UNL     1       7.631   6.061  16.169  0.00  0.00    +0.000 OA
ATOM      2  C   UNL     1       7.057   6.681  17.058  0.00  0.00    +0.000 C 
ATOM      3  N   UNL     1       5.807   6.335  17.534  0.00  0.00    +0.000 N 
ATOM      4  H   UNL     1       5.335   6.995  18.132  0.00  0.00    +0.000 HD
ENDROOT
BRANCH   2   5
ATOM      5  C   UNL     1       7.629   7.867  17.641  0.00  0.00    +0.000 A 
ATOM      6  C   UNL     1       8.538   8.084  18.655  0.00  0.00    +0.000 A 
ATOM      7  C   UNL     1       8.700   9.491  18.732  0.00  0.00    +0.000 A 
ATOM      8  N   UNL     1       7.890  10.120  17.869  0.00  0.00    +0.000 NA
ATOM      9  N   UNL     1       7.288   9.120  17.202  0.00  0.00    +0.000 N 
ATOM     10  H   UNL     1       6.637   9.348  16.456  0.00  0.00    +0.000 HD
BRANCH   7  11
ATOM     11  C   UNL     1       9.605  10.258  19.642  0.00  0.00    +0.000 C 
BRANCH  11  12
ATOM     12  C   UNL     1       9.955  11.529  18.901  0.00  0.00    +0.000 A 
ATOM     13  C   UNL     1       9.279  12.725  19.192  0.00  0.00    +0.000 A 
ATOM     14  C   UNL     1       9.555  13.889  18.475  0.00  0.00    +0.000 A 
ATOM     15  C   UNL     1      10.508  13.873  17.458  0.00  0.00    +0.000 A 
ATOM     16  C   UNL     1      11.198  12.698  17.171  0.00  0.00    +0.000 A 
ATOM     17  C   UNL     1      10.927  11.532  17.889  0.00  0.00    +0.000 A 
ENDBRANCH  11  12
ENDBRANCH   7  11
ENDBRANCH   2   5
BRANCH   3  18
ATOM     18  C   UNL     1       4.964   5.438  16.792  0.00  0.00    +0.000 C 
BRANCH  18  19
ATOM     19  C   UNL     1       4.613   4.157  17.488  0.00  0.00    +0.000 C 
ATOM     20  C   UNL     1       3.908   2.793  17.172  0.00  0.00    +0.000 C 
ATOM     21  C   UNL     1       3.403   1.794  18.257  0.00  0.00    +0.000 C 
ATOM     22  C   UNL     1       2.507   2.628  19.164  0.00  0.00    +0.000 A 
ATOM     23  C   UNL     1       1.900   2.301  20.365  0.00  0.00    +0.000 A 
ATOM     24  C   UNL     1       1.269   3.326  21.086  0.00  0.00    +0.000 A 
ATOM     25  C   UNL     1       1.264   4.648  20.617  0.00  0.00    +0.000 A 
ATOM     26  C   UNL     1       1.824   4.949  19.383  0.00  0.00    +0.000 A 
ATOM     27  C   UNL     1       2.398   3.922  18.649  0.00  0.00    +0.000 A 
ATOM     28  C   UNL     1       3.116   4.029  17.375  0.00  0.00    +0.000 C 
ENDBRANCH  18  19
ENDBRANCH   3  18
TORSDOF 5
ENDMDL
MODEL 6
REMARK VINA RESULT:      -8.7      6.296      8.643
REMARK  Name = 
REMARK  5 active torsions:
REMARK  status: ('A' for Active; 'I' for Inactive)
REMARK    1  A    between atoms: C_2  and  C_15
REMARK    2  A    between atoms: N_3  and  C_4
REMARK    3  A    between atoms: C_4  and  C_5
REMARK    4  A    between atoms: C_17  and  C_18
REMARK    5  A    between atoms: C_18  and  C_19
REMARK                            x       y       z     vdW  Elec       q    Type
REMARK                         _______ _______ _______ _____ _____    ______ ____
ROOT
ATOM      1  O   UNL     1       8.509   6.672  19.319  0.00  0.00    +0.000 OA
ATOM      2  C   UNL     1       8.019   7.178  18.314  0.00  0.00    +0.000 C 
ATOM      3  N   UNL     1       8.213   8.500  17.963  0.00  0.00    +0.000 N 
ATOM      4  H   UNL     1       7.636   8.878  17.228  0.00  0.00    +0.000 HD
ENDROOT
BRANCH   2   5
ATOM      5  C   UNL     1       7.145   6.434  17.444  0.00  0.00    +0.000 A 
ATOM      6  C   UNL     1       5.969   5.742  17.645  0.00  0.00    +0.000 A 
ATOM      7  C   UNL     1       5.594   5.243  16.371  0.00  0.00    +0.000 A 
ATOM      8  N   UNL     1       6.514   5.543  15.444  0.00  0.00    +0.000 NA
ATOM      9  N   UNL     1       7.414   6.289  16.108  0.00  0.00    +0.000 N 
ATOM     10  H   UNL     1       8.207   6.671  15.601  0.00  0.00    +0.000 HD
BRANCH   7  11
ATOM     11  C   UNL     1       4.372   4.456  16.021  0.00  0.00    +0.000 C 
BRANCH  11  12
ATOM     12  C   UNL     1       3.679   4.164  17.333  0.00  0.00    +0.000 A 
ATOM     13  C   UNL     1       2.718   5.054  17.838  0.00  0.00    +0.000 A 
ATOM     14  C   UNL     1       2.115   4.821  19.074  0.00  0.00    +0.000 A 
ATOM     15  C   UNL     1       2.464   3.699  19.821  0.00  0.00    +0.000 A 
ATOM     16  C   UNL     1       3.404   2.798  19.325  0.00  0.00    +0.000 A 
ATOM     17  C   UNL     1       4.007   3.026  18.086  0.00  0.00    +0.000 A 
ENDBRANCH  11  12
ENDBRANCH   7  11
ENDBRANCH   2   5
BRANCH   3  18
ATOM     18  C   UNL     1       8.721   9.445  18.920  0.00  0.00    +0.000 C 
BRANCH  18  19
ATOM     19  C   UNL     1       9.189  10.752  18.354  0.00  0.00    +0.000 C 
ATOM     20  C   UNL     1      10.464  11.359  17.674  0.00  0.00    +0.000 C 
ATOM     21  C   UNL     1      10.731  12.886  17.515  0.00  0.00    +0.000 C 
ATOM     22  C   UNL     1      10.591  13.453  18.922  0.00  0.00    +0.000 A 
ATOM     23  C   UNL     1      10.587  14.766  19.361  0.00  0.00    +0.000 A 
ATOM     24  C   UNL     1      10.258  15.013  20.701  0.00  0.00    +0.000 A 
ATOM     25  C   UNL     1       9.925  13.967  21.574  0.00  0.00    +0.000 A 
ATOM     26  C   UNL     1       9.993  12.651  21.136  0.00  0.00    +0.000 A 
ATOM     27  C   UNL     1      10.372  12.408  19.825  0.00  0.00    +0.000 A 
ATOM     28  C   UNL     1      10.424  11.116  19.135  0.00  0.00    +0.000 C 
ENDBRANCH  18  19
ENDBRANCH   3  18
TORSDOF 5
ENDMDL
MODEL 7
REMARK VINA RESULT:      -8.6      6.445      7.942
REMARK  Name = 
REMARK  5 active torsions:
REMARK  status: ('A' for Active; 'I' for Inactive)
REMARK    1  A    between atoms: C_2  and  C_15
REMARK    2  A    between atoms: N_3  and  C_4
REMARK    3  A    between atoms: C_4  and  C_5
REMARK    4  A    between atoms: C_17  and  C_18
REMARK    5  A    between atoms: C_18  and  C_19
REMARK                            x       y       z     vdW  Elec       q    Type
REMARK                         _______ _______ _______ _____ _____    ______ ____
ROOT
ATOM      1  O   UNL     1       8.527   6.862  19.193  0.00  0.00    +0.000 OA
ATOM      2  C   UNL     1       8.019   7.431  18.231  0.00  0.00    +0.000 C 
ATOM      3  N   UNL     1       8.249   8.759  17.931  0.00  0.00    +0.000 N 
ATOM      4  H   UNL     1       7.660   9.190  17.237  0.00  0.00    +0.000 HD
ENDROOT
BRANCH   2   5
ATOM      5  C   UNL     1       7.086   6.758  17.365  0.00  0.00    +0.000 A 
ATOM      6  C   UNL     1       6.923   5.442  16.983  0.00  0.00    +0.000 A 
ATOM      7  C   UNL     1       5.799   5.430  16.118  0.00  0.00    +0.000 A 
ATOM      8  N   UNL     1       5.331   6.669  15.914  0.00  0.00    +0.000 NA
ATOM      9  N   UNL     1       6.098   7.440  16.704  0.00  0.00    +0.000 N 
ATOM     10  H   UNL     1       5.913   8.438  16.748  0.00  0.00    +0.000 HD
BRANCH   7  11
ATOM     11  C   UNL     1       5.169   4.247  15.455  0.00  0.00    +0.000 C 
BRANCH  11  12
ATOM     12  C   UNL     1       5.854   4.112  14.114  0.00  0.00    +0.000 A 
ATOM     13  C   UNL     1       7.049   4.804  13.858  0.00  0.00    +0.000 A 
ATOM     14  C   UNL     1       7.658   4.730  12.604  0.00  0.00    +0.000 A 
ATOM     15  C   UNL     1       7.082   3.966  11.592  0.00  0.00    +0.000 A 
ATOM     16  C   UNL     1       5.906   3.260  11.838  0.00  0.00    +0.000 A 
ATOM     17  C   UNL     1       5.296   3.329  13.091  0.00  0.00    +0.000 A 
ENDBRANCH  11  12
ENDBRANCH   7  11
ENDBRANCH   2   5
BRANCH   3  18
ATOM     18  C   UNL     1       8.827   9.641  18.908  0.00  0.00    +0.000 C 
BRANCH  18  19
ATOM     19  C   UNL     1       9.326  10.953  18.381  0.00  0.00    +0.000 C 
ATOM     20  C   UNL     1      10.630  11.561  17.760  0.00  0.00    +0.000 C 
ATOM     21  C   UNL     1      10.914  13.089  17.635  0.00  0.00    +0.000 C 
ATOM     22  C   UNL     1      10.724  13.634  19.045  0.00  0.00    +0.000 A 
ATOM     23  C   UNL     1      10.713  14.940  19.504  0.00  0.00    +0.000 A 
ATOM     24  C   UNL     1      10.335  15.169  20.835  0.00  0.00    +0.000 A 
ATOM     25  C   UNL     1       9.963  14.111  21.678  0.00  0.00    +0.000 A 
ATOM     26  C   UNL     1      10.037  12.802  21.222  0.00  0.00    +0.000 A 
ATOM     27  C   UNL     1      10.464  12.577  19.922  0.00  0.00    +0.000 A 
ATOM     28  C   UNL     1      10.532  11.295  19.214  0.00  0.00    +0.000 C 
ENDBRANCH  18  19
ENDBRANCH   3  18
TORSDOF 5
ENDMDL
MODEL 8
REMARK VINA RESULT:      -8.5      5.305      8.184
REMARK  Name = 
REMARK  5 active torsions:
REMARK  status: ('A' for Active; 'I' for Inactive)
REMARK    1  A    between atoms: C_2  and  C_15
REMARK    2  A    between atoms: N_3  and  C_4
REMARK    3  A    between atoms: C_4  and  C_5
REMARK    4  A    between atoms: C_17  and  C_18
REMARK    5  A    between atoms: C_18  and  C_19
REMARK                            x       y       z     vdW  Elec       q    Type
REMARK                         _______ _______ _______ _____ _____    ______ ____
ROOT
ATOM      1  O   UNL     1       7.636   5.675  19.877  0.00  0.00    +0.000 OA
ATOM      2  C   UNL     1       7.263   6.094  18.785  0.00  0.00    +0.000 C 
ATOM      3  N   UNL     1       7.839   7.181  18.156  0.00  0.00    +0.000 N 
ATOM      4  H   UNL     1       7.363   7.564  17.356  0.00  0.00    +0.000 HD
ENDROOT
BRANCH   2   5
ATOM      5  C   UNL     1       6.143   5.508  18.095  0.00  0.00    +0.000 A 
ATOM      6  C   UNL     1       5.261   4.494  18.405  0.00  0.00    +0.000 A 
ATOM      7  C   UNL     1       4.368   4.412  17.307  0.00  0.00    +0.000 A 
ATOM      8  N   UNL     1       4.712   5.272  16.338  0.00  0.00    +0.000 NA
ATOM      9  N   UNL     1       5.756   5.942  16.854  0.00  0.00    +0.000 N 
ATOM     10  H   UNL     1       6.182   6.687  16.309  0.00  0.00    +0.000 HD
BRANCH   7  11
ATOM     11  C   UNL     1       3.193   3.501  17.150  0.00  0.00    +0.000 C 
BRANCH  11  12
ATOM     12  C   UNL     1       2.496   3.491  18.492  0.00  0.00    +0.000 A 
ATOM     13  C   UNL     1       1.943   4.673  19.010  0.00  0.00    +0.000 A 
ATOM     14  C   UNL     1       1.348   4.685  20.272  0.00  0.00    +0.000 A 
ATOM     15  C   UNL     1       1.300   3.519  21.032  0.00  0.00    +0.000 A 
ATOM     16  C   UNL     1       1.830   2.335  20.524  0.00  0.00    +0.000 A 
ATOM     17  C   UNL     1       2.422   2.318  19.260  0.00  0.00    +0.000 A 
ENDBRANCH  11  12
ENDBRANCH   7  11
ENDBRANCH   2   5
BRANCH   3  18
ATOM     18  C   UNL     1       8.682   8.088  18.887  0.00  0.00    +0.000 C 
BRANCH  18  19
ATOM     19  C   UNL     1       8.551   9.534  18.516  0.00  0.00    +0.000 C 
ATOM     20  C   UNL     1       9.367  10.643  17.768  0.00  0.00    +0.000 C 
ATOM     21  C   UNL     1       9.069  12.170  17.866  0.00  0.00    +0.000 C 
ATOM     22  C   UNL     1       9.064  12.468  19.360  0.00  0.00    +0.000 A 
ATOM     23  C   UNL     1       8.721  13.624  20.040  0.00  0.00    +0.000 A 
ATOM     24  C   UNL     1       8.634  13.568  21.438  0.00  0.00    +0.000 A 
ATOM     25  C   UNL     1       8.871  12.373  22.134  0.00  0.00    +0.000 A 
ATOM     26  C   UNL     1       9.273  11.237  21.445  0.00  0.00    +0.000 A 
ATOM     27  C   UNL     1       9.411  11.313  20.067  0.00  0.00    +0.000 A 
ATOM     28  C   UNL     1       9.735  10.224  19.141  0.00  0.00    +0.000 C 
ENDBRANCH  18  19
ENDBRANCH   3  18
TORSDOF 5
ENDMDL
MODEL 9
REMARK VINA RESULT:      -8.5      4.755      7.219
REMARK  Name = 
REMARK  5 active torsions:
REMARK  status: ('A' for Active; 'I' for Inactive)
REMARK    1  A    between atoms: C_2  and  C_15
REMARK    2  A    between atoms: N_3  and  C_4
REMARK    3  A    between atoms: C_4  and  C_5
REMARK    4  A    between atoms: C_17  and  C_18
REMARK    5  A    between atoms: C_18  and  C_19
REMARK                            x       y       z     vdW  Elec       q    Type
REMARK                         _______ _______ _______ _____ _____    ______ ____
ROOT
ATOM      1  O   UNL     1       2.087   9.472  17.141  0.00  0.00    +0.000 OA
ATOM      2  C   UNL     1       1.908   9.080  18.290  0.00  0.00    +0.000 C 
ATOM      3  N   UNL     1       1.329   9.861  19.272  0.00  0.00    +0.000 N 
ATOM      4  H   UNL     1       1.382   9.531  20.223  0.00  0.00    +0.000 HD
ENDROOT
BRANCH   2   5
ATOM      5  C   UNL     1       2.347   7.778  18.719  0.00  0.00    +0.000 A 
ATOM      6  C   UNL     1       3.048   6.761  18.106  0.00  0.00    +0.000 A 
ATOM      7  C   UNL     1       3.175   5.739  19.080  0.00  0.00    +0.000 A 
ATOM      8  N   UNL     1       2.533   6.065  20.210  0.00  0.00    +0.000 NA
ATOM      9  N   UNL     1       2.079   7.308  19.979  0.00  0.00    +0.000 N 
ATOM     10  H   UNL     1       1.575   7.794  20.716  0.00  0.00    +0.000 HD
BRANCH   7  11
ATOM     11  C   UNL     1       3.886   4.430  18.944  0.00  0.00    +0.000 C 
BRANCH  11  12
ATOM     12  C   UNL     1       4.913   4.629  17.852  0.00  0.00    +0.000 A 
ATOM     13  C   UNL     1       6.136   5.256  18.138  0.00  0.00    +0.000 A 
ATOM     14  C   UNL     1       7.066   5.495  17.125  0.00  0.00    +0.000 A 
ATOM     15  C   UNL     1       6.785   5.110  15.816  0.00  0.00    +0.000 A 
ATOM     16  C   UNL     1       5.583   4.472  15.521  0.00  0.00    +0.000 A 
ATOM     17  C   UNL     1       4.652   4.228  16.533  0.00  0.00    +0.000 A 
ENDBRANCH  11  12
ENDBRANCH   7  11
ENDBRANCH   2   5
BRANCH   3  18
ATOM     18  C   UNL     1       1.208  11.283  19.101  0.00  0.00    +0.000 C 
BRANCH  18  19
ATOM     19  C   UNL     1      -0.192  11.820  19.119  0.00  0.00    +0.000 C 
ATOM     20  C   UNL     1      -1.481  11.736  20.007  0.00  0.00    +0.000 C 
ATOM     21  C   UNL     1      -2.903  12.164  19.534  0.00  0.00    +0.000 C 
ATOM     22  C   UNL     1      -3.129  11.390  18.241  0.00  0.00    +0.000 A 
ATOM     23  C   UNL     1      -4.155  11.476  17.316  0.00  0.00    +0.000 A 
ATOM     24  C   UNL     1      -4.022  10.767  16.113  0.00  0.00    +0.000 A 
ATOM     25  C   UNL     1      -2.877  10.003  15.843  0.00  0.00    +0.000 A 
ATOM     26  C   UNL     1      -1.884   9.877  16.804  0.00  0.00    +0.000 A 
ATOM     27  C   UNL     1      -2.046  10.536  18.013  0.00  0.00    +0.000 A 
ATOM     28  C   UNL     1      -1.092  10.612  19.123  0.00  0.00    +0.000 C 
ENDBRANCH  18  19
ENDBRANCH   3  18
TORSDOF 5
ENDMDL
