MODEL 1
REMARK VINA RESULT:      -8.6      0.000      0.000
REMARK  Name = 
REMARK  5 active torsions:
REMARK  status: ('A' for Active; 'I' for Inactive)
REMARK    1  A    between atoms: C_1  and  C_2
REMARK    2  A    between atoms: C_4  and  N_5
REMARK    3  A    between atoms: N_5  and  C_6
REMARK    4  A    between atoms: C_6  and  C_7
REMARK    5  A    between atoms: C_9  and  C_10
REMARK                            x       y       z     vdW  Elec       q    Type
REMARK                         _______ _______ _______ _____ _____    ______ ____
ROOT
ATOM      1  C   UNL     1       3.316   4.549  18.615  0.00  0.00    +0.000 A 
ATOM      2  N   UNL     1       2.803   5.668  18.175  0.00  0.00    +0.000 NA
ATOM      3  C   UNL     1       2.383   6.296  19.323  0.00  0.00    +0.000 A 
ATOM      4  N   UNL     1       2.574   5.569  20.439  0.00  0.00    +0.000 NA
ATOM      5  O   UNL     1       3.200   4.406  19.976  0.00  0.00    +0.000 OA
ENDROOT
BRANCH   3   6
ATOM      6  C   UNL     1       1.909   7.676  19.292  0.00  0.00    +0.000 A 
ATOM      7  C   UNL     1       2.037   8.433  18.097  0.00  0.00    +0.000 A 
ATOM      8  C   UNL     1       1.675   9.781  18.050  0.00  0.00    +0.000 A 
ATOM      9  C   UNL     1       1.212  10.372  19.220  0.00  0.00    +0.000 A 
ATOM     10  C   UNL     1       1.065   9.640  20.366  0.00  0.00    +0.000 A 
ATOM     11  C   UNL     1       1.400   8.298  20.444  0.00  0.00    +0.000 A 
ATOM     12  O   UNL     1       0.603  10.381  21.416  0.00  0.00    +0.000 OA
ATOM     13  C   UNL     1       0.497  11.676  20.778  0.00  0.00    +0.000 C 
ATOM     14  O   UNL     1       0.862  11.660  19.388  0.00  0.00    +0.000 OA
ENDBRANCH   3   6
BRANCH   1  15
ATOM     15  C   UNL     1       4.124   3.557  17.852  0.00  0.00    +0.000 C 
BRANCH  15  16
ATOM     16  N   UNL     1       5.548   3.825  17.855  0.00  0.00    +0.000 NA
ATOM     17  H   UNL     1       5.873   4.032  18.802  0.00  0.00    +0.000 HD
BRANCH  16  21
ATOM     18  C   UNL     1       6.927   4.956  13.515  0.00  0.00    +0.000 C 
ATOM     19  C   UNL     1       6.791   4.982  15.009  0.00  0.00    +0.000 C 
ATOM     20  C   UNL     1       5.243   4.970  15.513  0.00  0.00    +0.000 C 
ATOM     21  C   UNL     1       5.930   4.784  16.842  0.00  0.00    +0.000 C 
ATOM     22  C   UNL     1       6.901   3.784  15.949  0.00  0.00    +0.000 C 
ATOM     23  C   UNL     1       7.006   5.889  16.968  0.00  0.00    +0.000 C 
ATOM     24  C   UNL     1       6.752   7.426  17.240  0.00  0.00    +0.000 C 
ATOM     25  C   UNL     1       7.973   7.320  18.221  0.00  0.00    +0.000 C 
ATOM     26  C   UNL     1       7.466   5.913  18.457  0.00  0.00    +0.000 C 
ATOM     27  O   UNL     1       7.698   5.906  15.687  0.00  0.00    +0.000 OA
ENDBRANCH  16  21
ENDBRANCH  15  16
ENDBRANCH   1  15
TORSDOF 4
ENDMDL
MODEL 2
REMARK VINA RESULT:      -8.5      1.916      2.774
REMARK  Name = 
REMARK  5 active torsions:
REMARK  status: ('A' for Active; 'I' for Inactive)
REMARK    1  A    between atoms: C_1  and  C_2
REMARK    2  A    between atoms: C_4  and  N_5
REMARK    3  A    between atoms: N_5  and  C_6
REMARK    4  A    between atoms: C_6  and  C_7
REMARK    5  A    between atoms: C_9  and  C_10
REMARK                            x       y       z     vdW  Elec       q    Type
REMARK                         _______ _______ _______ _____ _____    ______ ____
ROOT
ATOM      1  C   UNL     1       2.483   7.231  18.317  0.00  0.00    +0.000 A 
ATOM      2  N   UNL     1       2.090   7.513  19.530  0.00  0.00    +0.000 NA
ATOM      3  C   UNL     1       1.655   8.813  19.427  0.00  0.00    +0.000 A 
ATOM      4  N   UNL     1       1.824   9.345  18.203  0.00  0.00    +0.000 NA
ATOM      5  O   UNL     1       2.370   8.295  17.456  0.00  0.00    +0.000 OA
ENDROOT
BRANCH   3   6
ATOM      6  C   UNL     1       0.956   9.459  20.534  0.00  0.00    +0.000 A 
ATOM      7  C   UNL     1       0.413   8.664  21.578  0.00  0.00    +0.000 A 
ATOM      8  C   UNL     1      -0.335   9.236  22.611  0.00  0.00    +0.000 A 
ATOM      9  C   UNL     1      -0.559  10.607  22.570  0.00  0.00    +0.000 A 
ATOM     10  C   UNL     1      -0.016  11.378  21.579  0.00  0.00    +0.000 A 
ATOM     11  C   UNL     1       0.743  10.848  20.549  0.00  0.00    +0.000 A 
ATOM     12  O   UNL     1      -0.341  12.700  21.694  0.00  0.00    +0.000 OA
ATOM     13  C   UNL     1      -1.172  12.649  22.879  0.00  0.00    +0.000 C 
ATOM     14  O   UNL     1      -1.289  11.329  23.439  0.00  0.00    +0.000 OA
ENDBRANCH   3   6
BRANCH   1  15
ATOM     15  C   UNL     1       2.852   5.896  17.766  0.00  0.00    +0.000 C 
BRANCH  15  16
ATOM     16  N   UNL     1       4.090   5.360  18.296  0.00  0.00    +0.000 NA
ATOM     17  H   UNL     1       4.226   5.657  19.264  0.00  0.00    +0.000 HD
BRANCH  16  21
ATOM     18  C   UNL     1       6.525   4.517  14.374  0.00  0.00    +0.000 C 
ATOM     19  C   UNL     1       6.215   4.841  15.807  0.00  0.00    +0.000 C 
ATOM     20  C   UNL     1       5.115   6.028  15.973  0.00  0.00    +0.000 C 
ATOM     21  C   UNL     1       5.212   5.586  17.411  0.00  0.00    +0.000 C 
ATOM     22  C   UNL     1       5.250   4.085  16.716  0.00  0.00    +0.000 C 
ATOM     23  C   UNL     1       6.712   5.565  17.790  0.00  0.00    +0.000 C 
ATOM     24  C   UNL     1       7.639   6.820  18.043  0.00  0.00    +0.000 C 
ATOM     25  C   UNL     1       8.201   5.996  19.256  0.00  0.00    +0.000 C 
ATOM     26  C   UNL     1       6.791   5.452  19.343  0.00  0.00    +0.000 C 
ATOM     27  O   UNL     1       7.383   4.895  16.684  0.00  0.00    +0.000 OA
ENDBRANCH  16  21
ENDBRANCH  15  16
ENDBRANCH   1  15
TORSDOF 4
ENDMDL
MODEL 3
REMARK VINA RESULT:      -8.5      0.700      1.348
REMARK  Name = 
REMARK  5 active torsions:
REMARK  status: ('A' for Active; 'I' for Inactive)
REMARK    1  A    between atoms: C_1  and  C_2
REMARK    2  A    between atoms: C_4  and  N_5
REMARK    3  A    between atoms: N_5  and  C_6
REMARK    4  A    between atoms: C_6  and  C_7
REMARK    5  A    between atoms: C_9  and  C_10
REMARK                            x       y       z     vdW  Elec       q    Type
REMARK                         _______ _______ _______ _____ _____    ______ ____
ROOT
ATOM      1  C   UNL     1       3.391   4.396  18.883  0.00  0.00    +0.000 A 
ATOM      2  N   UNL     1       2.951   5.594  18.601  0.00  0.00    +0.000 NA
ATOM      3  C   UNL     1       2.355   5.996  19.773  0.00  0.00    +0.000 A 
ATOM      4  N   UNL     1       2.369   5.057  20.737  0.00  0.00    +0.000 NA
ATOM      5  O   UNL     1       3.063   3.991  20.153  0.00  0.00    +0.000 OA
ENDROOT
BRANCH   3   6
ATOM      6  C   UNL     1       1.891   7.369  19.944  0.00  0.00    +0.000 A 
ATOM      7  C   UNL     1       1.313   7.763  21.180  0.00  0.00    +0.000 A 
ATOM      8  C   UNL     1       0.780   9.042  21.356  0.00  0.00    +0.000 A 
ATOM      9  C   UNL     1       0.803   9.912  20.273  0.00  0.00    +0.000 A 
ATOM     10  C   UNL     1       1.381   9.544  19.089  0.00  0.00    +0.000 A 
ATOM     11  C   UNL     1       1.933   8.290  18.884  0.00  0.00    +0.000 A 
ATOM     12  O   UNL     1       1.311  10.519  18.135  0.00  0.00    +0.000 OA
ATOM     13  C   UNL     1       0.599  11.539  18.876  0.00  0.00    +0.000 C 
ATOM     14  O   UNL     1       0.299  11.159  20.230  0.00  0.00    +0.000 OA
ENDBRANCH   3   6
BRANCH   1  15
ATOM     15  C   UNL     1       4.309   3.549  18.072  0.00  0.00    +0.000 C 
BRANCH  15  16
ATOM     16  N   UNL     1       5.693   3.978  18.104  0.00  0.00    +0.000 NA
ATOM     17  H   UNL     1       5.950   4.294  19.042  0.00  0.00    +0.000 HD
BRANCH  16  21
ATOM     18  C   UNL     1       6.859   4.919  13.657  0.00  0.00    +0.000 C 
ATOM     19  C   UNL     1       6.787   5.016  15.153  0.00  0.00    +0.000 C 
ATOM     20  C   UNL     1       5.264   5.002  15.725  0.00  0.00    +0.000 C 
ATOM     21  C   UNL     1       6.012   4.892  17.029  0.00  0.00    +0.000 C 
ATOM     22  C   UNL     1       6.962   3.868  16.144  0.00  0.00    +0.000 C 
ATOM     23  C   UNL     1       7.070   6.022  17.054  0.00  0.00    +0.000 C 
ATOM     24  C   UNL     1       6.799   7.565  17.263  0.00  0.00    +0.000 C 
ATOM     25  C   UNL     1       8.063   7.528  18.193  0.00  0.00    +0.000 C 
ATOM     26  C   UNL     1       7.595   6.126  18.519  0.00  0.00    +0.000 C 
ATOM     27  O   UNL     1       7.706   5.987  15.745  0.00  0.00    +0.000 OA
ENDBRANCH  16  21
ENDBRANCH  15  16
ENDBRANCH   1  15
TORSDOF 4
ENDMDL
MODEL 4
REMARK VINA RESULT:      -8.5      4.538      7.201
REMARK  Name = 
REMARK  5 active torsions:
REMARK  status: ('A' for Active; 'I' for Inactive)
REMARK    1  A    between atoms: C_1  and  C_2
REMARK    2  A    between atoms: C_4  and  N_5
REMARK    3  A    between atoms: N_5  and  C_6
REMARK    4  A    between atoms: C_6  and  C_7
REMARK    5  A    between atoms: C_9  and  C_10
REMARK                            x       y       z     vdW  Elec       q    Type
REMARK                         _______ _______ _______ _____ _____    ______ ____
ROOT
ATOM      1  C   UNL     1       7.862   8.262  17.811  0.00  0.00    +0.000 A 
ATOM      2  N   UNL     1       6.829   7.676  17.264  0.00  0.00    +0.000 NA
ATOM      3  C   UNL     1       6.788   6.456  17.894  0.00  0.00    +0.000 A 
ATOM      4  N   UNL     1       7.795   6.261  18.765  0.00  0.00    +0.000 NA
ATOM      5  O   UNL     1       8.511   7.462  18.719  0.00  0.00    +0.000 OA
ENDROOT
BRANCH   3   6
ATOM      6  C   UNL     1       5.658   5.552  17.702  0.00  0.00    +0.000 A 
ATOM      7  C   UNL     1       5.773   4.472  16.787  0.00  0.00    +0.000 A 
ATOM      8  C   UNL     1       4.688   3.636  16.511  0.00  0.00    +0.000 A 
ATOM      9  C   UNL     1       3.479   3.911  17.138  0.00  0.00    +0.000 A 
ATOM     10  C   UNL     1       3.371   4.936  18.037  0.00  0.00    +0.000 A 
ATOM     11  C   UNL     1       4.429   5.774  18.346  0.00  0.00    +0.000 A 
ATOM     12  O   UNL     1       2.112   5.063  18.552  0.00  0.00    +0.000 OA
ATOM     13  C   UNL     1       1.445   3.992  17.842  0.00  0.00    +0.000 C 
ATOM     14  O   UNL     1       2.316   3.256  16.966  0.00  0.00    +0.000 OA
ENDBRANCH   3   6
BRANCH   1  15
ATOM     15  C   UNL     1       8.272   9.689  17.685  0.00  0.00    +0.000 C 
BRANCH  15  16
ATOM     16  N   UNL     1       9.105  10.163  18.772  0.00  0.00    +0.000 NA
ATOM     17  H   UNL     1       8.767   9.805  19.667  0.00  0.00    +0.000 HD
BRANCH  16  21
ATOM     18  C   UNL     1      11.140  13.985  16.964  0.00  0.00    +0.000 C 
ATOM     19  C   UNL     1      10.540  13.038  17.962  0.00  0.00    +0.000 C 
ATOM     20  C   UNL     1       9.087  12.464  17.509  0.00  0.00    +0.000 C 
ATOM     21  C   UNL     1       9.325  11.592  18.714  0.00  0.00    +0.000 C 
ATOM     22  C   UNL     1      10.863  11.553  18.107  0.00  0.00    +0.000 C 
ATOM     23  C   UNL     1       9.701  12.521  19.894  0.00  0.00    +0.000 C 
ATOM     24  C   UNL     1       8.724  13.473  20.692  0.00  0.00    +0.000 C 
ATOM     25  C   UNL     1       9.485  12.966  21.969  0.00  0.00    +0.000 C 
ATOM     26  C   UNL     1       9.605  11.671  21.197  0.00  0.00    +0.000 C 
ATOM     27  O   UNL     1      10.681  13.454  19.356  0.00  0.00    +0.000 OA
ENDBRANCH  16  21
ENDBRANCH  15  16
ENDBRANCH   1  15
TORSDOF 4
ENDMDL
MODEL 5
REMARK VINA RESULT:      -8.4      1.811      2.805
REMARK  Name = 
REMARK  5 active torsions:
REMARK  status: ('A' for Active; 'I' for Inactive)
REMARK    1  A    between atoms: C_1  and  C_2
REMARK    2  A    between atoms: C_4  and  N_5
REMARK    3  A    between atoms: N_5  and  C_6
REMARK    4  A    between atoms: C_6  and  C_7
REMARK    5  A    between atoms: C_9  and  C_10
REMARK                            x       y       z     vdW  Elec       q    Type
REMARK                         _______ _______ _______ _____ _____    ______ ____
ROOT
ATOM      1  C   UNL     1       2.397   7.466  18.925  0.00  0.00    +0.000 A 
ATOM      2  N   UNL     1       1.773   8.577  19.211  0.00  0.00    +0.000 NA
ATOM      3  C   UNL     1       1.277   8.346  20.472  0.00  0.00    +0.000 A 
ATOM      4  N   UNL     1       1.532   7.108  20.936  0.00  0.00    +0.000 NA
ATOM      5  O   UNL     1       2.283   6.518  19.913  0.00  0.00    +0.000 OA
ENDROOT
BRANCH   3   6
ATOM      6  C   UNL     1       0.660   9.421  21.243  0.00  0.00    +0.000 A 
ATOM      7  C   UNL     1      -0.115   9.104  22.390  0.00  0.00    +0.000 A 
ATOM      8  C   UNL     1      -0.790  10.095  23.106  0.00  0.00    +0.000 A 
ATOM      9  C   UNL     1      -0.707  11.403  22.643  0.00  0.00    +0.000 A 
ATOM     10  C   UNL     1       0.058  11.715  21.553  0.00  0.00    +0.000 A 
ATOM     11  C   UNL     1       0.753  10.760  20.829  0.00  0.00    +0.000 A 
ATOM     12  O   UNL     1       0.022  13.044  21.238  0.00  0.00    +0.000 OA
ATOM     13  C   UNL     1      -0.881  13.517  22.267  0.00  0.00    +0.000 C 
ATOM     14  O   UNL     1      -1.321  12.482  23.163  0.00  0.00    +0.000 OA
ENDBRANCH   3   6
BRANCH   1  15
ATOM     15  C   UNL     1       3.313   7.205  17.780  0.00  0.00    +0.000 C 
BRANCH  15  16
ATOM     16  N   UNL     1       3.927   5.892  17.799  0.00  0.00    +0.000 NA
ATOM     17  H   UNL     1       3.971   5.530  18.754  0.00  0.00    +0.000 HD
BRANCH  16  21
ATOM     18  C   UNL     1       6.604   4.396  14.248  0.00  0.00    +0.000 C 
ATOM     19  C   UNL     1       6.193   4.847  15.619  0.00  0.00    +0.000 C 
ATOM     20  C   UNL     1       5.335   6.229  15.610  0.00  0.00    +0.000 C 
ATOM     21  C   UNL     1       5.169   5.853  17.060  0.00  0.00    +0.000 C 
ATOM     22  C   UNL     1       4.996   4.338  16.418  0.00  0.00    +0.000 C 
ATOM     23  C   UNL     1       6.580   5.565  17.630  0.00  0.00    +0.000 C 
ATOM     24  C   UNL     1       7.698   6.631  17.965  0.00  0.00    +0.000 C 
ATOM     25  C   UNL     1       7.936   5.779  19.262  0.00  0.00    +0.000 C 
ATOM     26  C   UNL     1       6.447   5.520  19.182  0.00  0.00    +0.000 C 
ATOM     27  O   UNL     1       7.234   4.723  16.638  0.00  0.00    +0.000 OA
ENDBRANCH  16  21
ENDBRANCH  15  16
ENDBRANCH   1  15
TORSDOF 4
ENDMDL
MODEL 6
REMARK VINA RESULT:      -8.4      4.422      7.183
REMARK  Name = 
REMARK  5 active torsions:
REMARK  status: ('A' for Active; 'I' for Inactive)
REMARK    1  A    between atoms: C_1  and  C_2
REMARK    2  A    between atoms: C_4  and  N_5
REMARK    3  A    between atoms: N_5  and  C_6
REMARK    4  A    between atoms: C_6  and  C_7
REMARK    5  A    between atoms: C_9  and  C_10
REMARK                            x       y       z     vdW  Elec       q    Type
REMARK                         _______ _______ _______ _____ _____    ______ ____
ROOT
ATOM      1  C   UNL     1       7.732   8.096  17.777  0.00  0.00    +0.000 A 
ATOM      2  N   UNL     1       6.603   7.654  17.289  0.00  0.00    +0.000 NA
ATOM      3  C   UNL     1       6.444   6.440  17.912  0.00  0.00    +0.000 A 
ATOM      4  N   UNL     1       7.467   6.106  18.720  0.00  0.00    +0.000 NA
ATOM      5  O   UNL     1       8.327   7.208  18.639  0.00  0.00    +0.000 OA
ENDROOT
BRANCH   3   6
ATOM      6  C   UNL     1       5.198   5.689  17.782  0.00  0.00    +0.000 A 
ATOM      7  C   UNL     1       3.958   6.379  17.825  0.00  0.00    +0.000 A 
ATOM      8  C   UNL     1       2.743   5.689  17.789  0.00  0.00    +0.000 A 
ATOM      9  C   UNL     1       2.784   4.301  17.740  0.00  0.00    +0.000 A 
ATOM     10  C   UNL     1       3.977   3.635  17.675  0.00  0.00    +0.000 A 
ATOM     11  C   UNL     1       5.199   4.287  17.692  0.00  0.00    +0.000 A 
ATOM     12  O   UNL     1       3.829   2.278  17.637  0.00  0.00    +0.000 OA
ATOM     13  C   UNL     1       2.386   2.184  17.704  0.00  0.00    +0.000 C 
ATOM     14  O   UNL     1       1.731   3.464  17.748  0.00  0.00    +0.000 OA
ENDBRANCH   3   6
BRANCH   1  15
ATOM     15  C   UNL     1       8.313   9.461  17.636  0.00  0.00    +0.000 C 
BRANCH  15  16
ATOM     16  N   UNL     1       8.955   9.958  18.837  0.00  0.00    +0.000 NA
ATOM     17  H   UNL     1       8.461   9.632  19.670  0.00  0.00    +0.000 HD
BRANCH  16  21
ATOM     18  C   UNL     1      11.058  13.734  17.009  0.00  0.00    +0.000 C 
ATOM     19  C   UNL     1      10.447  12.800  18.013  0.00  0.00    +0.000 C 
ATOM     20  C   UNL     1       8.976  12.260  17.575  0.00  0.00    +0.000 C 
ATOM     21  C   UNL     1       9.207  11.381  18.778  0.00  0.00    +0.000 C 
ATOM     22  C   UNL     1      10.738  11.308  18.153  0.00  0.00    +0.000 C 
ATOM     23  C   UNL     1       9.618  12.300  19.954  0.00  0.00    +0.000 C 
ATOM     24  C   UNL     1       8.672  13.274  20.764  0.00  0.00    +0.000 C 
ATOM     25  C   UNL     1       9.435  12.748  22.031  0.00  0.00    +0.000 C 
ATOM     26  C   UNL     1       9.516  11.451  21.257  0.00  0.00    +0.000 C 
ATOM     27  O   UNL     1      10.613  13.211  19.406  0.00  0.00    +0.000 OA
ENDBRANCH  16  21
ENDBRANCH  15  16
ENDBRANCH   1  15
TORSDOF 4
ENDMDL
MODEL 7
REMARK VINA RESULT:      -8.3      4.206      6.911
REMARK  Name = 
REMARK  5 active torsions:
REMARK  status: ('A' for Active; 'I' for Inactive)
REMARK    1  A    between atoms: C_1  and  C_2
REMARK    2  A    between atoms: C_4  and  N_5
REMARK    3  A    between atoms: N_5  and  C_6
REMARK    4  A    between atoms: C_6  and  C_7
REMARK    5  A    between atoms: C_9  and  C_10
REMARK                            x       y       z     vdW  Elec       q    Type
REMARK                         _______ _______ _______ _____ _____    ______ ____
ROOT
ATOM      1  C   UNL     1       7.681   7.193  18.123  0.00  0.00    +0.000 A 
ATOM      2  N   UNL     1       8.544   7.885  18.819  0.00  0.00    +0.000 NA
ATOM      3  C   UNL     1       8.528   9.116  18.209  0.00  0.00    +0.000 A 
ATOM      4  N   UNL     1       7.725   9.176  17.131  0.00  0.00    +0.000 NA
ATOM      5  O   UNL     1       7.153   7.900  17.071  0.00  0.00    +0.000 OA
ENDROOT
BRANCH   3   6
ATOM      6  C   UNL     1       9.228  10.253  18.799  0.00  0.00    +0.000 A 
ATOM      7  C   UNL     1       9.247  10.408  20.210  0.00  0.00    +0.000 A 
ATOM      8  C   UNL     1       9.832  11.526  20.810  0.00  0.00    +0.000 A 
ATOM      9  C   UNL     1      10.370  12.502  19.980  0.00  0.00    +0.000 A 
ATOM     10  C   UNL     1      10.374  12.346  18.621  0.00  0.00    +0.000 A 
ATOM     11  C   UNL     1       9.817  11.243  17.994  0.00  0.00    +0.000 A 
ATOM     12  O   UNL     1      10.938  13.402  17.964  0.00  0.00    +0.000 OA
ATOM     13  C   UNL     1      11.271  14.246  19.092  0.00  0.00    +0.000 C 
ATOM     14  O   UNL     1      10.929  13.665  20.362  0.00  0.00    +0.000 OA
ENDBRANCH   3   6
BRANCH   1  15
ATOM     15  C   UNL     1       7.116   5.853  18.446  0.00  0.00    +0.000 C 
BRANCH  15  16
ATOM     16  N   UNL     1       6.200   5.340  17.446  0.00  0.00    +0.000 NA
ATOM     17  H   UNL     1       6.126   5.989  16.660  0.00  0.00    +0.000 HD
BRANCH  16  21
ATOM     18  C   UNL     1       2.770   2.195  18.046  0.00  0.00    +0.000 C 
ATOM     19  C   UNL     1       3.471   3.513  17.886  0.00  0.00    +0.000 C 
ATOM     20  C   UNL     1       4.751   3.683  18.876  0.00  0.00    +0.000 C 
ATOM     21  C   UNL     1       4.944   4.908  18.019  0.00  0.00    +0.000 C 
ATOM     22  C   UNL     1       4.501   3.864  16.815  0.00  0.00    +0.000 C 
ATOM     23  C   UNL     1       3.600   5.675  17.994  0.00  0.00    +0.000 C 
ATOM     24  C   UNL     1       2.973   6.518  19.175  0.00  0.00    +0.000 C 
ATOM     25  C   UNL     1       2.607   7.562  18.060  0.00  0.00    +0.000 C 
ATOM     26  C   UNL     1       3.891   7.092  17.412  0.00  0.00    +0.000 C 
ATOM     27  O   UNL     1       2.581   4.664  17.753  0.00  0.00    +0.000 OA
ENDBRANCH  16  21
ENDBRANCH  15  16
ENDBRANCH   1  15
TORSDOF 4
ENDMDL
MODEL 8
REMARK VINA RESULT:      -8.2      1.964      2.713
REMARK  Name = 
REMARK  5 active torsions:
REMARK  status: ('A' for Active; 'I' for Inactive)
REMARK    1  A    between atoms: C_1  and  C_2
REMARK    2  A    between atoms: C_4  and  N_5
REMARK    3  A    between atoms: N_5  and  C_6
REMARK    4  A    between atoms: C_6  and  C_7
REMARK    5  A    between atoms: C_9  and  C_10
REMARK                            x       y       z     vdW  Elec       q    Type
REMARK                         _______ _______ _______ _____ _____    ______ ____
ROOT
ATOM      1  C   UNL     1       2.411   7.417  18.148  0.00  0.00    +0.000 A 
ATOM      2  N   UNL     1       1.678   7.859  19.135  0.00  0.00    +0.000 NA
ATOM      3  C   UNL     1       1.438   9.168  18.790  0.00  0.00    +0.000 A 
ATOM      4  N   UNL     1       2.050   9.549  17.653  0.00  0.00    +0.000 NA
ATOM      5  O   UNL     1       2.695   8.387  17.217  0.00  0.00    +0.000 OA
ENDROOT
BRANCH   3   6
ATOM      6  C   UNL     1       0.490   9.981  19.546  0.00  0.00    +0.000 A 
ATOM      7  C   UNL     1      -0.493  10.735  18.854  0.00  0.00    +0.000 A 
ATOM      8  C   UNL     1      -1.363  11.590  19.534  0.00  0.00    +0.000 A 
ATOM      9  C   UNL     1      -1.218  11.705  20.911  0.00  0.00    +0.000 A 
ATOM     10  C   UNL     1      -0.287  10.962  21.584  0.00  0.00    +0.000 A 
ATOM     11  C   UNL     1       0.581  10.093  20.944  0.00  0.00    +0.000 A 
ATOM     12  O   UNL     1      -0.282  11.204  22.928  0.00  0.00    +0.000 OA
ATOM     13  C   UNL     1      -1.321  12.209  23.003  0.00  0.00    +0.000 C 
ATOM     14  O   UNL     1      -1.922  12.507  21.731  0.00  0.00    +0.000 OA
ENDBRANCH   3   6
BRANCH   1  15
ATOM     15  C   UNL     1       2.797   6.008  17.860  0.00  0.00    +0.000 C 
BRANCH  15  16
ATOM     16  N   UNL     1       4.038   5.594  18.484  0.00  0.00    +0.000 NA
ATOM     17  H   UNL     1       4.189   6.105  19.356  0.00  0.00    +0.000 HD
BRANCH  16  21
ATOM     18  C   UNL     1       6.222   4.107  14.606  0.00  0.00    +0.000 C 
ATOM     19  C   UNL     1       6.001   4.594  16.008  0.00  0.00    +0.000 C 
ATOM     20  C   UNL     1       5.058   5.918  16.087  0.00  0.00    +0.000 C 
ATOM     21  C   UNL     1       5.149   5.599  17.557  0.00  0.00    +0.000 C 
ATOM     22  C   UNL     1       4.982   4.049  17.005  0.00  0.00    +0.000 C 
ATOM     23  C   UNL     1       6.647   5.427  17.904  0.00  0.00    +0.000 C 
ATOM     24  C   UNL     1       7.728   6.575  18.018  0.00  0.00    +0.000 C 
ATOM     25  C   UNL     1       8.225   5.802  19.290  0.00  0.00    +0.000 C 
ATOM     26  C   UNL     1       6.764   5.446  19.458  0.00  0.00    +0.000 C 
ATOM     27  O   UNL     1       7.195   4.583  16.851  0.00  0.00    +0.000 OA
ENDBRANCH  16  21
ENDBRANCH  15  16
ENDBRANCH   1  15
TORSDOF 4
ENDMDL
MODEL 9
REMARK VINA RESULT:      -8.1      2.133      3.803
REMARK  Name = 
REMARK  5 active torsions:
REMARK  status: ('A' for Active; 'I' for Inactive)
REMARK    1  A    between atoms: C_1  and  C_2
REMARK    2  A    between atoms: C_4  and  N_5
REMARK    3  A    between atoms: N_5  and  C_6
REMARK    4  A    between atoms: C_6  and  C_7
REMARK    5  A    between atoms: C_9  and  C_10
REMARK                            x       y       z     vdW  Elec       q    Type
REMARK                         _______ _______ _______ _____ _____    ______ ____
ROOT
ATOM      1  C   UNL     1       2.439   7.903  18.318  0.00  0.00    +0.000 A 
ATOM      2  N   UNL     1       2.040   8.162  19.536  0.00  0.00    +0.000 NA
ATOM      3  C   UNL     1       1.332   9.331  19.395  0.00  0.00    +0.000 A 
ATOM      4  N   UNL     1       1.336   9.820  18.141  0.00  0.00    +0.000 NA
ATOM      5  O   UNL     1       2.066   8.870  17.417  0.00  0.00    +0.000 OA
ENDROOT
BRANCH   3   6
ATOM      6  C   UNL     1       0.553   9.874  20.504  0.00  0.00    +0.000 A 
ATOM      7  C   UNL     1       0.517   9.176  21.740  0.00  0.00    +0.000 A 
ATOM      8  C   UNL     1      -0.282   9.617  22.798  0.00  0.00    +0.000 A 
ATOM      9  C   UNL     1      -1.069  10.744  22.594  0.00  0.00    +0.000 A 
ATOM     10  C   UNL     1      -1.018  11.431  21.413  0.00  0.00    +0.000 A 
ATOM     11  C   UNL     1      -0.225  11.033  20.349  0.00  0.00    +0.000 A 
ATOM     12  O   UNL     1      -1.857  12.509  21.386  0.00  0.00    +0.000 OA
ATOM     13  C   UNL     1      -2.451  12.393  22.702  0.00  0.00    +0.000 C 
ATOM     14  O   UNL     1      -1.935  11.290  23.467  0.00  0.00    +0.000 OA
ENDBRANCH   3   6
BRANCH   1  15
ATOM     15  C   UNL     1       3.065   6.650  17.812  0.00  0.00    +0.000 C 
BRANCH  15  16
ATOM     16  N   UNL     1       4.255   6.864  17.013  0.00  0.00    +0.000 NA
ATOM     17  H   UNL     1       4.013   6.948  16.023  0.00  0.00    +0.000 HD
BRANCH  16  21
ATOM     18  C   UNL     1       8.206   5.606  19.210  0.00  0.00    +0.000 C 
ATOM     19  C   UNL     1       7.151   5.721  18.149  0.00  0.00    +0.000 C 
ATOM     20  C   UNL     1       5.650   5.415  18.699  0.00  0.00    +0.000 C 
ATOM     21  C   UNL     1       5.304   5.916  17.320  0.00  0.00    +0.000 C 
ATOM     22  C   UNL     1       6.497   7.011  17.660  0.00  0.00    +0.000 C 
ATOM     23  C   UNL     1       6.169   5.128  16.307  0.00  0.00    +0.000 C 
ATOM     24  C   UNL     1       5.980   3.619  15.879  0.00  0.00    +0.000 C 
ATOM     25  C   UNL     1       6.270   4.133  14.424  0.00  0.00    +0.000 C 
ATOM     26  C   UNL     1       5.572   5.391  14.892  0.00  0.00    +0.000 C 
ATOM     27  O   UNL     1       7.515   5.132  16.862  0.00  0.00    +0.000 OA
ENDBRANCH  16  21
ENDBRANCH  15  16
ENDBRANCH   1  15
TORSDOF 4
ENDMDL
