MODEL 1
REMARK VINA RESULT:      -9.3      0.000      0.000
REMARK  Name = 
REMARK  4 active torsions:
REMARK  status: ('A' for Active; 'I' for Inactive)
REMARK    1  A    between atoms: C_2  and  C_4
REMARK    2  A    between atoms: C_7  and  N_8
REMARK    3  A    between atoms: C_9  and  C_11
REMARK    4  A    between atoms: C_13  and  C_14
REMARK                            x       y       z     vdW  Elec       q    Type
REMARK                         _______ _______ _______ _____ _____    ______ ____
ROOT
ATOM      1  N   UNL     1       1.844   7.734  20.708  0.00  0.00    +0.000 N 
ATOM      2  C   UNL     1       2.138   7.475  19.370  0.00  0.00    +0.000 C 
ATOM      3  O   UNL     1       1.923   8.240  18.435  0.00  0.00    +0.000 OA
ATOM      4  H   UNL     1       2.253   7.126  21.409  0.00  0.00    +0.000 HD
ENDROOT
BRANCH   2   5
ATOM      5  C   UNL     1       2.827   6.192  19.027  0.00  0.00    +0.000 A 
ATOM      6  C   UNL     1       3.683   6.230  17.912  0.00  0.00    +0.000 A 
ATOM      7  C   UNL     1       4.289   5.060  17.480  0.00  0.00    +0.000 A 
ATOM      8  N   UNL     1       3.995   3.868  18.042  0.00  0.00    +0.000 NA
ATOM      9  C   UNL     1       3.080   3.807  19.014  0.00  0.00    +0.000 A 
ATOM     10  C   UNL     1       2.658   2.541  19.388  0.00  0.00    +0.000 A 
ATOM     11  C   UNL     1       1.659   2.355  20.341  0.00  0.00    +0.000 A 
ATOM     12  C   UNL     1       1.122   3.456  20.989  0.00  0.00    +0.000 A 
ATOM     13  C   UNL     1       1.537   4.742  20.638  0.00  0.00    +0.000 A 
ATOM     14  C   UNL     1       2.485   4.946  19.604  0.00  0.00    +0.000 A 
BRANCH   7  15
ATOM     15  C   UNL     1       5.291   4.957  16.397  0.00  0.00    +0.000 A 
ATOM     16  C   UNL     1       5.144   4.351  15.156  0.00  0.00    +0.000 A 
ATOM     17  C   UNL     1       6.320   4.408  14.354  0.00  0.00    +0.000 A 
ATOM     18  C   UNL     1       7.335   5.077  14.995  0.00  0.00    +0.000 A 
ATOM     19  S   UNL     1       6.868   5.625  16.542  0.00  0.00    +0.000 S 
ENDBRANCH   7  15
ENDBRANCH   2   5
BRANCH   1  23
ATOM     20  C   UNL     1      -0.491  10.995  22.213  0.00  0.00    +0.000 A 
ATOM     21  C   UNL     1       0.176  11.111  20.993  0.00  0.00    +0.000 A 
ATOM     22  C   UNL     1       0.947  10.045  20.495  0.00  0.00    +0.000 A 
ATOM     23  C   UNL     1       1.079   8.839  21.193  0.00  0.00    +0.000 A 
ATOM     24  C   UNL     1       0.396   8.719  22.410  0.00  0.00    +0.000 A 
ATOM     25  C   UNL     1      -0.370   9.785  22.917  0.00  0.00    +0.000 A 
BRANCH  20  27
ATOM     26  N   UNL     1      -0.854  13.374  22.775  0.00  0.00    +0.000 N 
ATOM     27  C   UNL     1      -1.324  12.082  22.807  0.00  0.00    +0.000 C 
ATOM     28  O   UNL     1      -2.409  11.847  23.316  0.00  0.00    +0.000 OA
ATOM     29  H   UNL     1      -1.446  14.085  23.174  0.00  0.00    +0.000 HD
ATOM     30  H   UNL     1       0.012  13.665  22.349  0.00  0.00    +0.000 HD
ENDBRANCH  20  27
ENDBRANCH   1  23
TORSDOF 4
ENDMDL
MODEL 2
REMARK VINA RESULT:      -9.1      2.380      2.569
REMARK  Name = 
REMARK  4 active torsions:
REMARK  status: ('A' for Active; 'I' for Inactive)
REMARK    1  A    between atoms: C_2  and  C_4
REMARK    2  A    between atoms: C_7  and  N_8
REMARK    3  A    between atoms: C_9  and  C_11
REMARK    4  A    between atoms: C_13  and  C_14
REMARK                            x       y       z     vdW  Elec       q    Type
REMARK                         _______ _______ _______ _____ _____    ______ ____
ROOT
ATOM      1  N   UNL     1       1.799   8.375  18.103  0.00  0.00    +0.000 N 
ATOM      2  C   UNL     1       2.237   7.532  19.124  0.00  0.00    +0.000 C 
ATOM      3  O   UNL     1       2.122   7.753  20.325  0.00  0.00    +0.000 OA
ATOM      4  H   UNL     1       1.758   7.997  17.163  0.00  0.00    +0.000 HD
ENDROOT
BRANCH   2   5
ATOM      5  C   UNL     1       2.848   6.218  18.750  0.00  0.00    +0.000 A 
ATOM      6  C   UNL     1       3.725   6.236  17.651  0.00  0.00    +0.000 A 
ATOM      7  C   UNL     1       4.262   5.043  17.190  0.00  0.00    +0.000 A 
ATOM      8  N   UNL     1       3.881   3.856  17.707  0.00  0.00    +0.000 NA
ATOM      9  C   UNL     1       2.945   3.823  18.662  0.00  0.00    +0.000 A 
ATOM     10  C   UNL     1       2.435   2.575  18.986  0.00  0.00    +0.000 A 
ATOM     11  C   UNL     1       1.409   2.425  19.915  0.00  0.00    +0.000 A 
ATOM     12  C   UNL     1       0.933   3.537  20.591  0.00  0.00    +0.000 A 
ATOM     13  C   UNL     1       1.436   4.804  20.290  0.00  0.00    +0.000 A 
ATOM     14  C   UNL     1       2.414   4.979  19.279  0.00  0.00    +0.000 A 
BRANCH   7  15
ATOM     15  C   UNL     1       5.275   4.910  16.122  0.00  0.00    +0.000 A 
ATOM     16  C   UNL     1       5.118   4.336  14.866  0.00  0.00    +0.000 A 
ATOM     17  C   UNL     1       6.309   4.349  14.084  0.00  0.00    +0.000 A 
ATOM     18  C   UNL     1       7.346   4.952  14.754  0.00  0.00    +0.000 A 
ATOM     19  S   UNL     1       6.882   5.493  16.305  0.00  0.00    +0.000 S 
ENDBRANCH   7  15
ENDBRANCH   2   5
BRANCH   1  23
ATOM     20  C   UNL     1       0.432  12.399  18.642  0.00  0.00    +0.000 A 
ATOM     21  C   UNL     1      -0.478  11.341  18.633  0.00  0.00    +0.000 A 
ATOM     22  C   UNL     1      -0.037  10.018  18.453  0.00  0.00    +0.000 A 
ATOM     23  C   UNL     1       1.317   9.708  18.275  0.00  0.00    +0.000 A 
ATOM     24  C   UNL     1       2.231  10.770  18.300  0.00  0.00    +0.000 A 
ATOM     25  C   UNL     1       1.794  12.096  18.471  0.00  0.00    +0.000 A 
BRANCH  20  27
ATOM     26  N   UNL     1      -1.243  14.119  19.227  0.00  0.00    +0.000 N 
ATOM     27  C   UNL     1       0.038  13.827  18.823  0.00  0.00    +0.000 C 
ATOM     28  O   UNL     1       0.830  14.735  18.621  0.00  0.00    +0.000 OA
ATOM     29  H   UNL     1      -1.471  15.092  19.351  0.00  0.00    +0.000 HD
ATOM     30  H   UNL     1      -1.950  13.436  19.447  0.00  0.00    +0.000 HD
ENDBRANCH  20  27
ENDBRANCH   1  23
TORSDOF 4
ENDMDL
MODEL 3
REMARK VINA RESULT:      -8.9      0.483      1.029
REMARK  Name = 
REMARK  4 active torsions:
REMARK  status: ('A' for Active; 'I' for Inactive)
REMARK    1  A    between atoms: C_2  and  C_4
REMARK    2  A    between atoms: C_7  and  N_8
REMARK    3  A    between atoms: C_9  and  C_11
REMARK    4  A    between atoms: C_13  and  C_14
REMARK                            x       y       z     vdW  Elec       q    Type
REMARK                         _______ _______ _______ _____ _____    ______ ____
ROOT
ATOM      1  N   UNL     1       1.827   7.738  20.573  0.00  0.00    +0.000 N 
ATOM      2  C   UNL     1       2.155   7.435  19.252  0.00  0.00    +0.000 C 
ATOM      3  O   UNL     1       1.932   8.153  18.283  0.00  0.00    +0.000 OA
ATOM      4  H   UNL     1       2.242   7.173  21.306  0.00  0.00    +0.000 HD
ENDROOT
BRANCH   2   5
ATOM      5  C   UNL     1       2.893   6.163  18.976  0.00  0.00    +0.000 A 
ATOM      6  C   UNL     1       3.718   6.164  17.836  0.00  0.00    +0.000 A 
ATOM      7  C   UNL     1       4.365   4.995  17.465  0.00  0.00    +0.000 A 
ATOM      8  N   UNL     1       4.141   3.832  18.113  0.00  0.00    +0.000 NA
ATOM      9  C   UNL     1       3.255   3.796  19.114  0.00  0.00    +0.000 A 
ATOM     10  C   UNL     1       2.902   2.541  19.583  0.00  0.00    +0.000 A 
ATOM     11  C   UNL     1       1.938   2.376  20.574  0.00  0.00    +0.000 A 
ATOM     12  C   UNL     1       1.368   3.493  21.164  0.00  0.00    +0.000 A 
ATOM     13  C   UNL     1       1.713   4.770  20.716  0.00  0.00    +0.000 A 
ATOM     14  C   UNL     1       2.624   4.945  19.644  0.00  0.00    +0.000 A 
BRANCH   7  15
ATOM     15  C   UNL     1       5.342   4.864  16.363  0.00  0.00    +0.000 A 
ATOM     16  C   UNL     1       5.116   4.389  15.077  0.00  0.00    +0.000 A 
ATOM     17  C   UNL     1       6.287   4.370  14.266  0.00  0.00    +0.000 A 
ATOM     18  C   UNL     1       7.380   4.853  14.946  0.00  0.00    +0.000 A 
ATOM     19  S   UNL     1       6.991   5.318  16.541  0.00  0.00    +0.000 S 
ENDBRANCH   7  15
ENDBRANCH   2   5
BRANCH   1  23
ATOM     20  C   UNL     1      -0.574  11.074  21.782  0.00  0.00    +0.000 A 
ATOM     21  C   UNL     1      -0.287  10.048  22.685  0.00  0.00    +0.000 A 
ATOM     22  C   UNL     1       0.497   8.949  22.293  0.00  0.00    +0.000 A 
ATOM     23  C   UNL     1       1.016   8.835  20.998  0.00  0.00    +0.000 A 
ATOM     24  C   UNL     1       0.740   9.873  20.098  0.00  0.00    +0.000 A 
ATOM     25  C   UNL     1      -0.051  10.971  20.482  0.00  0.00    +0.000 A 
BRANCH  20  27
ATOM     26  N   UNL     1      -1.007  13.078  23.162  0.00  0.00    +0.000 N 
ATOM     27  C   UNL     1      -1.402  12.268  22.123  0.00  0.00    +0.000 C 
ATOM     28  O   UNL     1      -2.416  12.538  21.499  0.00  0.00    +0.000 OA
ATOM     29  H   UNL     1      -1.582  13.882  23.358  0.00  0.00    +0.000 HD
ATOM     30  H   UNL     1      -0.171  12.951  23.710  0.00  0.00    +0.000 HD
ENDBRANCH  20  27
ENDBRANCH   1  23
TORSDOF 4
ENDMDL
MODEL 4
REMARK VINA RESULT:      -8.7      0.903      1.030
REMARK  Name = 
REMARK  4 active torsions:
REMARK  status: ('A' for Active; 'I' for Inactive)
REMARK    1  A    between atoms: C_2  and  C_4
REMARK    2  A    between atoms: C_7  and  N_8
REMARK    3  A    between atoms: C_9  and  C_11
REMARK    4  A    between atoms: C_13  and  C_14
REMARK                            x       y       z     vdW  Elec       q    Type
REMARK                         _______ _______ _______ _____ _____    ______ ____
ROOT
ATOM      1  N   UNL     1       1.672   7.641  20.588  0.00  0.00    +0.000 N 
ATOM      2  C   UNL     1       2.126   7.461  19.282  0.00  0.00    +0.000 C 
ATOM      3  O   UNL     1       2.062   8.298  18.387  0.00  0.00    +0.000 OA
ATOM      4  H   UNL     1       1.963   6.967  21.287  0.00  0.00    +0.000 HD
ENDROOT
BRANCH   2   5
ATOM      5  C   UNL     1       2.802   6.173  18.934  0.00  0.00    +0.000 A 
ATOM      6  C   UNL     1       3.736   6.230  17.883  0.00  0.00    +0.000 A 
ATOM      7  C   UNL     1       4.339   5.061  17.445  0.00  0.00    +0.000 A 
ATOM      8  N   UNL     1       3.974   3.857  17.934  0.00  0.00    +0.000 NA
ATOM      9  C   UNL     1       2.991   3.784  18.837  0.00  0.00    +0.000 A 
ATOM     10  C   UNL     1       2.510   2.516  19.127  0.00  0.00    +0.000 A 
ATOM     11  C   UNL     1       1.441   2.323  19.999  0.00  0.00    +0.000 A 
ATOM     12  C   UNL     1       0.890   3.412  20.655  0.00  0.00    +0.000 A 
ATOM     13  C   UNL     1       1.363   4.698  20.388  0.00  0.00    +0.000 A 
ATOM     14  C   UNL     1       2.387   4.915  19.432  0.00  0.00    +0.000 A 
BRANCH   7  15
ATOM     15  C   UNL     1       5.412   4.973  16.432  0.00  0.00    +0.000 A 
ATOM     16  C   UNL     1       6.774   5.173  16.615  0.00  0.00    +0.000 A 
ATOM     17  C   UNL     1       7.533   5.035  15.417  0.00  0.00    +0.000 A 
ATOM     18  C   UNL     1       6.734   4.711  14.347  0.00  0.00    +0.000 A 
ATOM     19  S   UNL     1       5.091   4.577  14.790  0.00  0.00    +0.000 S 
ENDBRANCH   7  15
ENDBRANCH   2   5
BRANCH   1  23
ATOM     20  C   UNL     1      -0.661  10.918  22.061  0.00  0.00    +0.000 A 
ATOM     21  C   UNL     1      -0.583  10.669  20.691  0.00  0.00    +0.000 A 
ATOM     22  C   UNL     1       0.184   9.598  20.200  0.00  0.00    +0.000 A 
ATOM     23  C   UNL     1       0.895   8.745  21.054  0.00  0.00    +0.000 A 
ATOM     24  C   UNL     1       0.803   8.988  22.431  0.00  0.00    +0.000 A 
ATOM     25  C   UNL     1       0.044  10.063  22.927  0.00  0.00    +0.000 A 
BRANCH  20  27
ATOM     26  N   UNL     1      -2.800  12.108  22.404  0.00  0.00    +0.000 N 
ATOM     27  C   UNL     1      -1.450  12.037  22.655  0.00  0.00    +0.000 C 
ATOM     28  O   UNL     1      -0.921  12.885  23.358  0.00  0.00    +0.000 OA
ATOM     29  H   UNL     1      -3.304  12.869  22.830  0.00  0.00    +0.000 HD
ATOM     30  H   UNL     1      -3.324  11.437  21.864  0.00  0.00    +0.000 HD
ENDBRANCH  20  27
ENDBRANCH   1  23
TORSDOF 4
ENDMDL
MODEL 5
REMARK VINA RESULT:      -8.6      2.458      2.613
REMARK  Name = 
REMARK  4 active torsions:
REMARK  status: ('A' for Active; 'I' for Inactive)
REMARK    1  A    between atoms: C_2  and  C_4
REMARK    2  A    between atoms: C_7  and  N_8
REMARK    3  A    between atoms: C_9  and  C_11
REMARK    4  A    between atoms: C_13  and  C_14
REMARK                            x       y       z     vdW  Elec       q    Type
REMARK                         _______ _______ _______ _____ _____    ______ ____
ROOT
ATOM      1  N   UNL     1       1.970   8.360  17.994  0.00  0.00    +0.000 N 
ATOM      2  C   UNL     1       2.336   7.447  18.983  0.00  0.00    +0.000 C 
ATOM      3  O   UNL     1       2.161   7.598  20.187  0.00  0.00    +0.000 OA
ATOM      4  H   UNL     1       1.972   8.040  17.031  0.00  0.00    +0.000 HD
ENDROOT
BRANCH   2   5
ATOM      5  C   UNL     1       2.938   6.144  18.562  0.00  0.00    +0.000 A 
ATOM      6  C   UNL     1       3.886   6.209  17.524  0.00  0.00    +0.000 A 
ATOM      7  C   UNL     1       4.422   5.034  17.020  0.00  0.00    +0.000 A 
ATOM      8  N   UNL     1       3.982   3.826  17.432  0.00  0.00    +0.000 NA
ATOM      9  C   UNL     1       2.985   3.758  18.321  0.00  0.00    +0.000 A 
ATOM     10  C   UNL     1       2.426   2.506  18.529  0.00  0.00    +0.000 A 
ATOM     11  C   UNL     1       1.338   2.325  19.379  0.00  0.00    +0.000 A 
ATOM     12  C   UNL     1       0.845   3.403  20.096  0.00  0.00    +0.000 A 
ATOM     13  C   UNL     1       1.397   4.673  19.912  0.00  0.00    +0.000 A 
ATOM     14  C   UNL     1       2.443   4.885  18.979  0.00  0.00    +0.000 A 
BRANCH   7  15
ATOM     15  C   UNL     1       5.500   4.943  16.011  0.00  0.00    +0.000 A 
ATOM     16  C   UNL     1       6.807   5.401  16.118  0.00  0.00    +0.000 A 
ATOM     17  C   UNL     1       7.584   5.175  14.945  0.00  0.00    +0.000 A 
ATOM     18  C   UNL     1       6.857   4.529  13.975  0.00  0.00    +0.000 A 
ATOM     19  S   UNL     1       5.259   4.203  14.478  0.00  0.00    +0.000 S 
ENDBRANCH   7  15
ENDBRANCH   2   5
BRANCH   1  23
ATOM     20  C   UNL     1       0.503  12.329  18.662  0.00  0.00    +0.000 A 
ATOM     21  C   UNL     1       1.850  12.116  18.369  0.00  0.00    +0.000 A 
ATOM     22  C   UNL     1       2.339  10.815  18.152  0.00  0.00    +0.000 A 
ATOM     23  C   UNL     1       1.507   9.692  18.222  0.00  0.00    +0.000 A 
ATOM     24  C   UNL     1       0.151   9.908  18.501  0.00  0.00    +0.000 A 
ATOM     25  C   UNL     1      -0.341  11.207  18.727  0.00  0.00    +0.000 A 
BRANCH  20  27
ATOM     26  N   UNL     1      -1.442  13.785  19.113  0.00  0.00    +0.000 N 
ATOM     27  C   UNL     1      -0.087  13.677  18.908  0.00  0.00    +0.000 C 
ATOM     28  O   UNL     1       0.609  14.681  18.931  0.00  0.00    +0.000 OA
ATOM     29  H   UNL     1      -1.806  14.708  19.288  0.00  0.00    +0.000 HD
ATOM     30  H   UNL     1      -2.086  13.010  19.143  0.00  0.00    +0.000 HD
ENDBRANCH  20  27
ENDBRANCH   1  23
TORSDOF 4
ENDMDL
MODEL 6
REMARK VINA RESULT:      -8.6      2.076      2.239
REMARK  Name = 
REMARK  4 active torsions:
REMARK  status: ('A' for Active; 'I' for Inactive)
REMARK    1  A    between atoms: C_2  and  C_4
REMARK    2  A    between atoms: C_7  and  N_8
REMARK    3  A    between atoms: C_9  and  C_11
REMARK    4  A    between atoms: C_13  and  C_14
REMARK                            x       y       z     vdW  Elec       q    Type
REMARK                         _______ _______ _______ _____ _____    ______ ____
ROOT
ATOM      1  N   UNL     1       1.889   8.479  18.347  0.00  0.00    +0.000 N 
ATOM      2  C   UNL     1       2.170   7.559  19.357  0.00  0.00    +0.000 C 
ATOM      3  O   UNL     1       1.887   7.697  20.542  0.00  0.00    +0.000 OA
ATOM      4  H   UNL     1       1.979   8.170  17.386  0.00  0.00    +0.000 HD
ENDROOT
BRANCH   2   5
ATOM      5  C   UNL     1       2.815   6.263  18.979  0.00  0.00    +0.000 A 
ATOM      6  C   UNL     1       3.683   6.305  17.873  0.00  0.00    +0.000 A 
ATOM      7  C   UNL     1       4.250   5.128  17.409  0.00  0.00    +0.000 A 
ATOM      8  N   UNL     1       3.908   3.930  17.930  0.00  0.00    +0.000 NA
ATOM      9  C   UNL     1       2.981   3.872  18.892  0.00  0.00    +0.000 A 
ATOM     10  C   UNL     1       2.510   2.610  19.221  0.00  0.00    +0.000 A 
ATOM     11  C   UNL     1       1.495   2.431  20.158  0.00  0.00    +0.000 A 
ATOM     12  C   UNL     1       0.992   3.530  20.837  0.00  0.00    +0.000 A 
ATOM     13  C   UNL     1       1.456   4.810  20.531  0.00  0.00    +0.000 A 
ATOM     14  C   UNL     1       2.421   5.012  19.512  0.00  0.00    +0.000 A 
BRANCH   7  15
ATOM     15  C   UNL     1       5.259   5.023  16.333  0.00  0.00    +0.000 A 
ATOM     16  C   UNL     1       5.143   4.355  15.120  0.00  0.00    +0.000 A 
ATOM     17  C   UNL     1       6.318   4.431  14.317  0.00  0.00    +0.000 A 
ATOM     18  C   UNL     1       7.299   5.174  14.928  0.00  0.00    +0.000 A 
ATOM     19  S   UNL     1       6.803   5.768  16.449  0.00  0.00    +0.000 S 
ENDBRANCH   7  15
ENDBRANCH   2   5
BRANCH   1  23
ATOM     20  C   UNL     1       0.343  12.431  18.937  0.00  0.00    +0.000 A 
ATOM     21  C   UNL     1       1.656  12.246  18.501  0.00  0.00    +0.000 A 
ATOM     22  C   UNL     1       2.170  10.951  18.309  0.00  0.00    +0.000 A 
ATOM     23  C   UNL     1       1.400   9.807  18.545  0.00  0.00    +0.000 A 
ATOM     24  C   UNL     1       0.077   9.995  18.968  0.00  0.00    +0.000 A 
ATOM     25  C   UNL     1      -0.440  11.287  19.170  0.00  0.00    +0.000 A 
BRANCH  20  27
ATOM     26  N   UNL     1       0.269  14.869  18.537  0.00  0.00    +0.000 N 
ATOM     27  C   UNL     1      -0.270  13.772  19.166  0.00  0.00    +0.000 C 
ATOM     28  O   UNL     1      -1.239  13.911  19.898  0.00  0.00    +0.000 OA
ATOM     29  H   UNL     1      -0.177  15.756  18.705  0.00  0.00    +0.000 HD
ATOM     30  H   UNL     1       1.044  14.844  17.893  0.00  0.00    +0.000 HD
ENDBRANCH  20  27
ENDBRANCH   1  23
TORSDOF 4
ENDMDL
MODEL 7
REMARK VINA RESULT:      -8.3      4.009      8.667
REMARK  Name = 
REMARK  4 active torsions:
REMARK  status: ('A' for Active; 'I' for Inactive)
REMARK    1  A    between atoms: C_2  and  C_4
REMARK    2  A    between atoms: C_7  and  N_8
REMARK    3  A    between atoms: C_9  and  C_11
REMARK    4  A    between atoms: C_13  and  C_14
REMARK                            x       y       z     vdW  Elec       q    Type
REMARK                         _______ _______ _______ _____ _____    ______ ____
ROOT
ATOM      1  N   UNL     1       2.388   7.237  18.541  0.00  0.00    +0.000 N 
ATOM      2  C   UNL     1       2.036   8.562  18.284  0.00  0.00    +0.000 C 
ATOM      3  O   UNL     1       2.675   9.343  17.587  0.00  0.00    +0.000 OA
ATOM      4  H   UNL     1       1.685   6.633  18.953  0.00  0.00    +0.000 HD
ENDROOT
BRANCH   2   5
ATOM      5  C   UNL     1       0.749   9.079  18.844  0.00  0.00    +0.000 A 
ATOM      6  C   UNL     1      -0.169   9.592  17.910  0.00  0.00    +0.000 A 
ATOM      7  C   UNL     1      -1.347  10.169  18.360  0.00  0.00    +0.000 A 
ATOM      8  N   UNL     1      -1.585  10.342  19.677  0.00  0.00    +0.000 NA
ATOM      9  C   UNL     1      -0.656   9.979  20.567  0.00  0.00    +0.000 A 
ATOM     10  C   UNL     1      -0.859  10.389  21.876  0.00  0.00    +0.000 A 
ATOM     11  C   UNL     1       0.075  10.129  22.876  0.00  0.00    +0.000 A 
ATOM     12  C   UNL     1       1.201   9.378  22.579  0.00  0.00    +0.000 A 
ATOM     13  C   UNL     1       1.424   8.945  21.270  0.00  0.00    +0.000 A 
ATOM     14  C   UNL     1       0.527   9.284  20.227  0.00  0.00    +0.000 A 
BRANCH   7  15
ATOM     15  C   UNL     1      -2.452  10.652  17.504  0.00  0.00    +0.000 A 
ATOM     16  C   UNL     1      -2.590  10.505  16.129  0.00  0.00    +0.000 A 
ATOM     17  C   UNL     1      -3.769  11.115  15.610  0.00  0.00    +0.000 A 
ATOM     18  C   UNL     1      -4.516  11.697  16.606  0.00  0.00    +0.000 A 
ATOM     19  S   UNL     1      -3.799  11.508  18.143  0.00  0.00    +0.000 S 
ENDBRANCH   7  15
ENDBRANCH   2   5
BRANCH   1  23
ATOM     20  C   UNL     1       6.126   5.375  17.590  0.00  0.00    +0.000 A 
ATOM     21  C   UNL     1       5.609   6.377  16.767  0.00  0.00    +0.000 A 
ATOM     22  C   UNL     1       4.381   6.990  17.072  0.00  0.00    +0.000 A 
ATOM     23  C   UNL     1       3.631   6.625  18.197  0.00  0.00    +0.000 A 
ATOM     24  C   UNL     1       4.159   5.630  19.030  0.00  0.00    +0.000 A 
ATOM     25  C   UNL     1       5.384   5.007  18.725  0.00  0.00    +0.000 A 
BRANCH  20  27
ATOM     26  N   UNL     1       7.797   4.436  16.029  0.00  0.00    +0.000 N 
ATOM     27  C   UNL     1       7.419   4.677  17.329  0.00  0.00    +0.000 C 
ATOM     28  O   UNL     1       8.144   4.318  18.245  0.00  0.00    +0.000 OA
ATOM     29  H   UNL     1       8.681   3.974  15.889  0.00  0.00    +0.000 HD
ATOM     30  H   UNL     1       7.280   4.724  15.214  0.00  0.00    +0.000 HD
ENDBRANCH  20  27
ENDBRANCH   1  23
TORSDOF 4
ENDMDL
MODEL 8
REMARK VINA RESULT:      -8.3      1.075      1.184
REMARK  Name = 
REMARK  4 active torsions:
REMARK  status: ('A' for Active; 'I' for Inactive)
REMARK    1  A    between atoms: C_2  and  C_4
REMARK    2  A    between atoms: C_7  and  N_8
REMARK    3  A    between atoms: C_9  and  C_11
REMARK    4  A    between atoms: C_13  and  C_14
REMARK                            x       y       z     vdW  Elec       q    Type
REMARK                         _______ _______ _______ _____ _____    ______ ____
ROOT
ATOM      1  N   UNL     1       1.576   8.223  19.892  0.00  0.00    +0.000 N 
ATOM      2  C   UNL     1       2.220   7.939  18.688  0.00  0.00    +0.000 C 
ATOM      3  O   UNL     1       2.305   8.703  17.732  0.00  0.00    +0.000 OA
ATOM      4  H   UNL     1       1.747   7.605  20.677  0.00  0.00    +0.000 HD
ENDROOT
BRANCH   2   5
ATOM      5  C   UNL     1       2.921   6.625  18.547  0.00  0.00    +0.000 A 
ATOM      6  C   UNL     1       3.768   6.494  17.432  0.00  0.00    +0.000 A 
ATOM      7  C   UNL     1       4.384   5.276  17.186  0.00  0.00    +0.000 A 
ATOM      8  N   UNL     1       4.109   4.186  17.934  0.00  0.00    +0.000 NA
ATOM      9  C   UNL     1       3.202   4.271  18.912  0.00  0.00    +0.000 A 
ATOM     10  C   UNL     1       2.798   3.076  19.487  0.00  0.00    +0.000 A 
ATOM     11  C   UNL     1       1.809   3.034  20.467  0.00  0.00    +0.000 A 
ATOM     12  C   UNL     1       1.264   4.219  20.937  0.00  0.00    +0.000 A 
ATOM     13  C   UNL     1       1.661   5.436  20.381  0.00  0.00    +0.000 A 
ATOM     14  C   UNL     1       2.598   5.483  19.319  0.00  0.00    +0.000 A 
BRANCH   7  15
ATOM     15  C   UNL     1       5.379   5.013  16.124  0.00  0.00    +0.000 A 
ATOM     16  C   UNL     1       5.174   4.381  14.904  0.00  0.00    +0.000 A 
ATOM     17  C   UNL     1       6.358   4.266  14.119  0.00  0.00    +0.000 A 
ATOM     18  C   UNL     1       7.439   4.833  14.752  0.00  0.00    +0.000 A 
ATOM     19  S   UNL     1       7.024   5.491  16.270  0.00  0.00    +0.000 S 
ENDBRANCH   7  15
ENDBRANCH   2   5
BRANCH   1  23
ATOM     20  C   UNL     1      -0.882  11.627  20.740  0.00  0.00    +0.000 A 
ATOM     21  C   UNL     1      -0.892  11.051  19.470  0.00  0.00    +0.000 A 
ATOM     22  C   UNL     1      -0.084   9.935  19.184  0.00  0.00    +0.000 A 
ATOM     23  C   UNL     1       0.755   9.363  20.147  0.00  0.00    +0.000 A 
ATOM     24  C   UNL     1       0.752   9.934  21.427  0.00  0.00    +0.000 A 
ATOM     25  C   UNL     1      -0.047  11.055  21.716  0.00  0.00    +0.000 A 
BRANCH  20  27
ATOM     26  N   UNL     1      -2.174  13.642  20.125  0.00  0.00    +0.000 N 
ATOM     27  C   UNL     1      -1.706  12.813  21.117  0.00  0.00    +0.000 C 
ATOM     28  O   UNL     1      -1.972  13.058  22.284  0.00  0.00    +0.000 OA
ATOM     29  H   UNL     1      -2.737  14.425  20.413  0.00  0.00    +0.000 HD
ATOM     30  H   UNL     1      -2.032  13.500  19.137  0.00  0.00    +0.000 HD
ENDBRANCH  20  27
ENDBRANCH   1  23
TORSDOF 4
ENDMDL
MODEL 9
REMARK VINA RESULT:      -8.2      3.747      9.300
REMARK  Name = 
REMARK  4 active torsions:
REMARK  status: ('A' for Active; 'I' for Inactive)
REMARK    1  A    between atoms: C_2  and  C_4
REMARK    2  A    between atoms: C_7  and  N_8
REMARK    3  A    between atoms: C_9  and  C_11
REMARK    4  A    between atoms: C_13  and  C_14
REMARK                            x       y       z     vdW  Elec       q    Type
REMARK                         _______ _______ _______ _____ _____    ______ ____
ROOT
ATOM      1  N   UNL     1       1.202   8.630  18.853  0.00  0.00    +0.000 N 
ATOM      2  C   UNL     1       1.276   9.985  18.532  0.00  0.00    +0.000 C 
ATOM      3  O   UNL     1       2.202  10.523  17.932  0.00  0.00    +0.000 OA
ATOM      4  H   UNL     1       0.307   8.265  19.159  0.00  0.00    +0.000 HD
ENDROOT
BRANCH   2   5
ATOM      5  C   UNL     1       0.119  10.865  18.884  0.00  0.00    +0.000 A 
ATOM      6  C   UNL     1       0.256  11.624  20.061  0.00  0.00    +0.000 A 
ATOM      7  C   UNL     1      -0.808  12.395  20.500  0.00  0.00    +0.000 A 
ATOM      8  N   UNL     1      -2.007  12.356  19.880  0.00  0.00    +0.000 NA
ATOM      9  C   UNL     1      -2.184  11.534  18.841  0.00  0.00    +0.000 A 
ATOM     10  C   UNL     1      -3.487  11.370  18.396  0.00  0.00    +0.000 A 
ATOM     11  C   UNL     1      -3.801  10.486  17.367  0.00  0.00    +0.000 A 
ATOM     12  C   UNL     1      -2.783   9.809  16.715  0.00  0.00    +0.000 A 
ATOM     13  C   UNL     1      -1.461   9.964  17.137  0.00  0.00    +0.000 A 
ATOM     14  C   UNL     1      -1.141  10.789  18.244  0.00  0.00    +0.000 A 
BRANCH   7  15
ATOM     15  C   UNL     1      -0.783  13.324  21.650  0.00  0.00    +0.000 A 
ATOM     16  C   UNL     1      -1.415  13.175  22.879  0.00  0.00    +0.000 A 
ATOM     17  C   UNL     1      -1.204  14.274  23.761  0.00  0.00    +0.000 A 
ATOM     18  C   UNL     1      -0.397  15.230  23.193  0.00  0.00    +0.000 A 
ATOM     19  S   UNL     1       0.095  14.802  21.616  0.00  0.00    +0.000 S 
ENDBRANCH   7  15
ENDBRANCH   2   5
BRANCH   1  23
ATOM     20  C   UNL     1       4.371   5.769  18.503  0.00  0.00    +0.000 A 
ATOM     21  C   UNL     1       4.209   6.762  17.536  0.00  0.00    +0.000 A 
ATOM     22  C   UNL     1       3.168   7.702  17.643  0.00  0.00    +0.000 A 
ATOM     23  C   UNL     1       2.261   7.682  18.709  0.00  0.00    +0.000 A 
ATOM     24  C   UNL     1       2.435   6.694  19.687  0.00  0.00    +0.000 A 
ATOM     25  C   UNL     1       3.468   5.746  19.580  0.00  0.00    +0.000 A 
BRANCH  20  27
ATOM     26  N   UNL     1       5.513   3.892  17.371  0.00  0.00    +0.000 N 
ATOM     27  C   UNL     1       5.447   4.736  18.455  0.00  0.00    +0.000 C 
ATOM     28  O   UNL     1       6.267   4.628  19.354  0.00  0.00    +0.000 OA
ATOM     29  H   UNL     1       6.258   3.214  17.365  0.00  0.00    +0.000 HD
ATOM     30  H   UNL     1       4.901   3.928  16.571  0.00  0.00    +0.000 HD
ENDBRANCH  20  27
ENDBRANCH   1  23
TORSDOF 4
ENDMDL
