MODEL 1
REMARK VINA RESULT:      -8.3      0.000      0.000
REMARK  Name = 
REMARK  6 active torsions:
REMARK  status: ('A' for Active; 'I' for Inactive)
REMARK    1  A    between atoms: C_1  and  N_2
REMARK    2  A    between atoms: N_7  and  O_8
REMARK    3  A    between atoms: N_7  and  C_9
REMARK    4  A    between atoms: C_10  and  C_11
REMARK    5  A    between atoms: C_15  and  N_16
REMARK    6  A    between atoms: C_23  and  C_24
REMARK                            x       y       z     vdW  Elec       q    Type
REMARK                         _______ _______ _______ _____ _____    ______ ____
ROOT
ATOM      1  C   UNL     1      -0.887  10.613  18.291  0.00  0.00    +0.000 A 
ATOM      2  C   UNL     1      -0.329  11.860  18.587  0.00  0.00    +0.000 A 
ATOM      3  C   UNL     1       1.037  11.978  18.805  0.00  0.00    +0.000 A 
ATOM      4  C   UNL     1       1.851  10.846  18.755  0.00  0.00    +0.000 A 
ATOM      5  C   UNL     1       1.324   9.575  18.499  0.00  0.00    +0.000 A 
ATOM      6  C   UNL     1      -0.052   9.478  18.250  0.00  0.00    +0.000 A 
ENDROOT
BRANCH   5   7
ATOM      7  N   UNL     1       2.156   8.421  18.540  0.00  0.00    +0.000 N 
ATOM      8  C   UNL     1       3.050   8.025  17.450  0.00  0.00    +0.000 C 
ATOM      9  C   UNL     1       3.598   6.709  17.920  0.00  0.00    +0.000 A 
ATOM     10  C   UNL     1       3.041   6.405  19.152  0.00  0.00    +0.000 A 
ATOM     11  C   UNL     1       3.341   5.250  19.825  0.00  0.00    +0.000 A 
ATOM     12  N   UNL     1       4.213   4.361  19.307  0.00  0.00    +0.000 NA
ATOM     13  C   UNL     1       4.773   4.665  18.103  0.00  0.00    +0.000 A 
ATOM     14  C   UNL     1       4.506   5.820  17.362  0.00  0.00    +0.000 A 
ATOM     15  C   UNL     1       2.155   7.475  19.565  0.00  0.00    +0.000 C 
ATOM     16  O   UNL     1       1.573   7.426  20.628  0.00  0.00    +0.000 OA
BRANCH  14  17
ATOM     17  C   UNL     1       5.211   6.026  16.062  0.00  0.00    +0.000 C 
ATOM     18  F   UNL     1       6.543   6.261  16.205  0.00  0.00    +0.000 F 
ATOM     19  F   UNL     1       5.111   4.943  15.245  0.00  0.00    +0.000 F 
ATOM     20  F   UNL     1       4.716   7.078  15.358  0.00  0.00    +0.000 F 
ENDBRANCH  14  17
ENDBRANCH   5   7
BRANCH   1  22
ATOM     21  C   UNL     1      -3.078  11.483  17.533  0.00  0.00    +0.000 C 
ATOM     22  C   UNL     1      -2.345  10.522  18.116  0.00  0.00    +0.000 C 
BRANCH  21  29
ATOM     23  C   UNL     1      -4.253  12.781  20.189  0.00  0.00    +0.000 C 
ATOM     24  N   UNL     1      -5.387  12.480  19.360  0.00  0.00    +0.000 N 
ATOM     25  C   UNL     1      -6.675  12.727  19.744  0.00  0.00    +0.000 A 
ATOM     26  N   UNL     1      -7.499  12.381  18.792  0.00  0.00    +0.000 NA
ATOM     27  N   UNL     1      -6.742  11.893  17.757  0.00  0.00    +0.000 NA
ATOM     28  C   UNL     1      -5.461  11.941  18.094  0.00  0.00    +0.000 A 
ATOM     29  N   UNL     1      -4.434  11.523  17.285  0.00  0.00    +0.000 N 
BRANCH  29  30
ATOM     30  O   UNL     1      -4.828  11.058  16.012  0.00  0.00    +0.000 OA
ATOM     31  H   UNL     1      -5.719  10.687  16.176  0.00  0.00    +0.000 HD
ENDBRANCH  29  30
ENDBRANCH  21  29
ENDBRANCH   1  22
TORSDOF 5
ENDMDL
MODEL 2
REMARK VINA RESULT:      -8.3      2.602      3.029
REMARK  Name = 
REMARK  6 active torsions:
REMARK  status: ('A' for Active; 'I' for Inactive)
REMARK    1  A    between atoms: C_1  and  N_2
REMARK    2  A    between atoms: N_7  and  O_8
REMARK    3  A    between atoms: N_7  and  C_9
REMARK    4  A    between atoms: C_10  and  C_11
REMARK    5  A    between atoms: C_15  and  N_16
REMARK    6  A    between atoms: C_23  and  C_24
REMARK                            x       y       z     vdW  Elec       q    Type
REMARK                         _______ _______ _______ _____ _____    ______ ____
ROOT
ATOM      1  C   UNL     1      -0.984  11.215  19.304  0.00  0.00    +0.000 A 
ATOM      2  C   UNL     1      -0.843  11.735  20.594  0.00  0.00    +0.000 A 
ATOM      3  C   UNL     1       0.077  11.180  21.473  0.00  0.00    +0.000 A 
ATOM      4  C   UNL     1       0.842  10.082  21.079  0.00  0.00    +0.000 A 
ATOM      5  C   UNL     1       0.704   9.509  19.810  0.00  0.00    +0.000 A 
ATOM      6  C   UNL     1      -0.205  10.101  18.924  0.00  0.00    +0.000 A 
ENDROOT
BRANCH   5   7
ATOM      7  N   UNL     1       1.430   8.337  19.458  0.00  0.00    +0.000 N 
ATOM      8  C   UNL     1       1.424   7.108  20.254  0.00  0.00    +0.000 C 
ATOM      9  C   UNL     1       2.418   6.236  19.541  0.00  0.00    +0.000 A 
ATOM     10  C   UNL     1       2.932   6.934  18.461  0.00  0.00    +0.000 A 
ATOM     11  C   UNL     1       3.879   6.397  17.628  0.00  0.00    +0.000 A 
ATOM     12  N   UNL     1       4.340   5.145  17.830  0.00  0.00    +0.000 NA
ATOM     13  C   UNL     1       3.825   4.453  18.885  0.00  0.00    +0.000 A 
ATOM     14  C   UNL     1       2.864   4.943  19.774  0.00  0.00    +0.000 A 
ATOM     15  C   UNL     1       2.310   8.240  18.380  0.00  0.00    +0.000 C 
ATOM     16  O   UNL     1       2.599   9.014  17.492  0.00  0.00    +0.000 OA
BRANCH  14  17
ATOM     17  C   UNL     1       2.379   4.060  20.875  0.00  0.00    +0.000 C 
ATOM     18  F   UNL     1       2.992   2.845  20.898  0.00  0.00    +0.000 F 
ATOM     19  F   UNL     1       2.590   4.605  22.103  0.00  0.00    +0.000 F 
ATOM     20  F   UNL     1       1.046   3.807  20.797  0.00  0.00    +0.000 F 
ENDBRANCH  14  17
ENDBRANCH   5   7
BRANCH   1  22
ATOM     21  C   UNL     1      -3.255  11.328  18.326  0.00  0.00    +0.000 C 
ATOM     22  C   UNL     1      -2.003  11.800  18.420  0.00  0.00    +0.000 C 
BRANCH  21  29
ATOM     23  C   UNL     1      -5.358  12.280  20.513  0.00  0.00    +0.000 C 
ATOM     24  N   UNL     1      -5.992  12.485  19.240  0.00  0.00    +0.000 N 
ATOM     25  C   UNL     1      -7.259  12.980  19.111  0.00  0.00    +0.000 A 
ATOM     26  N   UNL     1      -7.569  13.086  17.847  0.00  0.00    +0.000 NA
ATOM     27  N   UNL     1      -6.488  12.651  17.124  0.00  0.00    +0.000 NA
ATOM     28  C   UNL     1      -5.528  12.277  17.959  0.00  0.00    +0.000 A 
ATOM     29  N   UNL     1      -4.310  11.785  17.563  0.00  0.00    +0.000 N 
BRANCH  29  30
ATOM     30  O   UNL     1      -4.111  11.734  16.167  0.00  0.00    +0.000 OA
ATOM     31  H   UNL     1      -4.910  12.174  15.812  0.00  0.00    +0.000 HD
ENDBRANCH  29  30
ENDBRANCH  21  29
ENDBRANCH   1  22
TORSDOF 5
ENDMDL
MODEL 3
REMARK VINA RESULT:      -8.3      3.366      4.141
REMARK  Name = 
REMARK  6 active torsions:
REMARK  status: ('A' for Active; 'I' for Inactive)
REMARK    1  A    between atoms: C_1  and  N_2
REMARK    2  A    between atoms: N_7  and  O_8
REMARK    3  A    between atoms: N_7  and  C_9
REMARK    4  A    between atoms: C_10  and  C_11
REMARK    5  A    between atoms: C_15  and  N_16
REMARK    6  A    between atoms: C_23  and  C_24
REMARK                            x       y       z     vdW  Elec       q    Type
REMARK                         _______ _______ _______ _____ _____    ______ ____
ROOT
ATOM      1  C   UNL     1       0.548  10.059  19.843  0.00  0.00    +0.000 A 
ATOM      2  C   UNL     1       0.236   9.922  21.199  0.00  0.00    +0.000 A 
ATOM      3  C   UNL     1       0.704   8.828  21.914  0.00  0.00    +0.000 A 
ATOM      4  C   UNL     1       1.463   7.849  21.273  0.00  0.00    +0.000 A 
ATOM      5  C   UNL     1       1.765   7.931  19.909  0.00  0.00    +0.000 A 
ATOM      6  C   UNL     1       1.313   9.058  19.209  0.00  0.00    +0.000 A 
ENDROOT
BRANCH   5   7
ATOM      7  N   UNL     1       2.465   6.880  19.254  0.00  0.00    +0.000 N 
ATOM      8  C   UNL     1       3.425   7.095  18.170  0.00  0.00    +0.000 C 
ATOM      9  C   UNL     1       3.782   5.698  17.749  0.00  0.00    +0.000 A 
ATOM     10  C   UNL     1       3.069   4.800  18.526  0.00  0.00    +0.000 A 
ATOM     11  C   UNL     1       3.177   3.444  18.359  0.00  0.00    +0.000 A 
ATOM     12  N   UNL     1       4.003   2.931  17.426  0.00  0.00    +0.000 NA
ATOM     13  C   UNL     1       4.716   3.813  16.670  0.00  0.00    +0.000 A 
ATOM     14  C   UNL     1       4.649   5.205  16.784  0.00  0.00    +0.000 A 
ATOM     15  C   UNL     1       2.258   5.520  19.487  0.00  0.00    +0.000 C 
ATOM     16  O   UNL     1       1.564   4.926  20.286  0.00  0.00    +0.000 OA
BRANCH  14  17
ATOM     17  C   UNL     1       5.505   6.047  15.897  0.00  0.00    +0.000 C 
ATOM     18  F   UNL     1       4.799   6.968  15.187  0.00  0.00    +0.000 F 
ATOM     19  F   UNL     1       6.435   6.751  16.596  0.00  0.00    +0.000 F 
ATOM     20  F   UNL     1       6.193   5.314  14.983  0.00  0.00    +0.000 F 
ENDBRANCH  14  17
ENDBRANCH   5   7
BRANCH   1  22
ATOM     21  C   UNL     1       0.344  12.478  19.357  0.00  0.00    +0.000 C 
ATOM     22  C   UNL     1      -0.007  11.207  19.109  0.00  0.00    +0.000 C 
BRANCH  21  29
ATOM     23  C   UNL     1       1.506  14.753  21.251  0.00  0.00    +0.000 C 
ATOM     24  N   UNL     1       0.769  15.434  20.222  0.00  0.00    +0.000 N 
ATOM     25  C   UNL     1       0.642  16.793  20.174  0.00  0.00    +0.000 A 
ATOM     26  N   UNL     1      -0.054  17.139  19.124  0.00  0.00    +0.000 NA
ATOM     27  N   UNL     1      -0.397  15.986  18.465  0.00  0.00    +0.000 NA
ATOM     28  C   UNL     1       0.090  14.945  19.126  0.00  0.00    +0.000 A 
ATOM     29  N   UNL     1      -0.075  13.639  18.740  0.00  0.00    +0.000 N 
BRANCH  29  30
ATOM     30  O   UNL     1      -0.785  13.458  17.533  0.00  0.00    +0.000 OA
ATOM     31  H   UNL     1      -1.717  13.589  17.802  0.00  0.00    +0.000 HD
ENDBRANCH  29  30
ENDBRANCH  21  29
ENDBRANCH   1  22
TORSDOF 5
ENDMDL
MODEL 4
REMARK VINA RESULT:      -8.3      3.429      4.460
REMARK  Name = 
REMARK  6 active torsions:
REMARK  status: ('A' for Active; 'I' for Inactive)
REMARK    1  A    between atoms: C_1  and  N_2
REMARK    2  A    between atoms: N_7  and  O_8
REMARK    3  A    between atoms: N_7  and  C_9
REMARK    4  A    between atoms: C_10  and  C_11
REMARK    5  A    between atoms: C_15  and  N_16
REMARK    6  A    between atoms: C_23  and  C_24
REMARK                            x       y       z     vdW  Elec       q    Type
REMARK                         _______ _______ _______ _____ _____    ______ ____
ROOT
ATOM      1  C   UNL     1       0.595  10.251  19.988  0.00  0.00    +0.000 A 
ATOM      2  C   UNL     1       0.138  10.022  21.289  0.00  0.00    +0.000 A 
ATOM      3  C   UNL     1       0.464   8.843  21.945  0.00  0.00    +0.000 A 
ATOM      4  C   UNL     1       1.226   7.872  21.295  0.00  0.00    +0.000 A 
ATOM      5  C   UNL     1       1.671   8.048  19.979  0.00  0.00    +0.000 A 
ATOM      6  C   UNL     1       1.360   9.258  19.343  0.00  0.00    +0.000 A 
ENDROOT
BRANCH   5   7
ATOM      7  N   UNL     1       2.372   7.010  19.303  0.00  0.00    +0.000 N 
ATOM      8  C   UNL     1       3.339   7.248  18.231  0.00  0.00    +0.000 C 
ATOM      9  C   UNL     1       3.694   5.862  17.778  0.00  0.00    +0.000 A 
ATOM     10  C   UNL     1       2.972   4.947  18.527  0.00  0.00    +0.000 A 
ATOM     11  C   UNL     1       3.076   3.595  18.327  0.00  0.00    +0.000 A 
ATOM     12  N   UNL     1       3.907   3.102  17.386  0.00  0.00    +0.000 NA
ATOM     13  C   UNL     1       4.628   4.000  16.658  0.00  0.00    +0.000 A 
ATOM     14  C   UNL     1       4.566   5.389  16.807  0.00  0.00    +0.000 A 
ATOM     15  C   UNL     1       2.157   5.646  19.501  0.00  0.00    +0.000 C 
ATOM     16  O   UNL     1       1.456   5.036  20.279  0.00  0.00    +0.000 OA
BRANCH  14  17
ATOM     17  C   UNL     1       5.431   6.249  15.947  0.00  0.00    +0.000 C 
ATOM     18  F   UNL     1       6.250   7.070  16.660  0.00  0.00    +0.000 F 
ATOM     19  F   UNL     1       6.248   5.517  15.143  0.00  0.00    +0.000 F 
ATOM     20  F   UNL     1       4.714   7.057  15.122  0.00  0.00    +0.000 F 
ENDBRANCH  14  17
ENDBRANCH   5   7
BRANCH   1  22
ATOM     21  C   UNL     1       0.133  12.683  19.926  0.00  0.00    +0.000 C 
ATOM     22  C   UNL     1       0.187  11.492  19.311  0.00  0.00    +0.000 C 
BRANCH  21  29
ATOM     23  C   UNL     1       2.959  13.986  19.266  0.00  0.00    +0.000 C 
ATOM     24  N   UNL     1       1.977  14.984  18.940  0.00  0.00    +0.000 N 
ATOM     25  C   UNL     1       2.306  16.223  18.466  0.00  0.00    +0.000 A 
ATOM     26  N   UNL     1       1.221  16.912  18.232  0.00  0.00    +0.000 NA
ATOM     27  N   UNL     1       0.153  16.116  18.560  0.00  0.00    +0.000 NA
ATOM     28  C   UNL     1       0.601  14.947  18.999  0.00  0.00    +0.000 A 
ATOM     29  N   UNL     1      -0.207  13.919  19.415  0.00  0.00    +0.000 N 
BRANCH  29  30
ATOM     30  O   UNL     1      -1.592  14.167  19.310  0.00  0.00    +0.000 OA
ATOM     31  H   UNL     1      -1.641  15.144  19.267  0.00  0.00    +0.000 HD
ENDBRANCH  29  30
ENDBRANCH  21  29
ENDBRANCH   1  22
TORSDOF 5
ENDMDL
MODEL 5
REMARK VINA RESULT:      -8.2      1.261      1.521
REMARK  Name = 
REMARK  6 active torsions:
REMARK  status: ('A' for Active; 'I' for Inactive)
REMARK    1  A    between atoms: C_1  and  N_2
REMARK    2  A    between atoms: N_7  and  O_8
REMARK    3  A    between atoms: N_7  and  C_9
REMARK    4  A    between atoms: C_10  and  C_11
REMARK    5  A    between atoms: C_15  and  N_16
REMARK    6  A    between atoms: C_23  and  C_24
REMARK                            x       y       z     vdW  Elec       q    Type
REMARK                         _______ _______ _______ _____ _____    ______ ____
ROOT
ATOM      1  C   UNL     1      -0.276  10.186  19.137  0.00  0.00    +0.000 A 
ATOM      2  C   UNL     1      -0.368  10.547  20.484  0.00  0.00    +0.000 A 
ATOM      3  C   UNL     1       0.455   9.942  21.425  0.00  0.00    +0.000 A 
ATOM      4  C   UNL     1       1.356   8.954  21.030  0.00  0.00    +0.000 A 
ATOM      5  C   UNL     1       1.452   8.538  19.697  0.00  0.00    +0.000 A 
ATOM      6  C   UNL     1       0.637   9.180  18.755  0.00  0.00    +0.000 A 
ENDROOT
BRANCH   5   7
ATOM      7  N   UNL     1       2.314   7.467  19.328  0.00  0.00    +0.000 N 
ATOM      8  C   UNL     1       3.296   7.551  18.246  0.00  0.00    +0.000 C 
ATOM      9  C   UNL     1       3.849   6.156  18.179  0.00  0.00    +0.000 A 
ATOM     10  C   UNL     1       3.214   5.377  19.132  0.00  0.00    +0.000 A 
ATOM     11  C   UNL     1       3.500   4.047  19.297  0.00  0.00    +0.000 A 
ATOM     12  N   UNL     1       4.434   3.446  18.531  0.00  0.00    +0.000 NA
ATOM     13  C   UNL     1       5.069   4.215  17.603  0.00  0.00    +0.000 A 
ATOM     14  C   UNL     1       4.822   5.573  17.381  0.00  0.00    +0.000 A 
ATOM     15  C   UNL     1       2.267   6.185  19.875  0.00  0.00    +0.000 C 
ATOM     16  O   UNL     1       1.612   5.706  20.776  0.00  0.00    +0.000 OA
BRANCH  14  17
ATOM     17  C   UNL     1       5.611   6.292  16.338  0.00  0.00    +0.000 C 
ATOM     18  F   UNL     1       6.428   5.471  15.622  0.00  0.00    +0.000 F 
ATOM     19  F   UNL     1       4.816   6.911  15.425  0.00  0.00    +0.000 F 
ATOM     20  F   UNL     1       6.412   7.258  16.859  0.00  0.00    +0.000 F 
ENDBRANCH  14  17
ENDBRANCH   5   7
BRANCH   1  22
ATOM     21  C   UNL     1      -2.512  10.545  18.137  0.00  0.00    +0.000 C 
ATOM     22  C   UNL     1      -1.199  10.814  18.178  0.00  0.00    +0.000 C 
BRANCH  21  29
ATOM     23  C   UNL     1      -4.298  12.245  20.146  0.00  0.00    +0.000 C 
ATOM     24  N   UNL     1      -4.932  12.358  18.862  0.00  0.00    +0.000 N 
ATOM     25  C   UNL     1      -6.083  13.065  18.661  0.00  0.00    +0.000 A 
ATOM     26  N   UNL     1      -6.420  13.020  17.399  0.00  0.00    +0.000 NA
ATOM     27  N   UNL     1      -5.474  12.265  16.753  0.00  0.00    +0.000 NA
ATOM     28  C   UNL     1      -4.572  11.852  17.631  0.00  0.00    +0.000 A 
ATOM     29  N   UNL     1      -3.489  11.069  17.316  0.00  0.00    +0.000 N 
BRANCH  29  30
ATOM     30  O   UNL     1      -3.362  10.749  15.948  0.00  0.00    +0.000 OA
ATOM     31  H   UNL     1      -2.836  11.494  15.592  0.00  0.00    +0.000 HD
ENDBRANCH  29  30
ENDBRANCH  21  29
ENDBRANCH   1  22
TORSDOF 5
ENDMDL
MODEL 6
REMARK VINA RESULT:      -8.1      4.413      5.720
REMARK  Name = 
REMARK  6 active torsions:
REMARK  status: ('A' for Active; 'I' for Inactive)
REMARK    1  A    between atoms: C_1  and  N_2
REMARK    2  A    between atoms: N_7  and  O_8
REMARK    3  A    between atoms: N_7  and  C_9
REMARK    4  A    between atoms: C_10  and  C_11
REMARK    5  A    between atoms: C_15  and  N_16
REMARK    6  A    between atoms: C_23  and  C_24
REMARK                            x       y       z     vdW  Elec       q    Type
REMARK                         _______ _______ _______ _____ _____    ______ ____
ROOT
ATOM      1  C   UNL     1       0.408  10.904  20.519  0.00  0.00    +0.000 A 
ATOM      2  C   UNL     1       0.035  10.853  21.865  0.00  0.00    +0.000 A 
ATOM      3  C   UNL     1       0.266   9.703  22.609  0.00  0.00    +0.000 A 
ATOM      4  C   UNL     1       0.847   8.588  22.005  0.00  0.00    +0.000 A 
ATOM      5  C   UNL     1       1.200   8.587  20.651  0.00  0.00    +0.000 A 
ATOM      6  C   UNL     1       0.989   9.766  19.922  0.00  0.00    +0.000 A 
ENDROOT
BRANCH   5   7
ATOM      7  N   UNL     1       1.710   7.411  20.032  0.00  0.00    +0.000 N 
ATOM      8  C   UNL     1       1.565   6.068  20.597  0.00  0.00    +0.000 C 
ATOM      9  C   UNL     1       2.361   5.214  19.653  0.00  0.00    +0.000 A 
ATOM     10  C   UNL     1       2.905   6.022  18.668  0.00  0.00    +0.000 A 
ATOM     11  C   UNL     1       3.699   5.522  17.669  0.00  0.00    +0.000 A 
ATOM     12  N   UNL     1       3.973   4.203  17.605  0.00  0.00    +0.000 NA
ATOM     13  C   UNL     1       3.427   3.405  18.565  0.00  0.00    +0.000 A 
ATOM     14  C   UNL     1       2.615   3.850  19.613  0.00  0.00    +0.000 A 
ATOM     15  C   UNL     1       2.490   7.395  18.876  0.00  0.00    +0.000 C 
ATOM     16  O   UNL     1       2.836   8.273  18.114  0.00  0.00    +0.000 OA
BRANCH  14  17
ATOM     17  C   UNL     1       2.073   2.854  20.583  0.00  0.00    +0.000 C 
ATOM     18  F   UNL     1       0.849   3.192  21.073  0.00  0.00    +0.000 F 
ATOM     19  F   UNL     1       1.922   1.622  20.026  0.00  0.00    +0.000 F 
ATOM     20  F   UNL     1       2.877   2.683  21.665  0.00  0.00    +0.000 F 
ENDBRANCH  14  17
ENDBRANCH   5   7
BRANCH   1  22
ATOM     21  C   UNL     1       0.844  13.237  19.814  0.00  0.00    +0.000 C 
ATOM     22  C   UNL     1       0.101  12.122  19.753  0.00  0.00    +0.000 C 
BRANCH  21  29
ATOM     23  C   UNL     1       3.681  14.630  20.172  0.00  0.00    +0.000 C 
ATOM     24  N   UNL     1       2.868  15.569  19.449  0.00  0.00    +0.000 N 
ATOM     25  C   UNL     1       3.320  16.798  19.059  0.00  0.00    +0.000 A 
ATOM     26  N   UNL     1       2.384  17.428  18.400  0.00  0.00    +0.000 NA
ATOM     27  N   UNL     1       1.290  16.602  18.356  0.00  0.00    +0.000 NA
ATOM     28  C   UNL     1       1.569  15.475  18.996  0.00  0.00    +0.000 A 
ATOM     29  N   UNL     1       0.689  14.432  19.143  0.00  0.00    +0.000 N 
BRANCH  29  30
ATOM     30  O   UNL     1      -0.563  14.615  18.519  0.00  0.00    +0.000 OA
ATOM     31  H   UNL     1      -0.585  13.900  17.850  0.00  0.00    +0.000 HD
ENDBRANCH  29  30
ENDBRANCH  21  29
ENDBRANCH   1  22
TORSDOF 5
ENDMDL
MODEL 7
REMARK VINA RESULT:      -8.1      4.381      5.652
REMARK  Name = 
REMARK  6 active torsions:
REMARK  status: ('A' for Active; 'I' for Inactive)
REMARK    1  A    between atoms: C_1  and  N_2
REMARK    2  A    between atoms: N_7  and  O_8
REMARK    3  A    between atoms: N_7  and  C_9
REMARK    4  A    between atoms: C_10  and  C_11
REMARK    5  A    between atoms: C_15  and  N_16
REMARK    6  A    between atoms: C_23  and  C_24
REMARK                            x       y       z     vdW  Elec       q    Type
REMARK                         _______ _______ _______ _____ _____    ______ ____
ROOT
ATOM      1  C   UNL     1       0.169  11.435  20.502  0.00  0.00    +0.000 A 
ATOM      2  C   UNL     1      -0.299  11.405  21.819  0.00  0.00    +0.000 A 
ATOM      3  C   UNL     1      -0.123  10.266  22.595  0.00  0.00    +0.000 A 
ATOM      4  C   UNL     1       0.496   9.141  22.050  0.00  0.00    +0.000 A 
ATOM      5  C   UNL     1       0.944   9.119  20.725  0.00  0.00    +0.000 A 
ATOM      6  C   UNL     1       0.788  10.287  19.965  0.00  0.00    +0.000 A 
ENDROOT
BRANCH   5   7
ATOM      7  N   UNL     1       1.493   7.934  20.161  0.00  0.00    +0.000 N 
ATOM      8  C   UNL     1       1.429   6.622  20.808  0.00  0.00    +0.000 C 
ATOM      9  C   UNL     1       2.239   5.751  19.892  0.00  0.00    +0.000 A 
ATOM     10  C   UNL     1       2.717   6.523  18.846  0.00  0.00    +0.000 A 
ATOM     11  C   UNL     1       3.508   6.002  17.855  0.00  0.00    +0.000 A 
ATOM     12  N   UNL     1       3.842   4.695  17.860  0.00  0.00    +0.000 NA
ATOM     13  C   UNL     1       3.362   3.932  18.881  0.00  0.00    +0.000 A 
ATOM     14  C   UNL     1       2.557   4.400  19.924  0.00  0.00    +0.000 A 
ATOM     15  C   UNL     1       2.242   7.885  18.986  0.00  0.00    +0.000 C 
ATOM     16  O   UNL     1       2.525   8.731  18.164  0.00  0.00    +0.000 OA
BRANCH  14  17
ATOM     17  C   UNL     1       2.090   3.440  20.967  0.00  0.00    +0.000 C 
ATOM     18  F   UNL     1       2.600   2.188  20.810  0.00  0.00    +0.000 F 
ATOM     19  F   UNL     1       2.442   3.829  22.221  0.00  0.00    +0.000 F 
ATOM     20  F   UNL     1       0.739   3.296  20.980  0.00  0.00    +0.000 F 
ENDBRANCH  14  17
ENDBRANCH   5   7
BRANCH   1  22
ATOM     21  C   UNL     1       0.320  13.868  20.068  0.00  0.00    +0.000 C 
ATOM     22  C   UNL     1      -0.081  12.642  19.698  0.00  0.00    +0.000 C 
BRANCH  21  29
ATOM     23  C   UNL     1       3.275  14.498  19.075  0.00  0.00    +0.000 C 
ATOM     24  N   UNL     1       2.474  15.620  18.669  0.00  0.00    +0.000 N 
ATOM     25  C   UNL     1       2.988  16.701  18.010  0.00  0.00    +0.000 A 
ATOM     26  N   UNL     1       2.035  17.555  17.744  0.00  0.00    +0.000 NA
ATOM     27  N   UNL     1       0.868  17.031  18.240  0.00  0.00    +0.000 NA
ATOM     28  C   UNL     1       1.124  15.862  18.810  0.00  0.00    +0.000 A 
ATOM     29  N   UNL     1       0.176  15.072  19.410  0.00  0.00    +0.000 N 
BRANCH  29  30
ATOM     30  O   UNL     1      -1.143  15.572  19.351  0.00  0.00    +0.000 OA
ATOM     31  H   UNL     1      -1.264  15.770  18.399  0.00  0.00    +0.000 HD
ENDBRANCH  29  30
ENDBRANCH  21  29
ENDBRANCH   1  22
TORSDOF 5
ENDMDL
MODEL 8
REMARK VINA RESULT:      -8.1      4.561      9.822
REMARK  Name = 
REMARK  6 active torsions:
REMARK  status: ('A' for Active; 'I' for Inactive)
REMARK    1  A    between atoms: C_1  and  N_2
REMARK    2  A    between atoms: N_7  and  O_8
REMARK    3  A    between atoms: N_7  and  C_9
REMARK    4  A    between atoms: C_10  and  C_11
REMARK    5  A    between atoms: C_15  and  N_16
REMARK    6  A    between atoms: C_23  and  C_24
REMARK                            x       y       z     vdW  Elec       q    Type
REMARK                         _______ _______ _______ _____ _____    ______ ____
ROOT
ATOM      1  C   UNL     1       2.261   7.911  18.655  0.00  0.00    +0.000 A 
ATOM      2  C   UNL     1       2.009   7.253  19.862  0.00  0.00    +0.000 A 
ATOM      3  C   UNL     1       1.341   7.908  20.888  0.00  0.00    +0.000 A 
ATOM      4  C   UNL     1       0.945   9.236  20.724  0.00  0.00    +0.000 A 
ATOM      5  C   UNL     1       1.211   9.941  19.545  0.00  0.00    +0.000 A 
ATOM      6  C   UNL     1       1.858   9.255  18.508  0.00  0.00    +0.000 A 
ENDROOT
BRANCH   5   7
ATOM      7  N   UNL     1       0.877  11.320  19.431  0.00  0.00    +0.000 N 
ATOM      8  C   UNL     1       1.835  12.359  19.049  0.00  0.00    +0.000 C 
ATOM      9  C   UNL     1       1.039  13.624  19.191  0.00  0.00    +0.000 A 
ATOM     10  C   UNL     1      -0.236  13.305  19.626  0.00  0.00    +0.000 A 
ATOM     11  C   UNL     1      -1.189  14.262  19.862  0.00  0.00    +0.000 A 
ATOM     12  N   UNL     1      -0.914  15.567  19.664  0.00  0.00    +0.000 NA
ATOM     13  C   UNL     1       0.336  15.882  19.224  0.00  0.00    +0.000 A 
ATOM     14  C   UNL     1       1.354  14.957  18.969  0.00  0.00    +0.000 A 
ATOM     15  C   UNL     1      -0.363  11.867  19.759  0.00  0.00    +0.000 C 
ATOM     16  O   UNL     1      -1.409  11.364  20.110  0.00  0.00    +0.000 OA
BRANCH  14  17
ATOM     17  C   UNL     1       2.672  15.450  18.471  0.00  0.00    +0.000 C 
ATOM     18  F   UNL     1       3.042  14.890  17.287  0.00  0.00    +0.000 F 
ATOM     19  F   UNL     1       2.674  16.794  18.262  0.00  0.00    +0.000 F 
ATOM     20  F   UNL     1       3.688  15.200  19.338  0.00  0.00    +0.000 F 
ENDBRANCH  14  17
ENDBRANCH   5   7
BRANCH   1  22
ATOM     21  C   UNL     1       4.336   7.335  17.435  0.00  0.00    +0.000 C 
ATOM     22  C   UNL     1       3.014   7.198  17.612  0.00  0.00    +0.000 C 
BRANCH  21  29
ATOM     23  C   UNL     1       6.103   5.416  19.256  0.00  0.00    +0.000 C 
ATOM     24  N   UNL     1       6.596   5.255  17.916  0.00  0.00    +0.000 N 
ATOM     25  C   UNL     1       7.638   4.428  17.602  0.00  0.00    +0.000 A 
ATOM     26  N   UNL     1       7.857   4.456  16.315  0.00  0.00    +0.000 NA
ATOM     27  N   UNL     1       6.945   5.321  15.765  0.00  0.00    +0.000 NA
ATOM     28  C   UNL     1       6.181   5.817  16.728  0.00  0.00    +0.000 A 
ATOM     29  N   UNL     1       5.167   6.719  16.522  0.00  0.00    +0.000 N 
BRANCH  29  30
ATOM     30  O   UNL     1       4.949   7.074  15.174  0.00  0.00    +0.000 OA
ATOM     31  H   UNL     1       4.054   6.719  14.992  0.00  0.00    +0.000 HD
ENDBRANCH  29  30
ENDBRANCH  21  29
ENDBRANCH   1  22
TORSDOF 5
ENDMDL
MODEL 9
REMARK VINA RESULT:      -8.0      2.001      2.548
REMARK  Name = 
REMARK  6 active torsions:
REMARK  status: ('A' for Active; 'I' for Inactive)
REMARK    1  A    between atoms: C_1  and  N_2
REMARK    2  A    between atoms: N_7  and  O_8
REMARK    3  A    between atoms: N_7  and  C_9
REMARK    4  A    between atoms: C_10  and  C_11
REMARK    5  A    between atoms: C_15  and  N_16
REMARK    6  A    between atoms: C_23  and  C_24
REMARK                            x       y       z     vdW  Elec       q    Type
REMARK                         _______ _______ _______ _____ _____    ______ ____
ROOT
ATOM      1  C   UNL     1      -0.366  11.204  18.998  0.00  0.00    +0.000 A 
ATOM      2  C   UNL     1       0.346  12.362  18.672  0.00  0.00    +0.000 A 
ATOM      3  C   UNL     1       1.667  12.273  18.255  0.00  0.00    +0.000 A 
ATOM      4  C   UNL     1       2.294  11.029  18.187  0.00  0.00    +0.000 A 
ATOM      5  C   UNL     1       1.627   9.850  18.541  0.00  0.00    +0.000 A 
ATOM      6  C   UNL     1       0.284   9.954  18.929  0.00  0.00    +0.000 A 
ENDROOT
BRANCH   5   7
ATOM      7  N   UNL     1       2.310   8.602  18.549  0.00  0.00    +0.000 N 
ATOM      8  C   UNL     1       3.195   8.153  17.473  0.00  0.00    +0.000 C 
ATOM      9  C   UNL     1       3.558   6.757  17.891  0.00  0.00    +0.000 A 
ATOM     10  C   UNL     1       2.915   6.464  19.082  0.00  0.00    +0.000 A 
ATOM     11  C   UNL     1       3.043   5.249  19.702  0.00  0.00    +0.000 A 
ATOM     12  N   UNL     1       3.822   4.285  19.169  0.00  0.00    +0.000 NA
ATOM     13  C   UNL     1       4.465   4.576  18.004  0.00  0.00    +0.000 A 
ATOM     14  C   UNL     1       4.374   5.791  17.319  0.00  0.00    +0.000 A 
ATOM     15  C   UNL     1       2.149   7.614  19.520  0.00  0.00    +0.000 C 
ATOM     16  O   UNL     1       1.520   7.585  20.557  0.00  0.00    +0.000 OA
BRANCH  14  17
ATOM     17  C   UNL     1       5.154   5.973  16.059  0.00  0.00    +0.000 C 
ATOM     18  F   UNL     1       4.708   7.008  15.296  0.00  0.00    +0.000 F 
ATOM     19  F   UNL     1       6.468   6.228  16.299  0.00  0.00    +0.000 F 
ATOM     20  F   UNL     1       5.122   4.874  15.259  0.00  0.00    +0.000 F 
ENDBRANCH  14  17
ENDBRANCH   5   7
BRANCH   1  22
ATOM     21  C   UNL     1      -2.176  12.402  20.188  0.00  0.00    +0.000 C 
ATOM     22  C   UNL     1      -1.748  11.345  19.483  0.00  0.00    +0.000 C 
BRANCH  21  29
ATOM     23  C   UNL     1      -1.832  11.933  23.315  0.00  0.00    +0.000 C 
ATOM     24  N   UNL     1      -3.216  12.265  23.115  0.00  0.00    +0.000 N 
ATOM     25  C   UNL     1      -4.122  12.320  24.136  0.00  0.00    +0.000 A 
ATOM     26  N   UNL     1      -5.293  12.669  23.674  0.00  0.00    +0.000 NA
ATOM     27  N   UNL     1      -5.161  12.845  22.320  0.00  0.00    +0.000 NA
ATOM     28  C   UNL     1      -3.907  12.595  21.969  0.00  0.00    +0.000 A 
ATOM     29  N   UNL     1      -3.435  12.674  20.683  0.00  0.00    +0.000 N 
BRANCH  29  30
ATOM     30  O   UNL     1      -4.383  13.089  19.723  0.00  0.00    +0.000 OA
ATOM     31  H   UNL     1      -4.807  13.862  20.149  0.00  0.00    +0.000 HD
ENDBRANCH  29  30
ENDBRANCH  21  29
ENDBRANCH   1  22
TORSDOF 5
ENDMDL
