MODEL 1
REMARK VINA RESULT:     -10.2      0.000      0.000
REMARK  Name = 
REMARK  3 active torsions:
REMARK  status: ('A' for Active; 'I' for Inactive)
REMARK    1  A    between atoms: C_1  and  C_2
REMARK    2  A    between atoms: C_3  and  C_4
REMARK    3  A    between atoms: N_15  and  C_16
REMARK                            x       y       z     vdW  Elec       q    Type
REMARK                         _______ _______ _______ _____ _____    ______ ____
ROOT
ATOM      1  C   UNL     1       2.701   6.783  19.030  0.00  0.00    +0.000 C 
ATOM      2  O   UNL     1       2.478   6.538  17.851  0.00  0.00    +0.000 OA
ATOM      3  N   UNL     1       3.754   6.278  19.770  0.00  0.00    +0.000 N 
ATOM      4  C   UNL     1       4.569   5.343  19.219  0.00  0.00    +0.000 A 
ATOM      5  N   UNL     1       5.878   5.414  19.163  0.00  0.00    +0.000 NA
ATOM      6  C   UNL     1       6.155   4.710  18.014  0.00  0.00    +0.000 A 
ATOM      7  C   UNL     1       7.322   4.711  17.247  0.00  0.00    +0.000 A 
ATOM      8  C   UNL     1       7.118   4.579  15.876  0.00  0.00    +0.000 A 
ATOM      9  C   UNL     1       6.017   3.862  15.415  0.00  0.00    +0.000 A 
ATOM     10  C   UNL     1       5.015   3.420  16.285  0.00  0.00    +0.000 A 
ATOM     11  C   UNL     1       5.043   4.024  17.540  0.00  0.00    +0.000 A 
ATOM     12  N   UNL     1       4.144   4.222  18.557  0.00  0.00    +0.000 N 
ATOM     13  H   UNL     1       4.231   6.965  20.348  0.00  0.00    +0.000 HD
ENDROOT
BRANCH   1  16
ATOM     14  C   UNL     1       1.647   9.741  18.147  0.00  0.00    +0.000 C 
ATOM     15  C   UNL     1       1.387   8.950  19.381  0.00  0.00    +0.000 A 
ATOM     16  C   UNL     1       1.849   7.700  19.769  0.00  0.00    +0.000 A 
ATOM     17  C   UNL     1       1.421   7.574  21.103  0.00  0.00    +0.000 A 
ATOM     18  N   UNL     1       0.698   8.607  21.529  0.00  0.00    +0.000 NA
ATOM     19  N   UNL     1       0.625   9.439  20.448  0.00  0.00    +0.000 N 
ATOM     20  C   UNL     1      -0.158  10.628  20.502  0.00  0.00    +0.000 A 
ATOM     21  C   UNL     1      -0.757  11.022  21.682  0.00  0.00    +0.000 A 
ATOM     22  C   UNL     1      -1.541  12.168  21.712  0.00  0.00    +0.000 A 
ATOM     23  C   UNL     1      -1.715  12.899  20.542  0.00  0.00    +0.000 A 
ATOM     24  C   UNL     1      -1.082  12.454  19.396  0.00  0.00    +0.000 A 
ATOM     25  N   UNL     1      -0.315  11.345  19.347  0.00  0.00    +0.000 NA
ENDBRANCH   1  16
BRANCH  12  26
ATOM     26  C   UNL     1       3.006   3.412  18.967  0.00  0.00    +0.000 C 
ATOM     27  C   UNL     1       1.753   3.541  18.107  0.00  0.00    +0.000 C 
ATOM     28  C   UNL     1       0.612   3.042  18.976  0.00  0.00    +0.000 C 
ATOM     29  C   UNL     1       1.150   2.971  20.403  0.00  0.00    +0.000 C 
ATOM     30  C   UNL     1       2.512   3.634  20.388  0.00  0.00    +0.000 C 
ENDBRANCH  12  26
TORSDOF 2
ENDMDL
MODEL 2
REMARK VINA RESULT:      -9.8      0.909      1.865
REMARK  Name = 
REMARK  3 active torsions:
REMARK  status: ('A' for Active; 'I' for Inactive)
REMARK    1  A    between atoms: C_1  and  C_2
REMARK    2  A    between atoms: C_3  and  C_4
REMARK    3  A    between atoms: N_15  and  C_16
REMARK                            x       y       z     vdW  Elec       q    Type
REMARK                         _______ _______ _______ _____ _____    ______ ____
ROOT
ATOM      1  C   UNL     1       2.680   7.547  18.382  0.00  0.00    +0.000 C 
ATOM      2  O   UNL     1       2.715   7.264  17.191  0.00  0.00    +0.000 OA
ATOM      3  N   UNL     1       3.418   6.928  19.375  0.00  0.00    +0.000 N 
ATOM      4  C   UNL     1       4.171   5.841  19.069  0.00  0.00    +0.000 A 
ATOM      5  N   UNL     1       5.445   5.698  19.343  0.00  0.00    +0.000 NA
ATOM      6  C   UNL     1       5.871   4.887  18.318  0.00  0.00    +0.000 A 
ATOM      7  C   UNL     1       7.173   4.651  17.871  0.00  0.00    +0.000 A 
ATOM      8  C   UNL     1       7.292   4.464  16.496  0.00  0.00    +0.000 A 
ATOM      9  C   UNL     1       6.231   3.905  15.788  0.00  0.00    +0.000 A 
ATOM     10  C   UNL     1       4.986   3.687  16.386  0.00  0.00    +0.000 A 
ATOM     11  C   UNL     1       4.808   4.358  17.594  0.00  0.00    +0.000 A 
ATOM     12  N   UNL     1       3.735   4.763  18.346  0.00  0.00    +0.000 N 
ATOM     13  H   UNL     1       3.848   7.566  20.039  0.00  0.00    +0.000 HD
ENDROOT
BRANCH   1  16
ATOM     14  C   UNL     1       0.950   7.719  21.141  0.00  0.00    +0.000 C 
ATOM     15  C   UNL     1       1.124   8.712  20.044  0.00  0.00    +0.000 A 
ATOM     16  C   UNL     1       1.843   8.634  18.860  0.00  0.00    +0.000 A 
ATOM     17  C   UNL     1       1.469   9.792  18.155  0.00  0.00    +0.000 A 
ATOM     18  N   UNL     1       0.639  10.582  18.831  0.00  0.00    +0.000 NA
ATOM     19  N   UNL     1       0.465   9.945  20.027  0.00  0.00    +0.000 N 
ATOM     20  C   UNL     1      -0.307  10.548  21.062  0.00  0.00    +0.000 A 
ATOM     21  C   UNL     1      -0.990  11.727  20.834  0.00  0.00    +0.000 A 
ATOM     22  C   UNL     1      -1.714  12.317  21.860  0.00  0.00    +0.000 A 
ATOM     23  C   UNL     1      -1.732  11.711  23.112  0.00  0.00    +0.000 A 
ATOM     24  C   UNL     1      -1.033  10.529  23.272  0.00  0.00    +0.000 A 
ATOM     25  N   UNL     1      -0.325   9.938  22.287  0.00  0.00    +0.000 NA
ENDBRANCH   1  16
BRANCH  12  26
ATOM     26  C   UNL     1       2.411   4.173  18.473  0.00  0.00    +0.000 C 
ATOM     27  C   UNL     1       1.782   4.241  19.862  0.00  0.00    +0.000 C 
ATOM     28  C   UNL     1       0.707   3.169  19.872  0.00  0.00    +0.000 C 
ATOM     29  C   UNL     1       0.962   2.283  18.655  0.00  0.00    +0.000 C 
ATOM     30  C   UNL     1       2.297   2.708  18.080  0.00  0.00    +0.000 C 
ENDBRANCH  12  26
TORSDOF 2
ENDMDL
MODEL 3
REMARK VINA RESULT:      -8.9      2.133      9.154
REMARK  Name = 
REMARK  3 active torsions:
REMARK  status: ('A' for Active; 'I' for Inactive)
REMARK    1  A    between atoms: C_1  and  C_2
REMARK    2  A    between atoms: C_3  and  C_4
REMARK    3  A    between atoms: N_15  and  C_16
REMARK                            x       y       z     vdW  Elec       q    Type
REMARK                         _______ _______ _______ _____ _____    ______ ____
ROOT
ATOM      1  C   UNL     1       0.660   9.239  20.325  0.00  0.00    +0.000 C 
ATOM      2  O   UNL     1      -0.173   9.680  19.544  0.00  0.00    +0.000 OA
ATOM      3  N   UNL     1       0.889   9.710  21.605  0.00  0.00    +0.000 N 
ATOM      4  C   UNL     1       0.240  10.821  22.034  0.00  0.00    +0.000 A 
ATOM      5  N   UNL     1      -0.458  10.914  23.141  0.00  0.00    +0.000 NA
ATOM      6  C   UNL     1      -1.405  11.854  22.806  0.00  0.00    +0.000 A 
ATOM      7  C   UNL     1      -2.618  12.136  23.437  0.00  0.00    +0.000 A 
ATOM      8  C   UNL     1      -3.649  12.507  22.577  0.00  0.00    +0.000 A 
ATOM      9  C   UNL     1      -3.344  13.167  21.389  0.00  0.00    +0.000 A 
ATOM     10  C   UNL     1      -2.023  13.314  20.952  0.00  0.00    +0.000 A 
ATOM     11  C   UNL     1      -1.112  12.486  21.603  0.00  0.00    +0.000 A 
ATOM     12  N   UNL     1       0.139  11.992  21.331  0.00  0.00    +0.000 N 
ATOM     13  H   UNL     1       0.992   8.984  22.309  0.00  0.00    +0.000 HD
ENDROOT
BRANCH   1  16
ATOM     14  C   UNL     1       2.398   8.786  17.603  0.00  0.00    +0.000 C 
ATOM     15  C   UNL     1       2.244   7.924  18.807  0.00  0.00    +0.000 A 
ATOM     16  C   UNL     1       1.491   8.104  19.958  0.00  0.00    +0.000 A 
ATOM     17  C   UNL     1       1.598   6.875  20.635  0.00  0.00    +0.000 A 
ATOM     18  N   UNL     1       2.391   5.999  20.024  0.00  0.00    +0.000 NA
ATOM     19  N   UNL     1       2.841   6.663  18.917  0.00  0.00    +0.000 N 
ATOM     20  C   UNL     1       3.799   6.061  18.052  0.00  0.00    +0.000 A 
ATOM     21  C   UNL     1       4.198   4.753  18.247  0.00  0.00    +0.000 A 
ATOM     22  C   UNL     1       5.154   4.189  17.412  0.00  0.00    +0.000 A 
ATOM     23  C   UNL     1       5.701   4.960  16.392  0.00  0.00    +0.000 A 
ATOM     24  C   UNL     1       5.252   6.260  16.247  0.00  0.00    +0.000 A 
ATOM     25  N   UNL     1       4.324   6.825  17.045  0.00  0.00    +0.000 NA
ENDBRANCH   1  16
BRANCH  12  26
ATOM     26  C   UNL     1       1.218  12.571  20.545  0.00  0.00    +0.000 C 
ATOM     27  C   UNL     1       1.713  13.940  21.000  0.00  0.00    +0.000 C 
ATOM     28  C   UNL     1       2.426  14.533  19.798  0.00  0.00    +0.000 C 
ATOM     29  C   UNL     1       2.035  13.679  18.594  0.00  0.00    +0.000 C 
ATOM     30  C   UNL     1       0.937  12.746  19.061  0.00  0.00    +0.000 C 
ENDBRANCH  12  26
TORSDOF 2
ENDMDL
MODEL 4
REMARK VINA RESULT:      -8.8      1.778      3.754
REMARK  Name = 
REMARK  3 active torsions:
REMARK  status: ('A' for Active; 'I' for Inactive)
REMARK    1  A    between atoms: C_1  and  C_2
REMARK    2  A    between atoms: C_3  and  C_4
REMARK    3  A    between atoms: N_15  and  C_16
REMARK                            x       y       z     vdW  Elec       q    Type
REMARK                         _______ _______ _______ _____ _____    ______ ____
ROOT
ATOM      1  C   UNL     1       2.379   7.232  19.215  0.00  0.00    +0.000 C 
ATOM      2  O   UNL     1       2.709   6.673  20.253  0.00  0.00    +0.000 OA
ATOM      3  N   UNL     1       2.488   6.695  17.945  0.00  0.00    +0.000 N 
ATOM      4  C   UNL     1       3.107   5.500  17.776  0.00  0.00    +0.000 A 
ATOM      5  N   UNL     1       2.604   4.466  17.146  0.00  0.00    +0.000 NA
ATOM      6  C   UNL     1       3.198   3.413  17.801  0.00  0.00    +0.000 A 
ATOM      7  C   UNL     1       2.823   2.068  17.816  0.00  0.00    +0.000 A 
ATOM      8  C   UNL     1       3.044   1.414  19.026  0.00  0.00    +0.000 A 
ATOM      9  C   UNL     1       4.097   1.824  19.841  0.00  0.00    +0.000 A 
ATOM     10  C   UNL     1       4.831   2.982  19.563  0.00  0.00    +0.000 A 
ATOM     11  C   UNL     1       4.227   3.830  18.638  0.00  0.00    +0.000 A 
ATOM     12  N   UNL     1       4.319   5.161  18.316  0.00  0.00    +0.000 N 
ATOM     13  H   UNL     1       1.669   6.833  17.358  0.00  0.00    +0.000 HD
ENDROOT
BRANCH   1  16
ATOM     14  C   UNL     1       0.664   8.640  21.606  0.00  0.00    +0.000 C 
ATOM     15  C   UNL     1       1.072   9.161  20.272  0.00  0.00    +0.000 A 
ATOM     16  C   UNL     1       1.785   8.558  19.245  0.00  0.00    +0.000 A 
ATOM     17  C   UNL     1       1.685   9.469  18.177  0.00  0.00    +0.000 A 
ATOM     18  N   UNL     1       1.029  10.583  18.489  0.00  0.00    +0.000 NA
ATOM     19  N   UNL     1       0.694  10.424  19.804  0.00  0.00    +0.000 N 
ATOM     20  C   UNL     1       0.047  11.473  20.518  0.00  0.00    +0.000 A 
ATOM     21  C   UNL     1      -0.361  12.620  19.866  0.00  0.00    +0.000 A 
ATOM     22  C   UNL     1      -0.964  13.645  20.582  0.00  0.00    +0.000 A 
ATOM     23  C   UNL     1      -1.141  13.501  21.953  0.00  0.00    +0.000 A 
ATOM     24  C   UNL     1      -0.716  12.325  22.544  0.00  0.00    +0.000 A 
ATOM     25  N   UNL     1      -0.130  11.316  21.866  0.00  0.00    +0.000 NA
ENDBRANCH   1  16
BRANCH  12  26
ATOM     26  C   UNL     1       5.455   6.066  18.413  0.00  0.00    +0.000 C 
ATOM     27  C   UNL     1       5.932   6.680  17.100  0.00  0.00    +0.000 C 
ATOM     28  C   UNL     1       7.355   7.139  17.362  0.00  0.00    +0.000 C 
ATOM     29  C   UNL     1       7.792   6.483  18.669  0.00  0.00    +0.000 C 
ATOM     30  C   UNL     1       6.715   5.485  19.036  0.00  0.00    +0.000 C 
ENDBRANCH  12  26
TORSDOF 2
ENDMDL
MODEL 5
REMARK VINA RESULT:      -8.6      2.125      8.762
REMARK  Name = 
REMARK  3 active torsions:
REMARK  status: ('A' for Active; 'I' for Inactive)
REMARK    1  A    between atoms: C_1  and  C_2
REMARK    2  A    between atoms: C_3  and  C_4
REMARK    3  A    between atoms: N_15  and  C_16
REMARK                            x       y       z     vdW  Elec       q    Type
REMARK                         _______ _______ _______ _____ _____    ______ ____
ROOT
ATOM      1  C   UNL     1       0.736   9.091  20.522  0.00  0.00    +0.000 C 
ATOM      2  O   UNL     1      -0.152   8.911  21.347  0.00  0.00    +0.000 OA
ATOM      3  N   UNL     1       1.075  10.308  19.962  0.00  0.00    +0.000 N 
ATOM      4  C   UNL     1       0.320  11.403  20.233  0.00  0.00    +0.000 A 
ATOM      5  N   UNL     1       0.774  12.549  20.679  0.00  0.00    +0.000 NA
ATOM      6  C   UNL     1      -0.292  13.017  21.410  0.00  0.00    +0.000 A 
ATOM      7  C   UNL     1      -0.313  14.016  22.386  0.00  0.00    +0.000 A 
ATOM      8  C   UNL     1      -1.206  13.792  23.430  0.00  0.00    +0.000 A 
ATOM      9  C   UNL     1      -2.373  13.069  23.188  0.00  0.00    +0.000 A 
ATOM     10  C   UNL     1      -2.589  12.415  21.971  0.00  0.00    +0.000 A 
ATOM     11  C   UNL     1      -1.444  12.272  21.190  0.00  0.00    +0.000 A 
ATOM     12  N   UNL     1      -1.048  11.448  20.166  0.00  0.00    +0.000 N 
ATOM     13  H   UNL     1       2.075  10.487  19.916  0.00  0.00    +0.000 HD
ENDROOT
BRANCH   1  16
ATOM     14  C   UNL     1       2.319   8.751  17.691  0.00  0.00    +0.000 C 
ATOM     15  C   UNL     1       2.252   7.852  18.876  0.00  0.00    +0.000 A 
ATOM     16  C   UNL     1       1.564   7.985  20.074  0.00  0.00    +0.000 A 
ATOM     17  C   UNL     1       1.734   6.739  20.706  0.00  0.00    +0.000 A 
ATOM     18  N   UNL     1       2.506   5.898  20.025  0.00  0.00    +0.000 NA
ATOM     19  N   UNL     1       2.878   6.602  18.914  0.00  0.00    +0.000 N 
ATOM     20  C   UNL     1       3.794   6.044  17.977  0.00  0.00    +0.000 A 
ATOM     21  C   UNL     1       4.229   4.739  18.109  0.00  0.00    +0.000 A 
ATOM     22  C   UNL     1       5.144   4.220  17.204  0.00  0.00    +0.000 A 
ATOM     23  C   UNL     1       5.616   5.030  16.177  0.00  0.00    +0.000 A 
ATOM     24  C   UNL     1       5.135   6.324  16.097  0.00  0.00    +0.000 A 
ATOM     25  N   UNL     1       4.245   6.847  16.964  0.00  0.00    +0.000 NA
ENDBRANCH   1  16
BRANCH  12  26
ATOM     26  C   UNL     1      -1.840  10.796  19.135  0.00  0.00    +0.000 C 
ATOM     27  C   UNL     1      -1.076  10.347  17.893  0.00  0.00    +0.000 C 
ATOM     28  C   UNL     1      -2.127  10.183  16.809  0.00  0.00    +0.000 C 
ATOM     29  C   UNL     1      -3.393  10.863  17.323  0.00  0.00    +0.000 C 
ATOM     30  C   UNL     1      -3.008  11.601  18.588  0.00  0.00    +0.000 C 
ENDBRANCH  12  26
TORSDOF 2
ENDMDL
MODEL 6
REMARK VINA RESULT:      -8.6      2.283      9.575
REMARK  Name = 
REMARK  3 active torsions:
REMARK  status: ('A' for Active; 'I' for Inactive)
REMARK    1  A    between atoms: C_1  and  C_2
REMARK    2  A    between atoms: C_3  and  C_4
REMARK    3  A    between atoms: N_15  and  C_16
REMARK                            x       y       z     vdW  Elec       q    Type
REMARK                         _______ _______ _______ _____ _____    ______ ____
ROOT
ATOM      1  C   UNL     1       0.447  10.239  19.682  0.00  0.00    +0.000 C 
ATOM      2  O   UNL     1      -0.480  10.765  19.080  0.00  0.00    +0.000 OA
ATOM      3  N   UNL     1       0.760  10.447  21.013  0.00  0.00    +0.000 N 
ATOM      4  C   UNL     1       0.081  11.385  21.720  0.00  0.00    +0.000 A 
ATOM      5  N   UNL     1      -0.518  11.185  22.870  0.00  0.00    +0.000 NA
ATOM      6  C   UNL     1      -1.550  12.092  22.819  0.00  0.00    +0.000 A 
ATOM      7  C   UNL     1      -2.718  12.133  23.584  0.00  0.00    +0.000 A 
ATOM      8  C   UNL     1      -3.844  12.590  22.905  0.00  0.00    +0.000 A 
ATOM      9  C   UNL     1      -3.692  13.508  21.869  0.00  0.00    +0.000 A 
ATOM     10  C   UNL     1      -2.429  13.853  21.376  0.00  0.00    +0.000 A 
ATOM     11  C   UNL     1      -1.410  12.985  21.763  0.00  0.00    +0.000 A 
ATOM     12  N   UNL     1      -0.159  12.665  21.297  0.00  0.00    +0.000 N 
ATOM     13  H   UNL     1       0.973   9.600  21.533  0.00  0.00    +0.000 HD
ENDROOT
BRANCH   1  16
ATOM     14  C   UNL     1       1.605   7.410  20.820  0.00  0.00    +0.000 C 
ATOM     15  C   UNL     1       1.788   8.068  19.496  0.00  0.00    +0.000 A 
ATOM     16  C   UNL     1       1.313   9.281  19.016  0.00  0.00    +0.000 A 
ATOM     17  C   UNL     1       1.973   9.444  17.784  0.00  0.00    +0.000 A 
ATOM     18  N   UNL     1       2.752   8.417  17.459  0.00  0.00    +0.000 NA
ATOM     19  N   UNL     1       2.599   7.534  18.490  0.00  0.00    +0.000 N 
ATOM     20  C   UNL     1       3.226   6.255  18.447  0.00  0.00    +0.000 A 
ATOM     21  C   UNL     1       4.094   5.932  17.423  0.00  0.00    +0.000 A 
ATOM     22  C   UNL     1       4.674   4.671  17.379  0.00  0.00    +0.000 A 
ATOM     23  C   UNL     1       4.362   3.748  18.371  0.00  0.00    +0.000 A 
ATOM     24  C   UNL     1       3.491   4.137  19.372  0.00  0.00    +0.000 A 
ATOM     25  N   UNL     1       2.919   5.357  19.433  0.00  0.00    +0.000 NA
ENDBRANCH   1  16
BRANCH  12  26
ATOM     26  C   UNL     1       0.804  13.485  20.578  0.00  0.00    +0.000 C 
ATOM     27  C   UNL     1       1.351  14.691  21.335  0.00  0.00    +0.000 C 
ATOM     28  C   UNL     1       1.895  15.625  20.270  0.00  0.00    +0.000 C 
ATOM     29  C   UNL     1       1.351  15.128  18.934  0.00  0.00    +0.000 C 
ATOM     30  C   UNL     1       0.328  14.057  19.252  0.00  0.00    +0.000 C 
ENDBRANCH  12  26
TORSDOF 2
ENDMDL
MODEL 7
REMARK VINA RESULT:      -8.4      1.651      3.928
REMARK  Name = 
REMARK  3 active torsions:
REMARK  status: ('A' for Active; 'I' for Inactive)
REMARK    1  A    between atoms: C_1  and  C_2
REMARK    2  A    between atoms: C_3  and  C_4
REMARK    3  A    between atoms: N_15  and  C_16
REMARK                            x       y       z     vdW  Elec       q    Type
REMARK                         _______ _______ _______ _____ _____    ______ ____
ROOT
ATOM      1  C   UNL     1       2.206   7.546  18.992  0.00  0.00    +0.000 C 
ATOM      2  O   UNL     1       2.640   7.118  20.054  0.00  0.00    +0.000 OA
ATOM      3  N   UNL     1       1.991   6.795  17.851  0.00  0.00    +0.000 N 
ATOM      4  C   UNL     1       2.380   5.496  17.823  0.00  0.00    +0.000 A 
ATOM      5  N   UNL     1       1.618   4.480  17.496  0.00  0.00    +0.000 NA
ATOM      6  C   UNL     1       2.161   3.460  18.242  0.00  0.00    +0.000 A 
ATOM      7  C   UNL     1       1.598   2.228  18.580  0.00  0.00    +0.000 A 
ATOM      8  C   UNL     1       1.944   1.756  19.844  0.00  0.00    +0.000 A 
ATOM      9  C   UNL     1       3.181   2.096  20.385  0.00  0.00    +0.000 A 
ATOM     10  C   UNL     1       4.014   3.039  19.773  0.00  0.00    +0.000 A 
ATOM     11  C   UNL     1       3.380   3.817  18.807  0.00  0.00    +0.000 A 
ATOM     12  N   UNL     1       3.608   5.036  18.220  0.00  0.00    +0.000 N 
ATOM     13  H   UNL     1       1.106   6.979  17.386  0.00  0.00    +0.000 HD
ENDROOT
BRANCH   1  16
ATOM     14  C   UNL     1       0.055   9.260  20.745  0.00  0.00    +0.000 C 
ATOM     15  C   UNL     1       0.932   9.675  19.616  0.00  0.00    +0.000 A 
ATOM     16  C   UNL     1       1.834   8.944  18.855  0.00  0.00    +0.000 A 
ATOM     17  C   UNL     1       2.208   9.827  17.825  0.00  0.00    +0.000 A 
ATOM     18  N   UNL     1       1.659  11.033  17.933  0.00  0.00    +0.000 NA
ATOM     19  N   UNL     1       0.910  10.964  19.073  0.00  0.00    +0.000 N 
ATOM     20  C   UNL     1       0.233  12.118  19.565  0.00  0.00    +0.000 A 
ATOM     21  C   UNL     1       0.222  13.291  18.836  0.00  0.00    +0.000 A 
ATOM     22  C   UNL     1      -0.417  14.415  19.343  0.00  0.00    +0.000 A 
ATOM     23  C   UNL     1      -1.033  14.339  20.587  0.00  0.00    +0.000 A 
ATOM     24  C   UNL     1      -0.992  13.133  21.261  0.00  0.00    +0.000 A 
ATOM     25  N   UNL     1      -0.379  12.030  20.786  0.00  0.00    +0.000 NA
ENDBRANCH   1  16
BRANCH  12  26
ATOM     26  C   UNL     1       4.864   5.723  17.956  0.00  0.00    +0.000 C 
ATOM     27  C   UNL     1       5.496   5.455  16.594  0.00  0.00    +0.000 C 
ATOM     28  C   UNL     1       6.959   5.835  16.745  0.00  0.00    +0.000 C 
ATOM     29  C   UNL     1       7.222   5.971  18.242  0.00  0.00    +0.000 C 
ATOM     30  C   UNL     1       5.985   5.458  18.950  0.00  0.00    +0.000 C 
ENDBRANCH  12  26
TORSDOF 2
ENDMDL
MODEL 8
REMARK VINA RESULT:      -8.3      2.284      9.380
REMARK  Name = 
REMARK  3 active torsions:
REMARK  status: ('A' for Active; 'I' for Inactive)
REMARK    1  A    between atoms: C_1  and  C_2
REMARK    2  A    between atoms: C_3  and  C_4
REMARK    3  A    between atoms: N_15  and  C_16
REMARK                            x       y       z     vdW  Elec       q    Type
REMARK                         _______ _______ _______ _____ _____    ______ ____
ROOT
ATOM      1  C   UNL     1       0.200  10.285  19.539  0.00  0.00    +0.000 C 
ATOM      2  O   UNL     1      -0.507   9.921  20.471  0.00  0.00    +0.000 OA
ATOM      3  N   UNL     1       0.208  11.552  18.985  0.00  0.00    +0.000 N 
ATOM      4  C   UNL     1      -0.701  12.469  19.401  0.00  0.00    +0.000 A 
ATOM      5  N   UNL     1      -0.423  13.678  19.824  0.00  0.00    +0.000 NA
ATOM      6  C   UNL     1      -1.445  13.914  20.714  0.00  0.00    +0.000 A 
ATOM      7  C   UNL     1      -1.523  14.878  21.722  0.00  0.00    +0.000 A 
ATOM      8  C   UNL     1      -2.196  14.467  22.870  0.00  0.00    +0.000 A 
ATOM      9  C   UNL     1      -3.218  13.528  22.763  0.00  0.00    +0.000 A 
ATOM     10  C   UNL     1      -3.473  12.856  21.563  0.00  0.00    +0.000 A 
ATOM     11  C   UNL     1      -2.447  12.955  20.626  0.00  0.00    +0.000 A 
ATOM     12  N   UNL     1      -2.046  12.239  19.526  0.00  0.00    +0.000 N 
ATOM     13  H   UNL     1       1.136  11.929  18.810  0.00  0.00    +0.000 HD
ENDROOT
BRANCH   1  16
ATOM     14  C   UNL     1       1.557   7.615  20.831  0.00  0.00    +0.000 C 
ATOM     15  C   UNL     1       1.718   8.227  19.483  0.00  0.00    +0.000 A 
ATOM     16  C   UNL     1       1.158   9.373  18.938  0.00  0.00    +0.000 A 
ATOM     17  C   UNL     1       1.833   9.536  17.714  0.00  0.00    +0.000 A 
ATOM     18  N   UNL     1       2.702   8.563  17.453  0.00  0.00    +0.000 NA
ATOM     19  N   UNL     1       2.595   7.717  18.521  0.00  0.00    +0.000 N 
ATOM     20  C   UNL     1       3.326   6.494  18.550  0.00  0.00    +0.000 A 
ATOM     21  C   UNL     1       4.243   6.198  17.561  0.00  0.00    +0.000 A 
ATOM     22  C   UNL     1       4.925   4.989  17.589  0.00  0.00    +0.000 A 
ATOM     23  C   UNL     1       4.665   4.088  18.615  0.00  0.00    +0.000 A 
ATOM     24  C   UNL     1       3.740   4.448  19.578  0.00  0.00    +0.000 A 
ATOM     25  N   UNL     1       3.068   5.618  19.570  0.00  0.00    +0.000 NA
ENDBRANCH   1  16
BRANCH  12  26
ATOM     26  C   UNL     1      -2.833  11.452  18.589  0.00  0.00    +0.000 C 
ATOM     27  C   UNL     1      -2.370  11.486  17.136  0.00  0.00    +0.000 C 
ATOM     28  C   UNL     1      -3.571  11.049  16.317  0.00  0.00    +0.000 C 
ATOM     29  C   UNL     1      -4.779  11.112  17.248  0.00  0.00    +0.000 C 
ATOM     30  C   UNL     1      -4.314  11.790  18.520  0.00  0.00    +0.000 C 
ENDBRANCH  12  26
TORSDOF 2
ENDMDL
MODEL 9
REMARK VINA RESULT:      -8.3      2.165      8.656
REMARK  Name = 
REMARK  3 active torsions:
REMARK  status: ('A' for Active; 'I' for Inactive)
REMARK    1  A    between atoms: C_1  and  C_2
REMARK    2  A    between atoms: C_3  and  C_4
REMARK    3  A    between atoms: N_15  and  C_16
REMARK                            x       y       z     vdW  Elec       q    Type
REMARK                         _______ _______ _______ _____ _____    ______ ____
ROOT
ATOM      1  C   UNL     1       1.517   9.182  19.368  0.00  0.00    +0.000 C 
ATOM      2  O   UNL     1       1.029   9.201  20.491  0.00  0.00    +0.000 OA
ATOM      3  N   UNL     1       1.581  10.259  18.503  0.00  0.00    +0.000 N 
ATOM      4  C   UNL     1       0.968  11.423  18.838  0.00  0.00    +0.000 A 
ATOM      5  N   UNL     1       1.535  12.605  18.849  0.00  0.00    +0.000 NA
ATOM      6  C   UNL     1       0.832  13.253  19.837  0.00  0.00    +0.000 A 
ATOM      7  C   UNL     1       1.174  14.411  20.539  0.00  0.00    +0.000 A 
ATOM      8  C   UNL     1       0.768  14.426  21.871  0.00  0.00    +0.000 A 
ATOM      9  C   UNL     1      -0.382  13.735  22.243  0.00  0.00    +0.000 A 
ATOM     10  C   UNL     1      -1.045  12.884  21.352  0.00  0.00    +0.000 A 
ATOM     11  C   UNL     1      -0.297  12.542  20.228  0.00  0.00    +0.000 A 
ATOM     12  N   UNL     1      -0.316  11.528  19.304  0.00  0.00    +0.000 N 
ATOM     13  H   UNL     1       2.478  10.374  18.039  0.00  0.00    +0.000 HD
ENDROOT
BRANCH   1  16
ATOM     14  C   UNL     1       1.503   6.183  20.649  0.00  0.00    +0.000 C 
ATOM     15  C   UNL     1       2.103   6.692  19.384  0.00  0.00    +0.000 A 
ATOM     16  C   UNL     1       2.127   7.971  18.847  0.00  0.00    +0.000 A 
ATOM     17  C   UNL     1       2.998   7.864  17.747  0.00  0.00    +0.000 A 
ATOM     18  N   UNL     1       3.450   6.629  17.545  0.00  0.00    +0.000 NA
ATOM     19  N   UNL     1       2.854   5.885  18.524  0.00  0.00    +0.000 N 
ATOM     20  C   UNL     1       3.036   4.473  18.571  0.00  0.00    +0.000 A 
ATOM     21  C   UNL     1       3.911   3.847  17.705  0.00  0.00    +0.000 A 
ATOM     22  C   UNL     1       4.056   2.467  17.744  0.00  0.00    +0.000 A 
ATOM     23  C   UNL     1       3.305   1.734  18.656  0.00  0.00    +0.000 A 
ATOM     24  C   UNL     1       2.452   2.422  19.500  0.00  0.00    +0.000 A 
ATOM     25  N   UNL     1       2.299   3.762  19.479  0.00  0.00    +0.000 NA
ENDBRANCH   1  16
BRANCH  12  26
ATOM     26  C   UNL     1      -1.435  10.743  18.805  0.00  0.00    +0.000 C 
ATOM     27  C   UNL     1      -1.246  10.116  17.427  0.00  0.00    +0.000 C 
ATOM     28  C   UNL     1      -2.647   9.810  16.926  0.00  0.00    +0.000 C 
ATOM     29  C   UNL     1      -3.610  10.567  17.836  0.00  0.00    +0.000 C 
ATOM     30  C   UNL     1      -2.765  11.473  18.707  0.00  0.00    +0.000 C 
ENDBRANCH  12  26
TORSDOF 2
ENDMDL
