MODEL 1
REMARK VINA RESULT:      -8.8      0.000      0.000
REMARK  Name = 
REMARK  3 active torsions:
REMARK  status: ('A' for Active; 'I' for Inactive)
REMARK    1  A    between atoms: C_1  and  C_2
REMARK    2  A    between atoms: C_6  and  C_7
REMARK    3  A    between atoms: C_11  and  C_13
REMARK                            x       y       z     vdW  Elec       q    Type
REMARK                         _______ _______ _______ _____ _____    ______ ____
ROOT
ATOM      1  C   UNL     1       3.340   4.717  18.416  0.00  0.00    +0.000 C 
ATOM      2  C   UNL     1       4.556   3.958  19.002  0.00  0.00    +0.000 C 
ATOM      3  C   UNL     1       5.911   4.638  18.787  0.00  0.00    +0.000 C 
ATOM      4  N   UNL     1       6.035   5.143  17.429  0.00  0.00    +0.000 N 
ATOM      5  C   UNL     1       7.104   4.727  16.614  0.00  0.00    +0.000 C 
ATOM      6  O   UNL     1       8.017   4.025  17.054  0.00  0.00    +0.000 OA
ATOM      7  C   UNL     1       4.969   6.067  17.049  0.00  0.00    +0.000 C 
ATOM      8  C   UNL     1       3.648   5.316  17.035  0.00  0.00    +0.000 C 
ENDROOT
BRANCH   1  14
ATOM      9  C   UNL     1       0.471  10.971  18.983  0.00  0.00    +0.000 C 
ATOM     10  C   UNL     1       1.181   9.648  19.016  0.00  0.00    +0.000 A 
ATOM     11  C   UNL     1       1.868   9.167  17.897  0.00  0.00    +0.000 A 
ATOM     12  C   UNL     1       2.458   7.895  17.899  0.00  0.00    +0.000 A 
ATOM     13  C   UNL     1       2.368   7.085  19.052  0.00  0.00    +0.000 A 
ATOM     14  C   UNL     1       2.752   5.735  19.373  0.00  0.00    +0.000 A 
ATOM     15  C   UNL     1       2.444   5.554  20.710  0.00  0.00    +0.000 A 
ATOM     16  N   UNL     1       1.839   6.687  21.178  0.00  0.00    +0.000 N 
ATOM     17  C   UNL     1       1.744   7.621  20.178  0.00  0.00    +0.000 A 
ATOM     18  C   UNL     1       1.142   8.884  20.191  0.00  0.00    +0.000 A 
ATOM     19  H   UNL     1       1.490   6.818  22.117  0.00  0.00    +0.000 HD
ENDBRANCH   1  14
BRANCH   5  20
ATOM     20  C   UNL     1       7.185   5.298  15.255  0.00  0.00    +0.000 A 
ATOM     21  N   UNL     1       8.252   5.990  14.775  0.00  0.00    +0.000 NA
ATOM     22  N   UNL     1       8.265   5.696  13.449  0.00  0.00    +0.000 N 
ATOM     23  C   UNL     1       7.197   4.937  13.115  0.00  0.00    +0.000 A 
ATOM     24  C   UNL     1       6.348   4.921  14.186  0.00  0.00    +0.000 A 
ATOM     25  C   UNL     1       5.240   3.972  13.957  0.00  0.00    +0.000 C 
ATOM     26  C   UNL     1       5.970   2.964  13.016  0.00  0.00    +0.000 C 
ATOM     27  C   UNL     1       6.954   3.843  12.149  0.00  0.00    +0.000 C 
ATOM     28  H   UNL     1       9.099   5.914  12.918  0.00  0.00    +0.000 HD
ENDBRANCH   5  20
TORSDOF 2
ENDMDL
MODEL 2
REMARK VINA RESULT:      -8.5      1.770      2.797
REMARK  Name = 
REMARK  3 active torsions:
REMARK  status: ('A' for Active; 'I' for Inactive)
REMARK    1  A    between atoms: C_1  and  C_2
REMARK    2  A    between atoms: C_6  and  C_7
REMARK    3  A    between atoms: C_11  and  C_13
REMARK                            x       y       z     vdW  Elec       q    Type
REMARK                         _______ _______ _______ _____ _____    ______ ____
ROOT
ATOM      1  C   UNL     1       1.845   6.836  18.892  0.00  0.00    +0.000 C 
ATOM      2  C   UNL     1       1.814   5.391  19.447  0.00  0.00    +0.000 C 
ATOM      3  C   UNL     1       3.122   4.913  20.085  0.00  0.00    +0.000 C 
ATOM      4  N   UNL     1       4.268   5.288  19.273  0.00  0.00    +0.000 N 
ATOM      5  C   UNL     1       5.161   4.304  18.809  0.00  0.00    +0.000 C 
ATOM      6  O   UNL     1       5.066   3.127  19.164  0.00  0.00    +0.000 OA
ATOM      7  C   UNL     1       4.358   6.723  19.016  0.00  0.00    +0.000 C 
ATOM      8  C   UNL     1       3.166   7.148  18.172  0.00  0.00    +0.000 C 
ENDROOT
BRANCH   1  14
ATOM      9  C   UNL     1      -0.746  13.155  19.901  0.00  0.00    +0.000 C 
ATOM     10  C   UNL     1      -0.065  11.819  19.816  0.00  0.00    +0.000 A 
ATOM     11  C   UNL     1       0.366  11.304  18.590  0.00  0.00    +0.000 A 
ATOM     12  C   UNL     1       0.924  10.020  18.498  0.00  0.00    +0.000 A 
ATOM     13  C   UNL     1       1.063   9.234  19.662  0.00  0.00    +0.000 A 
ATOM     14  C   UNL     1       1.485   7.883  19.927  0.00  0.00    +0.000 A 
ATOM     15  C   UNL     1       1.460   7.734  21.302  0.00  0.00    +0.000 A 
ATOM     16  N   UNL     1       0.983   8.888  21.860  0.00  0.00    +0.000 N 
ATOM     17  C   UNL     1       0.696   9.804  20.880  0.00  0.00    +0.000 A 
ATOM     18  C   UNL     1       0.130  11.078  20.991  0.00  0.00    +0.000 A 
ATOM     19  H   UNL     1       0.840   9.043  22.848  0.00  0.00    +0.000 HD
ENDBRANCH   1  14
BRANCH   5  20
ATOM     20  C   UNL     1       6.319   4.756  18.012  0.00  0.00    +0.000 A 
ATOM     21  N   UNL     1       7.609   4.420  18.274  0.00  0.00    +0.000 NA
ATOM     22  N   UNL     1       8.194   4.381  17.049  0.00  0.00    +0.000 N 
ATOM     23  C   UNL     1       7.324   4.771  16.089  0.00  0.00    +0.000 A 
ATOM     24  C   UNL     1       6.226   5.292  16.713  0.00  0.00    +0.000 A 
ATOM     25  C   UNL     1       5.160   5.583  15.732  0.00  0.00    +0.000 C 
ATOM     26  C   UNL     1       5.507   4.500  14.664  0.00  0.00    +0.000 C 
ATOM     27  C   UNL     1       7.082   4.389  14.681  0.00  0.00    +0.000 C 
ATOM     28  H   UNL     1       9.098   3.934  16.963  0.00  0.00    +0.000 HD
ENDBRANCH   5  20
TORSDOF 2
ENDMDL
MODEL 3
REMARK VINA RESULT:      -8.3      4.080      8.553
REMARK  Name = 
REMARK  3 active torsions:
REMARK  status: ('A' for Active; 'I' for Inactive)
REMARK    1  A    between atoms: C_1  and  C_2
REMARK    2  A    between atoms: C_6  and  C_7
REMARK    3  A    between atoms: C_11  and  C_13
REMARK                            x       y       z     vdW  Elec       q    Type
REMARK                         _______ _______ _______ _____ _____    ______ ____
ROOT
ATOM      1  C   UNL     1       2.099   8.661  20.055  0.00  0.00    +0.000 C 
ATOM      2  C   UNL     1       1.388   8.965  21.397  0.00  0.00    +0.000 C 
ATOM      3  C   UNL     1      -0.133   9.114  21.306  0.00  0.00    +0.000 C 
ATOM      4  N   UNL     1      -0.513   9.919  20.156  0.00  0.00    +0.000 N 
ATOM      5  C   UNL     1      -1.292  11.079  20.330  0.00  0.00    +0.000 C 
ATOM      6  O   UNL     1      -1.764  11.381  21.427  0.00  0.00    +0.000 OA
ATOM      7  C   UNL     1      -0.006   9.402  18.887  0.00  0.00    +0.000 C 
ATOM      8  C   UNL     1       1.512   9.480  18.895  0.00  0.00    +0.000 C 
ENDROOT
BRANCH   1  14
ATOM      9  C   UNL     1       5.244   3.831  16.255  0.00  0.00    +0.000 C 
ATOM     10  C   UNL     1       4.406   4.786  17.056  0.00  0.00    +0.000 A 
ATOM     11  C   UNL     1       4.462   6.164  16.827  0.00  0.00    +0.000 A 
ATOM     12  C   UNL     1       3.745   7.063  17.631  0.00  0.00    +0.000 A 
ATOM     13  C   UNL     1       2.946   6.573  18.685  0.00  0.00    +0.000 A 
ATOM     14  C   UNL     1       2.177   7.180  19.741  0.00  0.00    +0.000 A 
ATOM     15  C   UNL     1       1.562   6.142  20.417  0.00  0.00    +0.000 A 
ATOM     16  N   UNL     1       1.974   4.958  19.871  0.00  0.00    +0.000 N 
ATOM     17  C   UNL     1       2.849   5.190  18.841  0.00  0.00    +0.000 A 
ATOM     18  C   UNL     1       3.563   4.279  18.055  0.00  0.00    +0.000 A 
ATOM     19  H   UNL     1       1.697   4.040  20.190  0.00  0.00    +0.000 HD
ENDBRANCH   1  14
BRANCH   5  20
ATOM     20  C   UNL     1      -1.664  11.835  19.118  0.00  0.00    +0.000 A 
ATOM     21  N   UNL     1      -0.866  12.750  18.508  0.00  0.00    +0.000 NA
ATOM     22  N   UNL     1      -1.190  12.646  17.193  0.00  0.00    +0.000 N 
ATOM     23  C   UNL     1      -2.210  11.775  17.018  0.00  0.00    +0.000 A 
ATOM     24  C   UNL     1      -2.716  11.476  18.252  0.00  0.00    +0.000 A 
ATOM     25  C   UNL     1      -3.723  10.399  18.153  0.00  0.00    +0.000 C 
ATOM     26  C   UNL     1      -3.171   9.661  16.895  0.00  0.00    +0.000 C 
ATOM     27  C   UNL     1      -2.582  10.798  15.971  0.00  0.00    +0.000 C 
ATOM     28  H   UNL     1      -0.570  13.066  16.512  0.00  0.00    +0.000 HD
ENDBRANCH   5  20
TORSDOF 2
ENDMDL
MODEL 4
REMARK VINA RESULT:      -8.3      3.620      5.938
REMARK  Name = 
REMARK  3 active torsions:
REMARK  status: ('A' for Active; 'I' for Inactive)
REMARK    1  A    between atoms: C_1  and  C_2
REMARK    2  A    between atoms: C_6  and  C_7
REMARK    3  A    between atoms: C_11  and  C_13
REMARK                            x       y       z     vdW  Elec       q    Type
REMARK                         _______ _______ _______ _____ _____    ______ ____
ROOT
ATOM      1  C   UNL     1       0.647   9.921  18.810  0.00  0.00    +0.000 C 
ATOM      2  C   UNL     1       0.564   9.237  20.198  0.00  0.00    +0.000 C 
ATOM      3  C   UNL     1       1.779   8.384  20.575  0.00  0.00    +0.000 C 
ATOM      4  N   UNL     1       2.211   7.564  19.455  0.00  0.00    +0.000 N 
ATOM      5  C   UNL     1       2.292   6.165  19.591  0.00  0.00    +0.000 C 
ATOM      6  O   UNL     1       2.112   5.611  20.677  0.00  0.00    +0.000 OA
ATOM      7  C   UNL     1       2.521   8.333  18.252  0.00  0.00    +0.000 C 
ATOM      8  C   UNL     1       1.247   8.989  17.746  0.00  0.00    +0.000 C 
ENDROOT
BRANCH   1  14
ATOM      9  C   UNL     1       1.408  15.780  22.381  0.00  0.00    +0.000 C 
ATOM     10  C   UNL     1       1.247  14.609  21.454  0.00  0.00    +0.000 A 
ATOM     11  C   UNL     1       0.245  13.656  21.661  0.00  0.00    +0.000 A 
ATOM     12  C   UNL     1       0.147  12.517  20.846  0.00  0.00    +0.000 A 
ATOM     13  C   UNL     1       1.069  12.331  19.794  0.00  0.00    +0.000 A 
ATOM     14  C   UNL     1       1.329  11.274  18.851  0.00  0.00    +0.000 A 
ATOM     15  C   UNL     1       2.338  11.734  18.024  0.00  0.00    +0.000 A 
ATOM     16  N   UNL     1       2.737  12.966  18.463  0.00  0.00    +0.000 N 
ATOM     17  C   UNL     1       2.008  13.336  19.564  0.00  0.00    +0.000 A 
ATOM     18  C   UNL     1       2.127  14.473  20.371  0.00  0.00    +0.000 A 
ATOM     19  H   UNL     1       3.477  13.520  18.055  0.00  0.00    +0.000 HD
ENDBRANCH   1  14
BRANCH   5  20
ATOM     20  C   UNL     1       2.764   5.395  18.424  0.00  0.00    +0.000 A 
ATOM     21  N   UNL     1       3.992   5.534  17.857  0.00  0.00    +0.000 NA
ATOM     22  N   UNL     1       4.284   4.291  17.395  0.00  0.00    +0.000 N 
ATOM     23  C   UNL     1       3.241   3.451  17.584  0.00  0.00    +0.000 A 
ATOM     24  C   UNL     1       2.166   4.205  17.965  0.00  0.00    +0.000 A 
ATOM     25  C   UNL     1       1.036   3.337  18.355  0.00  0.00    +0.000 C 
ATOM     26  C   UNL     1       1.838   2.093  18.847  0.00  0.00    +0.000 C 
ATOM     27  C   UNL     1       3.102   2.014  17.904  0.00  0.00    +0.000 C 
ATOM     28  H   UNL     1       5.241   4.090  17.133  0.00  0.00    +0.000 HD
ENDBRANCH   5  20
TORSDOF 2
ENDMDL
MODEL 5
REMARK VINA RESULT:      -8.2      3.384      6.204
REMARK  Name = 
REMARK  3 active torsions:
REMARK  status: ('A' for Active; 'I' for Inactive)
REMARK    1  A    between atoms: C_1  and  C_2
REMARK    2  A    between atoms: C_6  and  C_7
REMARK    3  A    between atoms: C_11  and  C_13
REMARK                            x       y       z     vdW  Elec       q    Type
REMARK                         _______ _______ _______ _____ _____    ______ ____
ROOT
ATOM      1  C   UNL     1      -0.180   9.955  19.783  0.00  0.00    +0.000 C 
ATOM      2  C   UNL     1      -0.170   8.983  20.989  0.00  0.00    +0.000 C 
ATOM      3  C   UNL     1       1.182   8.327  21.283  0.00  0.00    +0.000 C 
ATOM      4  N   UNL     1       1.822   7.873  20.059  0.00  0.00    +0.000 N 
ATOM      5  C   UNL     1       2.192   6.523  19.912  0.00  0.00    +0.000 C 
ATOM      6  O   UNL     1       2.092   5.721  20.842  0.00  0.00    +0.000 OA
ATOM      7  C   UNL     1       2.009   8.931  19.069  0.00  0.00    +0.000 C 
ATOM      8  C   UNL     1       0.645   9.416  18.604  0.00  0.00    +0.000 C 
ENDROOT
BRANCH   1  14
ATOM      9  C   UNL     1      -1.191  15.092  24.283  0.00  0.00    +0.000 C 
ATOM     10  C   UNL     1      -0.965  14.103  23.175  0.00  0.00    +0.000 A 
ATOM     11  C   UNL     1      -1.771  12.969  23.042  0.00  0.00    +0.000 A 
ATOM     12  C   UNL     1      -1.508  12.002  22.060  0.00  0.00    +0.000 A 
ATOM     13  C   UNL     1      -0.415  12.177  21.184  0.00  0.00    +0.000 A 
ATOM     14  C   UNL     1       0.198  11.375  20.156  0.00  0.00    +0.000 A 
ATOM     15  C   UNL     1       1.208  12.148  19.614  0.00  0.00    +0.000 A 
ATOM     16  N   UNL     1       1.276  13.327  20.303  0.00  0.00    +0.000 N 
ATOM     17  C   UNL     1       0.324  13.354  21.291  0.00  0.00    +0.000 A 
ATOM     18  C   UNL     1       0.082  14.325  22.269  0.00  0.00    +0.000 A 
ATOM     19  H   UNL     1       1.942  14.068  20.131  0.00  0.00    +0.000 HD
ENDBRANCH   1  14
BRANCH   5  20
ATOM     20  C   UNL     1       2.862   6.135  18.655  0.00  0.00    +0.000 A 
ATOM     21  N   UNL     1       4.132   6.485  18.321  0.00  0.00    +0.000 NA
ATOM     22  N   UNL     1       4.579   5.437  17.583  0.00  0.00    +0.000 N 
ATOM     23  C   UNL     1       3.594   4.530  17.390  0.00  0.00    +0.000 A 
ATOM     24  C   UNL     1       2.423   5.095  17.812  0.00  0.00    +0.000 A 
ATOM     25  C   UNL     1       1.330   4.101  17.791  0.00  0.00    +0.000 C 
ATOM     26  C   UNL     1       2.168   2.808  18.031  0.00  0.00    +0.000 C 
ATOM     27  C   UNL     1       3.537   3.056  17.284  0.00  0.00    +0.000 C 
ATOM     28  H   UNL     1       5.574   5.362  17.409  0.00  0.00    +0.000 HD
ENDBRANCH   5  20
TORSDOF 2
ENDMDL
MODEL 6
REMARK VINA RESULT:      -8.1      2.389      3.501
REMARK  Name = 
REMARK  3 active torsions:
REMARK  status: ('A' for Active; 'I' for Inactive)
REMARK    1  A    between atoms: C_1  and  C_2
REMARK    2  A    between atoms: C_6  and  C_7
REMARK    3  A    between atoms: C_11  and  C_13
REMARK                            x       y       z     vdW  Elec       q    Type
REMARK                         _______ _______ _______ _____ _____    ______ ____
ROOT
ATOM      1  C   UNL     1       1.559   6.635  19.374  0.00  0.00    +0.000 C 
ATOM      2  C   UNL     1       1.742   5.325  20.179  0.00  0.00    +0.000 C 
ATOM      3  C   UNL     1       3.193   4.962  20.507  0.00  0.00    +0.000 C 
ATOM      4  N   UNL     1       4.056   5.159  19.354  0.00  0.00    +0.000 N 
ATOM      5  C   UNL     1       4.827   4.092  18.856  0.00  0.00    +0.000 C 
ATOM      6  O   UNL     1       4.882   3.008  19.438  0.00  0.00    +0.000 OA
ATOM      7  C   UNL     1       4.012   6.517  18.816  0.00  0.00    +0.000 C 
ATOM      8  C   UNL     1       2.618   6.786  18.272  0.00  0.00    +0.000 C 
ENDROOT
BRANCH   1  14
ATOM      9  C   UNL     1      -0.487  13.222  19.679  0.00  0.00    +0.000 C 
ATOM     10  C   UNL     1       0.101  11.840  19.714  0.00  0.00    +0.000 A 
ATOM     11  C   UNL     1       0.264  11.093  18.544  0.00  0.00    +0.000 A 
ATOM     12  C   UNL     1       0.733   9.771  18.586  0.00  0.00    +0.000 A 
ATOM     13  C   UNL     1       1.054   9.183  19.828  0.00  0.00    +0.000 A 
ATOM     14  C   UNL     1       1.454   7.867  20.252  0.00  0.00    +0.000 A 
ATOM     15  C   UNL     1       1.684   7.953  21.614  0.00  0.00    +0.000 A 
ATOM     16  N   UNL     1       1.379   9.219  22.031  0.00  0.00    +0.000 N 
ATOM     17  C   UNL     1       0.954   9.978  20.970  0.00  0.00    +0.000 A 
ATOM     18  C   UNL     1       0.481  11.294  20.949  0.00  0.00    +0.000 A 
ATOM     19  H   UNL     1       1.434   9.549  22.984  0.00  0.00    +0.000 HD
ENDBRANCH   1  14
BRANCH   5  20
ATOM     20  C   UNL     1       5.702   4.368  17.699  0.00  0.00    +0.000 A 
ATOM     21  N   UNL     1       5.284   4.380  16.406  0.00  0.00    +0.000 NA
ATOM     22  N   UNL     1       6.076   5.311  15.813  0.00  0.00    +0.000 N 
ATOM     23  C   UNL     1       7.002   5.777  16.682  0.00  0.00    +0.000 A 
ATOM     24  C   UNL     1       6.968   4.980  17.791  0.00  0.00    +0.000 A 
ATOM     25  C   UNL     1       7.834   5.531  18.853  0.00  0.00    +0.000 C 
ATOM     26  C   UNL     1       7.741   7.044  18.486  0.00  0.00    +0.000 C 
ATOM     27  C   UNL     1       7.656   7.084  16.910  0.00  0.00    +0.000 C 
ATOM     28  H   UNL     1       5.805   5.660  14.902  0.00  0.00    +0.000 HD
ENDBRANCH   5  20
TORSDOF 2
ENDMDL
MODEL 7
REMARK VINA RESULT:      -7.9      4.972     10.088
REMARK  Name = 
REMARK  3 active torsions:
REMARK  status: ('A' for Active; 'I' for Inactive)
REMARK    1  A    between atoms: C_1  and  C_2
REMARK    2  A    between atoms: C_6  and  C_7
REMARK    3  A    between atoms: C_11  and  C_13
REMARK                            x       y       z     vdW  Elec       q    Type
REMARK                         _______ _______ _______ _____ _____    ______ ____
ROOT
ATOM      1  C   UNL     1       1.064  10.189  19.123  0.00  0.00    +0.000 C 
ATOM      2  C   UNL     1       0.856  11.213  20.266  0.00  0.00    +0.000 C 
ATOM      3  C   UNL     1      -0.556  11.247  20.857  0.00  0.00    +0.000 C 
ATOM      4  N   UNL     1      -1.564  11.207  19.811  0.00  0.00    +0.000 N 
ATOM      5  C   UNL     1      -2.529  12.227  19.717  0.00  0.00    +0.000 C 
ATOM      6  O   UNL     1      -2.620  13.111  20.571  0.00  0.00    +0.000 OA
ATOM      7  C   UNL     1      -1.443  10.050  18.927  0.00  0.00    +0.000 C 
ATOM      8  C   UNL     1      -0.134  10.149  18.161  0.00  0.00    +0.000 C 
ENDROOT
BRANCH   1  14
ATOM      9  C   UNL     1       5.081   4.691  17.984  0.00  0.00    +0.000 C 
ATOM     10  C   UNL     1       4.078   5.768  18.282  0.00  0.00    +0.000 A 
ATOM     11  C   UNL     1       3.820   6.790  17.364  0.00  0.00    +0.000 A 
ATOM     12  C   UNL     1       2.947   7.843  17.676  0.00  0.00    +0.000 A 
ATOM     13  C   UNL     1       2.309   7.872  18.935  0.00  0.00    +0.000 A 
ATOM     14  C   UNL     1       1.459   8.812  19.618  0.00  0.00    +0.000 A 
ATOM     15  C   UNL     1       1.111   8.216  20.817  0.00  0.00    +0.000 A 
ATOM     16  N   UNL     1       1.758   7.016  20.915  0.00  0.00    +0.000 N 
ATOM     17  C   UNL     1       2.527   6.800  19.800  0.00  0.00    +0.000 A 
ATOM     18  C   UNL     1       3.400   5.746  19.509  0.00  0.00    +0.000 A 
ATOM     19  H   UNL     1       1.702   6.383  21.701  0.00  0.00    +0.000 HD
ENDBRANCH   1  14
BRANCH   5  20
ATOM     20  C   UNL     1      -3.540  12.110  18.647  0.00  0.00    +0.000 A 
ATOM     21  N   UNL     1      -3.313  11.536  17.436  0.00  0.00    +0.000 NA
ATOM     22  N   UNL     1      -4.512  10.994  17.099  0.00  0.00    +0.000 N 
ATOM     23  C   UNL     1      -5.455  11.306  18.017  0.00  0.00    +0.000 A 
ATOM     24  C   UNL     1      -4.927  12.255  18.847  0.00  0.00    +0.000 A 
ATOM     25  C   UNL     1      -5.839  12.520  19.979  0.00  0.00    +0.000 C 
ATOM     26  C   UNL     1      -6.529  11.125  20.071  0.00  0.00    +0.000 C 
ATOM     27  C   UNL     1      -6.634  10.613  18.582  0.00  0.00    +0.000 C 
ATOM     28  H   UNL     1      -4.538  10.320  16.344  0.00  0.00    +0.000 HD
ENDBRANCH   5  20
TORSDOF 2
ENDMDL
MODEL 8
REMARK VINA RESULT:      -7.9      4.287      7.274
REMARK  Name = 
REMARK  3 active torsions:
REMARK  status: ('A' for Active; 'I' for Inactive)
REMARK    1  A    between atoms: C_1  and  C_2
REMARK    2  A    between atoms: C_6  and  C_7
REMARK    3  A    between atoms: C_11  and  C_13
REMARK                            x       y       z     vdW  Elec       q    Type
REMARK                         _______ _______ _______ _____ _____    ______ ____
ROOT
ATOM      1  C   UNL     1       0.752  11.492  20.187  0.00  0.00    +0.000 C 
ATOM      2  C   UNL     1       1.428  11.459  18.795  0.00  0.00    +0.000 C 
ATOM      3  C   UNL     1       1.246  10.153  18.015  0.00  0.00    +0.000 C 
ATOM      4  N   UNL     1       1.440   8.997  18.876  0.00  0.00    +0.000 N 
ATOM      5  C   UNL     1       2.406   8.027  18.552  0.00  0.00    +0.000 C 
ATOM      6  O   UNL     1       3.029   8.066  17.489  0.00  0.00    +0.000 OA
ATOM      7  C   UNL     1       0.563   8.984  20.044  0.00  0.00    +0.000 C 
ATOM      8  C   UNL     1       0.916  10.162  20.939  0.00  0.00    +0.000 C 
ENDROOT
BRANCH   1  14
ATOM      9  C   UNL     1      -4.809  13.105  23.948  0.00  0.00    +0.000 C 
ATOM     10  C   UNL     1      -3.715  12.678  23.011  0.00  0.00    +0.000 A 
ATOM     11  C   UNL     1      -2.590  11.992  23.477  0.00  0.00    +0.000 A 
ATOM     12  C   UNL     1      -1.529  11.669  22.617  0.00  0.00    +0.000 A 
ATOM     13  C   UNL     1      -1.597  12.034  21.256  0.00  0.00    +0.000 A 
ATOM     14  C   UNL     1      -0.689  11.960  20.141  0.00  0.00    +0.000 A 
ATOM     15  C   UNL     1      -1.388  12.431  19.043  0.00  0.00    +0.000 A 
ATOM     16  N   UNL     1      -2.625  12.842  19.453  0.00  0.00    +0.000 N 
ATOM     17  C   UNL     1      -2.765  12.649  20.804  0.00  0.00    +0.000 A 
ATOM     18  C   UNL     1      -3.829  12.987  21.647  0.00  0.00    +0.000 A 
ATOM     19  H   UNL     1      -3.332  13.251  18.858  0.00  0.00    +0.000 HD
ENDBRANCH   1  14
BRANCH   5  20
ATOM     20  C   UNL     1       2.533   6.866  19.455  0.00  0.00    +0.000 A 
ATOM     21  N   UNL     1       2.164   6.866  20.763  0.00  0.00    +0.000 NA
ATOM     22  N   UNL     1       1.757   5.591  20.990  0.00  0.00    +0.000 N 
ATOM     23  C   UNL     1       1.961   4.820  19.897  0.00  0.00    +0.000 A 
ATOM     24  C   UNL     1       2.720   5.540  19.018  0.00  0.00    +0.000 A 
ATOM     25  C   UNL     1       2.839   4.827  17.730  0.00  0.00    +0.000 C 
ATOM     26  C   UNL     1       1.490   4.044  17.756  0.00  0.00    +0.000 C 
ATOM     27  C   UNL     1       1.249   3.682  19.274  0.00  0.00    +0.000 C 
ATOM     28  H   UNL     1       1.226   5.399  21.830  0.00  0.00    +0.000 HD
ENDBRANCH   5  20
TORSDOF 2
ENDMDL
MODEL 9
REMARK VINA RESULT:      -7.9      7.149     12.630
REMARK  Name = 
REMARK  3 active torsions:
REMARK  status: ('A' for Active; 'I' for Inactive)
REMARK    1  A    between atoms: C_1  and  C_2
REMARK    2  A    between atoms: C_6  and  C_7
REMARK    3  A    between atoms: C_11  and  C_13
REMARK                            x       y       z     vdW  Elec       q    Type
REMARK                         _______ _______ _______ _____ _____    ______ ____
ROOT
ATOM      1  C   UNL     1      -1.581  12.791  22.073  0.00  0.00    +0.000 C 
ATOM      2  C   UNL     1      -2.137  13.127  23.479  0.00  0.00    +0.000 C 
ATOM      3  C   UNL     1      -3.579  12.677  23.731  0.00  0.00    +0.000 C 
ATOM      4  N   UNL     1      -4.429  12.978  22.591  0.00  0.00    +0.000 N 
ATOM      5  C   UNL     1      -5.579  13.773  22.756  0.00  0.00    +0.000 C 
ATOM      6  O   UNL     1      -5.959  14.137  23.871  0.00  0.00    +0.000 OA
ATOM      7  C   UNL     1      -3.957  12.393  21.338  0.00  0.00    +0.000 C 
ATOM      8  C   UNL     1      -2.625  13.026  20.970  0.00  0.00    +0.000 C 
ENDROOT
BRANCH   1  14
ATOM      9  C   UNL     1       2.182   8.500  18.188  0.00  0.00    +0.000 C 
ATOM     10  C   UNL     1       1.267   9.286  19.083  0.00  0.00    +0.000 A 
ATOM     11  C   UNL     1       0.645  10.455  18.634  0.00  0.00    +0.000 A 
ATOM     12  C   UNL     1      -0.141  11.236  19.494  0.00  0.00    +0.000 A 
ATOM     13  C   UNL     1      -0.317  10.835  20.836  0.00  0.00    +0.000 A 
ATOM     14  C   UNL     1      -0.949  11.415  21.992  0.00  0.00    +0.000 A 
ATOM     15  C   UNL     1      -0.831  10.482  23.006  0.00  0.00    +0.000 A 
ATOM     16  N   UNL     1      -0.109   9.419  22.541  0.00  0.00    +0.000 N 
ATOM     17  C   UNL     1       0.252   9.625  21.234  0.00  0.00    +0.000 A 
ATOM     18  C   UNL     1       1.046   8.838  20.393  0.00  0.00    +0.000 A 
ATOM     19  H   UNL     1       0.147   8.604  23.083  0.00  0.00    +0.000 HD
ENDBRANCH   1  14
BRANCH   5  20
ATOM     20  C   UNL     1      -6.413  14.018  21.562  0.00  0.00    +0.000 A 
ATOM     21  N   UNL     1      -6.165  14.983  20.638  0.00  0.00    +0.000 NA
ATOM     22  N   UNL     1      -6.618  14.450  19.475  0.00  0.00    +0.000 N 
ATOM     23  C   UNL     1      -7.206  13.250  19.694  0.00  0.00    +0.000 A 
ATOM     24  C   UNL     1      -7.346  13.098  21.044  0.00  0.00    +0.000 A 
ATOM     25  C   UNL     1      -7.824  11.738  21.367  0.00  0.00    +0.000 C 
ATOM     26  C   UNL     1      -7.222  10.971  20.150  0.00  0.00    +0.000 C 
ATOM     27  C   UNL     1      -7.302  11.982  18.940  0.00  0.00    +0.000 C 
ATOM     28  H   UNL     1      -6.340  14.888  18.606  0.00  0.00    +0.000 HD
ENDBRANCH   5  20
TORSDOF 2
ENDMDL
