MODEL 1
REMARK VINA RESULT:      -9.3      0.000      0.000
REMARK  Name = 
REMARK  5 active torsions:
REMARK  status: ('A' for Active; 'I' for Inactive)
REMARK    1  A    between atoms: C_2  and  C_3
REMARK    2  A    between atoms: C_3  and  C_4
REMARK    3  A    between atoms: C_7  and  N_8
REMARK    4  A    between atoms: N_16  and  C_17
REMARK    5  A    between atoms: C_17  and  C_18
REMARK                            x       y       z     vdW  Elec       q    Type
REMARK                         _______ _______ _______ _____ _____    ______ ____
ROOT
ATOM      1  O   UNL     1       8.578   7.149  19.010  0.00  0.00    +0.000 OA
ATOM      2  C   UNL     1       8.045   7.859  18.159  0.00  0.00    +0.000 C 
ATOM      3  N   UNL     1       8.231   9.221  18.088  0.00  0.00    +0.000 N 
ATOM      4  H   UNL     1       7.691   9.767  17.430  0.00  0.00    +0.000 HD
ENDROOT
BRANCH   2   5
ATOM      5  C   UNL     1       7.125   7.291  17.093  0.00  0.00    +0.000 C 
BRANCH   5   6
ATOM      6  C   UNL     1       5.980   6.490  17.656  0.00  0.00    +0.000 A 
ATOM      7  C   UNL     1       4.656   6.854  17.398  0.00  0.00    +0.000 A 
ATOM      8  C   UNL     1       3.591   6.097  17.907  0.00  0.00    +0.000 A 
ATOM      9  C   UNL     1       3.814   4.967  18.703  0.00  0.00    +0.000 A 
ATOM     10  C   UNL     1       5.147   4.600  18.940  0.00  0.00    +0.000 A 
ATOM     11  C   UNL     1       6.214   5.344  18.419  0.00  0.00    +0.000 A 
BRANCH   9  12
ATOM     12  N   UNL     1       2.743   4.229  19.281  0.00  0.00    +0.000 N 
ATOM     13  C   UNL     1       2.349   4.402  20.662  0.00  0.00    +0.000 C 
ATOM     14  C   UNL     1       1.356   3.291  20.924  0.00  0.00    +0.000 C 
ATOM     15  C   UNL     1       0.721   3.051  19.569  0.00  0.00    +0.000 C 
ATOM     16  C   UNL     1       1.805   3.442  18.593  0.00  0.00    +0.000 C 
ATOM     17  O   UNL     1       1.776   3.122  17.412  0.00  0.00    +0.000 OA
ENDBRANCH   9  12
ENDBRANCH   5   6
ENDBRANCH   2   5
BRANCH   3  18
ATOM     18  C   UNL     1       9.110   9.925  18.994  0.00  0.00    +0.000 C 
BRANCH  18  19
ATOM     19  C   UNL     1       9.573  11.234  18.418  0.00  0.00    +0.000 A 
ATOM     20  C   UNL     1      10.827  11.366  17.832  0.00  0.00    +0.000 A 
ATOM     21  C   UNL     1      11.179  12.600  17.320  0.00  0.00    +0.000 A 
ATOM     22  N   UNL     1      10.381  13.692  17.352  0.00  0.00    +0.000 NA
ATOM     23  C   UNL     1       9.154  13.576  17.903  0.00  0.00    +0.000 A 
ATOM     24  N   UNL     1       8.347  14.693  18.020  0.00  0.00    +0.000 N 
ATOM     25  C   UNL     1       8.944  16.014  17.855  0.00  0.00    +0.000 C 
ATOM     26  C   UNL     1       8.274  16.943  18.874  0.00  0.00    +0.000 C 
ATOM     27  C   UNL     1       6.748  16.924  18.745  0.00  0.00    +0.000 C 
ATOM     28  C   UNL     1       6.194  15.497  18.743  0.00  0.00    +0.000 C 
ATOM     29  C   UNL     1       6.921  14.624  17.721  0.00  0.00    +0.000 C 
ATOM     30  C   UNL     1       8.738  12.357  18.445  0.00  0.00    +0.000 A 
ENDBRANCH  18  19
ENDBRANCH   3  18
TORSDOF 5
ENDMDL
MODEL 2
REMARK VINA RESULT:      -9.0      0.965      1.407
REMARK  Name = 
REMARK  5 active torsions:
REMARK  status: ('A' for Active; 'I' for Inactive)
REMARK    1  A    between atoms: C_2  and  C_3
REMARK    2  A    between atoms: C_3  and  C_4
REMARK    3  A    between atoms: C_7  and  N_8
REMARK    4  A    between atoms: N_16  and  C_17
REMARK    5  A    between atoms: C_17  and  C_18
REMARK                            x       y       z     vdW  Elec       q    Type
REMARK                         _______ _______ _______ _____ _____    ______ ____
ROOT
ATOM      1  O   UNL     1       8.457   7.156  18.921  0.00  0.00    +0.000 OA
ATOM      2  C   UNL     1       8.026   7.858  18.010  0.00  0.00    +0.000 C 
ATOM      3  N   UNL     1       8.242   9.216  17.935  0.00  0.00    +0.000 N 
ATOM      4  H   UNL     1       7.780   9.758  17.217  0.00  0.00    +0.000 HD
ENDROOT
BRANCH   2   5
ATOM      5  C   UNL     1       7.209   7.286  16.865  0.00  0.00    +0.000 C 
BRANCH   5   6
ATOM      6  C   UNL     1       6.102   6.370  17.319  0.00  0.00    +0.000 A 
ATOM      7  C   UNL     1       6.339   5.010  17.533  0.00  0.00    +0.000 A 
ATOM      8  C   UNL     1       5.312   4.163  17.973  0.00  0.00    +0.000 A 
ATOM      9  C   UNL     1       4.016   4.641  18.195  0.00  0.00    +0.000 A 
ATOM     10  C   UNL     1       3.794   6.012  17.995  0.00  0.00    +0.000 A 
ATOM     11  C   UNL     1       4.820   6.866  17.571  0.00  0.00    +0.000 A 
BRANCH   9  12
ATOM     12  N   UNL     1       2.950   3.779  18.577  0.00  0.00    +0.000 N 
ATOM     13  C   UNL     1       1.733   3.673  17.802  0.00  0.00    +0.000 C 
ATOM     14  C   UNL     1       0.797   2.851  18.661  0.00  0.00    +0.000 C 
ATOM     15  C   UNL     1       1.730   1.966  19.462  0.00  0.00    +0.000 C 
ATOM     16  C   UNL     1       2.995   2.784  19.568  0.00  0.00    +0.000 C 
ATOM     17  O   UNL     1       3.878   2.533  20.377  0.00  0.00    +0.000 OA
ENDBRANCH   9  12
ENDBRANCH   5   6
ENDBRANCH   2   5
BRANCH   3  18
ATOM     18  C   UNL     1       9.036   9.923  18.914  0.00  0.00    +0.000 C 
BRANCH  18  19
ATOM     19  C   UNL     1       9.534  11.238  18.384  0.00  0.00    +0.000 A 
ATOM     20  C   UNL     1      10.807  11.365  17.838  0.00  0.00    +0.000 A 
ATOM     21  C   UNL     1      11.192  12.605  17.367  0.00  0.00    +0.000 A 
ATOM     22  N   UNL     1      10.409  13.708  17.402  0.00  0.00    +0.000 NA
ATOM     23  C   UNL     1       9.165  13.598  17.914  0.00  0.00    +0.000 A 
ATOM     24  N   UNL     1       8.371  14.724  18.033  0.00  0.00    +0.000 N 
ATOM     25  C   UNL     1       8.992  16.039  17.918  0.00  0.00    +0.000 C 
ATOM     26  C   UNL     1       8.305  16.954  18.940  0.00  0.00    +0.000 C 
ATOM     27  C   UNL     1       6.784  16.961  18.765  0.00  0.00    +0.000 C 
ATOM     28  C   UNL     1       6.209  15.543  18.712  0.00  0.00    +0.000 C 
ATOM     29  C   UNL     1       6.954  14.683  17.691  0.00  0.00    +0.000 C 
ATOM     30  C   UNL     1       8.715  12.373  18.413  0.00  0.00    +0.000 A 
ENDBRANCH  18  19
ENDBRANCH   3  18
TORSDOF 5
ENDMDL
MODEL 3
REMARK VINA RESULT:      -8.7      5.842      7.685
REMARK  Name = 
REMARK  5 active torsions:
REMARK  status: ('A' for Active; 'I' for Inactive)
REMARK    1  A    between atoms: C_2  and  C_3
REMARK    2  A    between atoms: C_3  and  C_4
REMARK    3  A    between atoms: C_7  and  N_8
REMARK    4  A    between atoms: N_16  and  C_17
REMARK    5  A    between atoms: C_17  and  C_18
REMARK                            x       y       z     vdW  Elec       q    Type
REMARK                         _______ _______ _______ _____ _____    ______ ____
ROOT
ATOM      1  O   UNL     1       2.721   3.855  19.778  0.00  0.00    +0.000 OA
ATOM      2  C   UNL     1       3.597   4.717  19.770  0.00  0.00    +0.000 C 
ATOM      3  N   UNL     1       3.342   6.055  19.965  0.00  0.00    +0.000 N 
ATOM      4  H   UNL     1       4.086   6.730  19.849  0.00  0.00    +0.000 HD
ENDROOT
BRANCH   2   5
ATOM      5  C   UNL     1       5.061   4.380  19.545  0.00  0.00    +0.000 C 
BRANCH   5   6
ATOM      6  C   UNL     1       5.450   4.346  18.090  0.00  0.00    +0.000 A 
ATOM      7  C   UNL     1       4.481   4.233  17.091  0.00  0.00    +0.000 A 
ATOM      8  C   UNL     1       4.844   4.220  15.737  0.00  0.00    +0.000 A 
ATOM      9  C   UNL     1       6.183   4.301  15.339  0.00  0.00    +0.000 A 
ATOM     10  C   UNL     1       7.147   4.433  16.350  0.00  0.00    +0.000 A 
ATOM     11  C   UNL     1       6.788   4.463  17.704  0.00  0.00    +0.000 A 
BRANCH   9  12
ATOM     12  N   UNL     1       6.569   4.222  13.971  0.00  0.00    +0.000 N 
ATOM     13  C   UNL     1       5.797   3.482  12.997  0.00  0.00    +0.000 C 
ATOM     14  C   UNL     1       6.659   3.461  11.754  0.00  0.00    +0.000 C 
ATOM     15  C   UNL     1       7.461   4.743  11.852  0.00  0.00    +0.000 C 
ATOM     16  C   UNL     1       7.562   4.988  13.339  0.00  0.00    +0.000 C 
ATOM     17  O   UNL     1       8.370   5.767  13.826  0.00  0.00    +0.000 OA
ENDBRANCH   9  12
ENDBRANCH   5   6
ENDBRANCH   2   5
BRANCH   3  18
ATOM     18  C   UNL     1       2.012   6.553  20.238  0.00  0.00    +0.000 C 
BRANCH  18  19
ATOM     19  C   UNL     1       1.781   7.900  19.614  0.00  0.00    +0.000 A 
ATOM     20  C   UNL     1       2.223   8.189  18.327  0.00  0.00    +0.000 A 
ATOM     21  C   UNL     1       1.969   9.449  17.820  0.00  0.00    +0.000 A 
ATOM     22  N   UNL     1       1.316  10.422  18.495  0.00  0.00    +0.000 NA
ATOM     23  C   UNL     1       0.867  10.153  19.739  0.00  0.00    +0.000 A 
ATOM     24  N   UNL     1       0.266  11.153  20.482  0.00  0.00    +0.000 N 
ATOM     25  C   UNL     1       0.419  12.538  20.053  0.00  0.00    +0.000 C 
ATOM     26  C   UNL     1       0.574  13.389  21.319  0.00  0.00    +0.000 C 
ATOM     27  C   UNL     1      -0.577  13.161  22.304  0.00  0.00    +0.000 C 
ATOM     28  C   UNL     1      -0.807  11.672  22.576  0.00  0.00    +0.000 C 
ATOM     29  C   UNL     1      -0.931  10.884  21.272  0.00  0.00    +0.000 C 
ATOM     30  C   UNL     1       1.096   8.900  20.314  0.00  0.00    +0.000 A 
ENDBRANCH  18  19
ENDBRANCH   3  18
TORSDOF 5
ENDMDL
MODEL 4
REMARK VINA RESULT:      -8.7      1.058      1.149
REMARK  Name = 
REMARK  5 active torsions:
REMARK  status: ('A' for Active; 'I' for Inactive)
REMARK    1  A    between atoms: C_2  and  C_3
REMARK    2  A    between atoms: C_3  and  C_4
REMARK    3  A    between atoms: C_7  and  N_8
REMARK    4  A    between atoms: N_16  and  C_17
REMARK    5  A    between atoms: C_17  and  C_18
REMARK                            x       y       z     vdW  Elec       q    Type
REMARK                         _______ _______ _______ _____ _____    ______ ____
ROOT
ATOM      1  O   UNL     1       7.429   9.919  17.658  0.00  0.00    +0.000 OA
ATOM      2  C   UNL     1       8.160   9.013  18.052  0.00  0.00    +0.000 C 
ATOM      3  N   UNL     1       9.079   9.170  19.064  0.00  0.00    +0.000 N 
ATOM      4  H   UNL     1       9.722   8.419  19.279  0.00  0.00    +0.000 HD
ENDROOT
BRANCH   2   5
ATOM      5  C   UNL     1       8.114   7.618  17.452  0.00  0.00    +0.000 C 
BRANCH   5   6
ATOM      6  C   UNL     1       6.871   6.850  17.819  0.00  0.00    +0.000 A 
ATOM      7  C   UNL     1       5.676   7.046  17.123  0.00  0.00    +0.000 A 
ATOM      8  C   UNL     1       4.525   6.318  17.454  0.00  0.00    +0.000 A 
ATOM      9  C   UNL     1       4.525   5.386  18.499  0.00  0.00    +0.000 A 
ATOM     10  C   UNL     1       5.736   5.184  19.179  0.00  0.00    +0.000 A 
ATOM     11  C   UNL     1       6.893   5.898  18.841  0.00  0.00    +0.000 A 
BRANCH   9  12
ATOM     12  N   UNL     1       3.347   4.689  18.888  0.00  0.00    +0.000 N 
ATOM     13  C   UNL     1       2.640   5.000  20.111  0.00  0.00    +0.000 C 
ATOM     14  C   UNL     1       1.611   3.899  20.254  0.00  0.00    +0.000 C 
ATOM     15  C   UNL     1       1.311   3.501  18.823  0.00  0.00    +0.000 C 
ATOM     16  C   UNL     1       2.595   3.811  18.090  0.00  0.00    +0.000 C 
ATOM     17  O   UNL     1       2.844   3.365  16.978  0.00  0.00    +0.000 OA
ENDBRANCH   9  12
ENDBRANCH   5   6
ENDBRANCH   2   5
BRANCH   3  18
ATOM     18  C   UNL     1       9.229  10.417  19.781  0.00  0.00    +0.000 C 
BRANCH  18  19
ATOM     19  C   UNL     1       9.812  11.494  18.910  0.00  0.00    +0.000 A 
ATOM     20  C   UNL     1      10.964  11.278  18.162  0.00  0.00    +0.000 A 
ATOM     21  C   UNL     1      11.437  12.315  17.382  0.00  0.00    +0.000 A 
ATOM     22  N   UNL     1      10.850  13.531  17.298  0.00  0.00    +0.000 NA
ATOM     23  C   UNL     1       9.722  13.752  18.006  0.00  0.00    +0.000 A 
ATOM     24  N   UNL     1       9.145  15.009  18.000  0.00  0.00    +0.000 N 
ATOM     25  C   UNL     1       9.925  16.140  17.511  0.00  0.00    +0.000 C 
ATOM     26  C   UNL     1       9.588  17.341  18.404  0.00  0.00    +0.000 C 
ATOM     27  C   UNL     1       8.080  17.599  18.467  0.00  0.00    +0.000 C 
ATOM     28  C   UNL     1       7.298  16.328  18.809  0.00  0.00    +0.000 C 
ATOM     29  C   UNL     1       7.699  15.170  17.895  0.00  0.00    +0.000 C 
ATOM     30  C   UNL     1       9.194  12.747  18.820  0.00  0.00    +0.000 A 
ENDBRANCH  18  19
ENDBRANCH   3  18
TORSDOF 5
ENDMDL
MODEL 5
REMARK VINA RESULT:      -8.5      2.100      2.334
REMARK  Name = 
REMARK  5 active torsions:
REMARK  status: ('A' for Active; 'I' for Inactive)
REMARK    1  A    between atoms: C_2  and  C_3
REMARK    2  A    between atoms: C_3  and  C_4
REMARK    3  A    between atoms: C_7  and  N_8
REMARK    4  A    between atoms: N_16  and  C_17
REMARK    5  A    between atoms: C_17  and  C_18
REMARK                            x       y       z     vdW  Elec       q    Type
REMARK                         _______ _______ _______ _____ _____    ______ ____
ROOT
ATOM      1  O   UNL     1       8.386   6.844  18.906  0.00  0.00    +0.000 OA
ATOM      2  C   UNL     1       7.948   7.674  18.113  0.00  0.00    +0.000 C 
ATOM      3  N   UNL     1       8.269   9.012  18.166  0.00  0.00    +0.000 N 
ATOM      4  H   UNL     1       7.802   9.665  17.550  0.00  0.00    +0.000 HD
ENDROOT
BRANCH   2   5
ATOM      5  C   UNL     1       7.003   7.297  16.986  0.00  0.00    +0.000 C 
BRANCH   5   6
ATOM      6  C   UNL     1       5.833   6.463  17.440  0.00  0.00    +0.000 A 
ATOM      7  C   UNL     1       4.536   6.981  17.426  0.00  0.00    +0.000 A 
ATOM      8  C   UNL     1       3.446   6.199  17.831  0.00  0.00    +0.000 A 
ATOM      9  C   UNL     1       3.617   4.884  18.280  0.00  0.00    +0.000 A 
ATOM     10  C   UNL     1       4.922   4.368  18.272  0.00  0.00    +0.000 A 
ATOM     11  C   UNL     1       6.012   5.140  17.852  0.00  0.00    +0.000 A 
BRANCH   9  12
ATOM     12  N   UNL     1       2.528   4.102  18.757  0.00  0.00    +0.000 N 
ATOM     13  C   UNL     1       2.118   2.878  18.105  0.00  0.00    +0.000 C 
ATOM     14  C   UNL     1       0.815   2.499  18.774  0.00  0.00    +0.000 C 
ATOM     15  C   UNL     1       0.952   3.066  20.173  0.00  0.00    +0.000 C 
ATOM     16  C   UNL     1       1.869   4.253  19.988  0.00  0.00    +0.000 C 
ATOM     17  O   UNL     1       1.990   5.130  20.832  0.00  0.00    +0.000 OA
ENDBRANCH   9  12
ENDBRANCH   5   6
ENDBRANCH   2   5
BRANCH   3  18
ATOM     18  C   UNL     1       9.190   9.544  19.145  0.00  0.00    +0.000 C 
BRANCH  18  19
ATOM     19  C   UNL     1       9.448  11.009  18.931  0.00  0.00    +0.000 A 
ATOM     20  C   UNL     1       9.864  11.499  17.698  0.00  0.00    +0.000 A 
ATOM     21  C   UNL     1      10.076  12.859  17.577  0.00  0.00    +0.000 A 
ATOM     22  N   UNL     1       9.905  13.747  18.583  0.00  0.00    +0.000 NA
ATOM     23  C   UNL     1       9.486  13.289  19.782  0.00  0.00    +0.000 A 
ATOM     24  N   UNL     1       9.378  14.162  20.849  0.00  0.00    +0.000 N 
ATOM     25  C   UNL     1      10.020  15.469  20.758  0.00  0.00    +0.000 C 
ATOM     26  C   UNL     1      10.590  15.790  22.145  0.00  0.00    +0.000 C 
ATOM     27  C   UNL     1       9.521  15.690  23.238  0.00  0.00    +0.000 C 
ATOM     28  C   UNL     1       8.757  14.365  23.168  0.00  0.00    +0.000 C 
ATOM     29  C   UNL     1       8.236  14.101  21.755  0.00  0.00    +0.000 C 
ATOM     30  C   UNL     1       9.259  11.924  19.973  0.00  0.00    +0.000 A 
ENDBRANCH  18  19
ENDBRANCH   3  18
TORSDOF 5
ENDMDL
MODEL 6
REMARK VINA RESULT:      -8.4      5.507      7.393
REMARK  Name = 
REMARK  5 active torsions:
REMARK  status: ('A' for Active; 'I' for Inactive)
REMARK    1  A    between atoms: C_2  and  C_3
REMARK    2  A    between atoms: C_3  and  C_4
REMARK    3  A    between atoms: C_7  and  N_8
REMARK    4  A    between atoms: N_16  and  C_17
REMARK    5  A    between atoms: C_17  and  C_18
REMARK                            x       y       z     vdW  Elec       q    Type
REMARK                         _______ _______ _______ _____ _____    ______ ____
ROOT
ATOM      1  O   UNL     1       0.728   4.328  20.595  0.00  0.00    +0.000 OA
ATOM      2  C   UNL     1       1.911   4.658  20.600  0.00  0.00    +0.000 C 
ATOM      3  N   UNL     1       2.332   5.959  20.758  0.00  0.00    +0.000 N 
ATOM      4  H   UNL     1       3.312   6.186  20.655  0.00  0.00    +0.000 HD
ENDROOT
BRANCH   2   5
ATOM      5  C   UNL     1       3.034   3.648  20.436  0.00  0.00    +0.000 C 
BRANCH   5   6
ATOM      6  C   UNL     1       3.790   3.800  19.142  0.00  0.00    +0.000 A 
ATOM      7  C   UNL     1       5.121   4.224  19.135  0.00  0.00    +0.000 A 
ATOM      8  C   UNL     1       5.829   4.347  17.931  0.00  0.00    +0.000 A 
ATOM      9  C   UNL     1       5.227   4.070  16.698  0.00  0.00    +0.000 A 
ATOM     10  C   UNL     1       3.896   3.627  16.719  0.00  0.00    +0.000 A 
ATOM     11  C   UNL     1       3.190   3.486  17.920  0.00  0.00    +0.000 A 
BRANCH   9  12
ATOM     12  N   UNL     1       5.914   4.255  15.466  0.00  0.00    +0.000 N 
ATOM     13  C   UNL     1       5.426   3.698  14.224  0.00  0.00    +0.000 C 
ATOM     14  C   UNL     1       6.545   3.925  13.230  0.00  0.00    +0.000 C 
ATOM     15  C   UNL     1       7.225   5.181  13.738  0.00  0.00    +0.000 C 
ATOM     16  C   UNL     1       6.975   5.145  15.227  0.00  0.00    +0.000 C 
ATOM     17  O   UNL     1       7.605   5.833  16.019  0.00  0.00    +0.000 OA
ENDBRANCH   9  12
ENDBRANCH   5   6
ENDBRANCH   2   5
BRANCH   3  18
ATOM     18  C   UNL     1       1.404   7.047  20.972  0.00  0.00    +0.000 C 
BRANCH  18  19
ATOM     19  C   UNL     1       1.537   8.110  19.919  0.00  0.00    +0.000 A 
ATOM     20  C   UNL     1       2.290   7.902  18.768  0.00  0.00    +0.000 A 
ATOM     21  C   UNL     1       2.361   8.926  17.844  0.00  0.00    +0.000 A 
ATOM     22  N   UNL     1       1.744  10.121  17.984  0.00  0.00    +0.000 NA
ATOM     23  C   UNL     1       0.996  10.334  19.088  0.00  0.00    +0.000 A 
ATOM     24  N   UNL     1       0.419  11.573  19.296  0.00  0.00    +0.000 N 
ATOM     25  C   UNL     1       0.886  12.709  18.509  0.00  0.00    +0.000 C 
ATOM     26  C   UNL     1       0.897  13.928  19.439  0.00  0.00    +0.000 C 
ATOM     27  C   UNL     1      -0.462  14.146  20.110  0.00  0.00    +0.000 C 
ATOM     28  C   UNL     1      -0.986  12.866  20.766  0.00  0.00    +0.000 C 
ATOM     29  C   UNL     1      -0.949  11.690  19.790  0.00  0.00    +0.000 C 
ATOM     30  C   UNL     1       0.887   9.342  20.066  0.00  0.00    +0.000 A 
ENDBRANCH  18  19
ENDBRANCH   3  18
TORSDOF 5
ENDMDL
MODEL 7
REMARK VINA RESULT:      -8.2      6.765     10.228
REMARK  Name = 
REMARK  5 active torsions:
REMARK  status: ('A' for Active; 'I' for Inactive)
REMARK    1  A    between atoms: C_2  and  C_3
REMARK    2  A    between atoms: C_3  and  C_4
REMARK    3  A    between atoms: C_7  and  N_8
REMARK    4  A    between atoms: N_16  and  C_17
REMARK    5  A    between atoms: C_17  and  C_18
REMARK                            x       y       z     vdW  Elec       q    Type
REMARK                         _______ _______ _______ _____ _____    ______ ____
ROOT
ATOM      1  O   UNL     1       0.673   9.698  22.158  0.00  0.00    +0.000 OA
ATOM      2  C   UNL     1       0.860   9.521  20.956  0.00  0.00    +0.000 C 
ATOM      3  N   UNL     1       1.167   8.295  20.412  0.00  0.00    +0.000 N 
ATOM      4  H   UNL     1       1.408   8.226  19.432  0.00  0.00    +0.000 HD
ENDROOT
BRANCH   2   5
ATOM      5  C   UNL     1       0.766  10.653  19.948  0.00  0.00    +0.000 C 
BRANCH   5   6
ATOM      6  C   UNL     1      -0.649  10.979  19.546  0.00  0.00    +0.000 A 
ATOM      7  C   UNL     1      -1.276  10.290  18.506  0.00  0.00    +0.000 A 
ATOM      8  C   UNL     1      -2.599  10.583  18.145  0.00  0.00    +0.000 A 
ATOM      9  C   UNL     1      -3.329  11.583  18.797  0.00  0.00    +0.000 A 
ATOM     10  C   UNL     1      -2.695  12.257  19.852  0.00  0.00    +0.000 A 
ATOM     11  C   UNL     1      -1.380  11.956  20.227  0.00  0.00    +0.000 A 
BRANCH   9  12
ATOM     12  N   UNL     1      -4.648  11.936  18.396  0.00  0.00    +0.000 N 
ATOM     13  C   UNL     1      -5.027  12.035  17.004  0.00  0.00    +0.000 C 
ATOM     14  C   UNL     1      -6.412  12.646  17.021  0.00  0.00    +0.000 C 
ATOM     15  C   UNL     1      -6.993  12.177  18.340  0.00  0.00    +0.000 C 
ATOM     16  C   UNL     1      -5.781  12.007  19.225  0.00  0.00    +0.000 C 
ATOM     17  O   UNL     1      -5.860  11.916  20.442  0.00  0.00    +0.000 OA
ENDBRANCH   9  12
ENDBRANCH   5   6
ENDBRANCH   2   5
BRANCH   3  18
ATOM     18  C   UNL     1       1.253   7.096  21.216  0.00  0.00    +0.000 C 
BRANCH  18  19
ATOM     19  C   UNL     1       1.908   5.969  20.469  0.00  0.00    +0.000 A 
ATOM     20  C   UNL     1       1.470   4.656  20.607  0.00  0.00    +0.000 A 
ATOM     21  C   UNL     1       2.120   3.674  19.883  0.00  0.00    +0.000 A 
ATOM     22  N   UNL     1       3.157   3.908  19.047  0.00  0.00    +0.000 NA
ATOM     23  C   UNL     1       3.584   5.179  18.890  0.00  0.00    +0.000 A 
ATOM     24  N   UNL     1       4.691   5.437  18.102  0.00  0.00    +0.000 N 
ATOM     25  C   UNL     1       5.564   4.330  17.729  0.00  0.00    +0.000 C 
ATOM     26  C   UNL     1       7.004   4.856  17.770  0.00  0.00    +0.000 C 
ATOM     27  C   UNL     1       7.177   6.110  16.907  0.00  0.00    +0.000 C 
ATOM     28  C   UNL     1       6.116   7.169  17.221  0.00  0.00    +0.000 C 
ATOM     29  C   UNL     1       4.710   6.570  17.183  0.00  0.00    +0.000 C 
ATOM     30  C   UNL     1       2.974   6.218  19.596  0.00  0.00    +0.000 A 
ENDBRANCH  18  19
ENDBRANCH   3  18
TORSDOF 5
ENDMDL
MODEL 8
REMARK VINA RESULT:      -8.2      7.526      9.836
REMARK  Name = 
REMARK  5 active torsions:
REMARK  status: ('A' for Active; 'I' for Inactive)
REMARK    1  A    between atoms: C_2  and  C_3
REMARK    2  A    between atoms: C_3  and  C_4
REMARK    3  A    between atoms: C_7  and  N_8
REMARK    4  A    between atoms: N_16  and  C_17
REMARK    5  A    between atoms: C_17  and  C_18
REMARK                            x       y       z     vdW  Elec       q    Type
REMARK                         _______ _______ _______ _____ _____    ______ ____
ROOT
ATOM      1  O   UNL     1       1.289   9.898  19.922  0.00  0.00    +0.000 OA
ATOM      2  C   UNL     1       1.168   9.882  18.699  0.00  0.00    +0.000 C 
ATOM      3  N   UNL     1       0.038  10.319  18.045  0.00  0.00    +0.000 N 
ATOM      4  H   UNL     1      -0.044  10.190  17.045  0.00  0.00    +0.000 HD
ENDROOT
BRANCH   2   5
ATOM      5  C   UNL     1       2.270   9.377  17.784  0.00  0.00    +0.000 C 
BRANCH   5   6
ATOM      6  C   UNL     1       2.591   7.918  17.983  0.00  0.00    +0.000 A 
ATOM      7  C   UNL     1       1.704   7.075  18.657  0.00  0.00    +0.000 A 
ATOM      8  C   UNL     1       1.995   5.714  18.824  0.00  0.00    +0.000 A 
ATOM      9  C   UNL     1       3.186   5.157  18.342  0.00  0.00    +0.000 A 
ATOM     10  C   UNL     1       4.060   6.009  17.651  0.00  0.00    +0.000 A 
ATOM     11  C   UNL     1       3.766   7.366  17.466  0.00  0.00    +0.000 A 
BRANCH   9  12
ATOM     12  N   UNL     1       3.523   3.792  18.565  0.00  0.00    +0.000 N 
ATOM     13  C   UNL     1       4.288   3.368  19.717  0.00  0.00    +0.000 C 
ATOM     14  C   UNL     1       4.615   1.915  19.452  0.00  0.00    +0.000 C 
ATOM     15  C   UNL     1       3.456   1.436  18.602  0.00  0.00    +0.000 C 
ATOM     16  C   UNL     1       3.005   2.682  17.877  0.00  0.00    +0.000 C 
ATOM     17  O   UNL     1       2.280   2.647  16.892  0.00  0.00    +0.000 OA
ENDBRANCH   9  12
ENDBRANCH   5   6
ENDBRANCH   2   5
BRANCH   3  18
ATOM     18  C   UNL     1      -1.093  10.875  18.753  0.00  0.00    +0.000 C 
BRANCH  18  19
ATOM     19  C   UNL     1      -2.296  11.011  17.863  0.00  0.00    +0.000 A 
ATOM     20  C   UNL     1      -2.258  10.627  16.527  0.00  0.00    +0.000 A 
ATOM     21  C   UNL     1      -3.406  10.778  15.774  0.00  0.00    +0.000 A 
ATOM     22  N   UNL     1      -4.569  11.276  16.253  0.00  0.00    +0.000 NA
ATOM     23  C   UNL     1      -4.628  11.638  17.552  0.00  0.00    +0.000 A 
ATOM     24  N   UNL     1      -5.778  12.222  18.049  0.00  0.00    +0.000 N 
ATOM     25  C   UNL     1      -6.771  12.733  17.110  0.00  0.00    +0.000 C 
ATOM     26  C   UNL     1      -7.331  14.030  17.706  0.00  0.00    +0.000 C 
ATOM     27  C   UNL     1      -7.860  13.822  19.128  0.00  0.00    +0.000 C 
ATOM     28  C   UNL     1      -6.836  13.116  20.020  0.00  0.00    +0.000 C 
ATOM     29  C   UNL     1      -6.307  11.846  19.356  0.00  0.00    +0.000 C 
ATOM     30  C   UNL     1      -3.500  11.517  18.368  0.00  0.00    +0.000 A 
ENDBRANCH  18  19
ENDBRANCH   3  18
TORSDOF 5
ENDMDL
MODEL 9
REMARK VINA RESULT:      -8.1      2.052      2.724
REMARK  Name = 
REMARK  5 active torsions:
REMARK  status: ('A' for Active; 'I' for Inactive)
REMARK    1  A    between atoms: C_2  and  C_3
REMARK    2  A    between atoms: C_3  and  C_4
REMARK    3  A    between atoms: C_7  and  N_8
REMARK    4  A    between atoms: N_16  and  C_17
REMARK    5  A    between atoms: C_17  and  C_18
REMARK                            x       y       z     vdW  Elec       q    Type
REMARK                         _______ _______ _______ _____ _____    ______ ____
ROOT
ATOM      1  O   UNL     1       7.473   7.779  16.691  0.00  0.00    +0.000 OA
ATOM      2  C   UNL     1       7.916   7.692  17.834  0.00  0.00    +0.000 C 
ATOM      3  N   UNL     1       8.448   8.760  18.521  0.00  0.00    +0.000 N 
ATOM      4  H   UNL     1       8.888   8.610  19.419  0.00  0.00    +0.000 HD
ENDROOT
BRANCH   2   5
ATOM      5  C   UNL     1       7.914   6.384  18.605  0.00  0.00    +0.000 C 
BRANCH   5   6
ATOM      6  C   UNL     1       6.545   5.769  18.736  0.00  0.00    +0.000 A 
ATOM      7  C   UNL     1       6.363   4.562  19.416  0.00  0.00    +0.000 A 
ATOM      8  C   UNL     1       5.086   4.000  19.553  0.00  0.00    +0.000 A 
ATOM      9  C   UNL     1       3.956   4.614  19.001  0.00  0.00    +0.000 A 
ATOM     10  C   UNL     1       4.147   5.835  18.337  0.00  0.00    +0.000 A 
ATOM     11  C   UNL     1       5.419   6.408  18.212  0.00  0.00    +0.000 A 
BRANCH   9  12
ATOM     12  N   UNL     1       2.664   4.020  19.075  0.00  0.00    +0.000 N 
ATOM     13  C   UNL     1       2.347   2.785  18.393  0.00  0.00    +0.000 C 
ATOM     14  C   UNL     1       0.848   2.635  18.539  0.00  0.00    +0.000 C 
ATOM     15  C   UNL     1       0.543   3.337  19.847  0.00  0.00    +0.000 C 
ATOM     16  C   UNL     1       1.628   4.383  19.952  0.00  0.00    +0.000 C 
ATOM     17  O   UNL     1       1.559   5.331  20.722  0.00  0.00    +0.000 OA
ENDBRANCH   9  12
ENDBRANCH   5   6
ENDBRANCH   2   5
BRANCH   3  18
ATOM     18  C   UNL     1       8.490  10.092  17.960  0.00  0.00    +0.000 C 
BRANCH  18  19
ATOM     19  C   UNL     1       9.267  11.039  18.829  0.00  0.00    +0.000 A 
ATOM     20  C   UNL     1       9.461  10.789  20.183  0.00  0.00    +0.000 A 
ATOM     21  C   UNL     1      10.191  11.705  20.916  0.00  0.00    +0.000 A 
ATOM     22  N   UNL     1      10.731  12.833  20.400  0.00  0.00    +0.000 NA
ATOM     23  C   UNL     1      10.565  13.083  19.084  0.00  0.00    +0.000 A 
ATOM     24  N   UNL     1      11.039  14.265  18.546  0.00  0.00    +0.000 N 
ATOM     25  C   UNL     1      11.408  15.351  19.447  0.00  0.00    +0.000 C 
ATOM     26  C   UNL     1      10.967  16.661  18.781  0.00  0.00    +0.000 C 
ATOM     27  C   UNL     1      11.536  16.799  17.366  0.00  0.00    +0.000 C 
ATOM     28  C   UNL     1      11.274  15.550  16.521  0.00  0.00    +0.000 C 
ATOM     29  C   UNL     1      11.717  14.284  17.254  0.00  0.00    +0.000 C 
ATOM     30  C   UNL     1       9.833  12.200  18.287  0.00  0.00    +0.000 A 
ENDBRANCH  18  19
ENDBRANCH   3  18
TORSDOF 5
ENDMDL
