MODEL 1
REMARK VINA RESULT:      -8.8      0.000      0.000
REMARK  Name = 
REMARK  5 active torsions:
REMARK  status: ('A' for Active; 'I' for Inactive)
REMARK    1  A    between atoms: C_1  and  C_2
REMARK    2  A    between atoms: N_4  and  C_5
REMARK    3  A    between atoms: C_11  and  C_12
REMARK    4  A    between atoms: C_13  and  C_14
REMARK    5  A    between atoms: N_16  and  C_17
REMARK                            x       y       z     vdW  Elec       q    Type
REMARK                         _______ _______ _______ _____ _____    ______ ____
ROOT
ATOM      1  C   UNL     1       3.540   6.021  18.553  0.00  0.00    +0.000 C 
ATOM      2  O   UNL     1       3.709   5.851  19.757  0.00  0.00    +0.000 OA
ATOM      3  N   UNL     1       2.748   7.036  18.033  0.00  0.00    +0.000 N 
ATOM      4  H   UNL     1       2.618   7.047  17.038  0.00  0.00    +0.000 HD
ENDROOT
BRANCH   3   5
ATOM      5  C   UNL     1       2.049   8.059  18.730  0.00  0.00    +0.000 A 
ATOM      6  C   UNL     1       1.687   9.305  18.162  0.00  0.00    +0.000 A 
ATOM      7  C   UNL     1       1.012  10.293  18.908  0.00  0.00    +0.000 A 
ATOM      8  C   UNL     1       0.740  10.006  20.223  0.00  0.00    +0.000 A 
ATOM      9  N   UNL     1       0.152  10.792  21.208  0.00  0.00    +0.000 N 
ATOM     10  C   UNL     1       0.142  10.070  22.411  0.00  0.00    +0.000 A 
ATOM     11  O   UNL     1      -0.257  10.461  23.494  0.00  0.00    +0.000 OA
ATOM     12  N   UNL     1       0.702   8.814  22.130  0.00  0.00    +0.000 N 
ATOM     13  C   UNL     1       1.080   8.784  20.790  0.00  0.00    +0.000 A 
ATOM     14  C   UNL     1       1.713   7.791  20.071  0.00  0.00    +0.000 A 
ATOM     15  H   UNL     1      -0.174  11.741  21.123  0.00  0.00    +0.000 HD
ATOM     16  H   UNL     1       0.837   8.099  22.825  0.00  0.00    +0.000 HD
ENDBRANCH   3   5
BRANCH   1  23
ATOM     17  C   UNL     1       3.893   2.631  18.398  0.00  0.00    +0.000 C 
ATOM     18  C   UNL     1       4.315   3.711  17.469  0.00  0.00    +0.000 A 
ATOM     19  N   UNL     1       4.882   3.326  16.324  0.00  0.00    +0.000 NA
ATOM     20  N   UNL     1       5.303   4.458  15.718  0.00  0.00    +0.000 N 
ATOM     21  C   UNL     1       4.899   5.582  16.431  0.00  0.00    +0.000 A 
ATOM     22  C   UNL     1       5.095   6.987  15.966  0.00  0.00    +0.000 C 
ATOM     23  C   UNL     1       4.208   5.131  17.568  0.00  0.00    +0.000 A 
BRANCH  20  24
ATOM     24  C   UNL     1       6.005   4.350  14.478  0.00  0.00    +0.000 A 
ATOM     25  C   UNL     1       5.474   3.527  13.468  0.00  0.00    +0.000 A 
ATOM     26  C   UNL     1       6.073   3.480  12.207  0.00  0.00    +0.000 A 
ATOM     27  C   UNL     1       7.225   4.221  11.953  0.00  0.00    +0.000 A 
ATOM     28  C   UNL     1       7.797   4.983  12.970  0.00  0.00    +0.000 A 
ATOM     29  C   UNL     1       7.196   5.042  14.233  0.00  0.00    +0.000 A 
ENDBRANCH  20  24
ENDBRANCH   1  23
TORSDOF 3
ENDMDL
MODEL 2
REMARK VINA RESULT:      -8.7      1.215      1.774
REMARK  Name = 
REMARK  5 active torsions:
REMARK  status: ('A' for Active; 'I' for Inactive)
REMARK    1  A    between atoms: C_1  and  C_2
REMARK    2  A    between atoms: N_4  and  C_5
REMARK    3  A    between atoms: C_11  and  C_12
REMARK    4  A    between atoms: C_13  and  C_14
REMARK    5  A    between atoms: N_16  and  C_17
REMARK                            x       y       z     vdW  Elec       q    Type
REMARK                         _______ _______ _______ _____ _____    ______ ____
ROOT
ATOM      1  C   UNL     1       3.486   5.876  18.594  0.00  0.00    +0.000 C 
ATOM      2  O   UNL     1       3.638   5.655  19.791  0.00  0.00    +0.000 OA
ATOM      3  N   UNL     1       2.717   6.924  18.106  0.00  0.00    +0.000 N 
ATOM      4  H   UNL     1       2.599   6.978  17.111  0.00  0.00    +0.000 HD
ENDROOT
BRANCH   3   5
ATOM      5  C   UNL     1       2.028   7.931  18.836  0.00  0.00    +0.000 A 
ATOM      6  C   UNL     1       1.723   7.847  20.216  0.00  0.00    +0.000 A 
ATOM      7  C   UNL     1       1.017   8.868  20.885  0.00  0.00    +0.000 A 
ATOM      8  C   UNL     1       0.615   9.944  20.133  0.00  0.00    +0.000 A 
ATOM      9  N   UNL     1      -0.138  11.058  20.493  0.00  0.00    +0.000 N 
ATOM     10  C   UNL     1      -0.332  11.855  19.356  0.00  0.00    +0.000 A 
ATOM     11  O   UNL     1      -0.979  12.885  19.287  0.00  0.00    +0.000 OA
ATOM     12  N   UNL     1       0.350  11.225  18.303  0.00  0.00    +0.000 N 
ATOM     13  C   UNL     1       0.917  10.046  18.781  0.00  0.00    +0.000 A 
ATOM     14  C   UNL     1       1.632   9.073  18.113  0.00  0.00    +0.000 A 
ATOM     15  H   UNL     1      -0.538  11.263  21.394  0.00  0.00    +0.000 HD
ATOM     16  H   UNL     1       0.359  11.575  17.360  0.00  0.00    +0.000 HD
ENDBRANCH   3   5
BRANCH   1  23
ATOM     17  C   UNL     1       3.765   2.488  18.295  0.00  0.00    +0.000 C 
ATOM     18  C   UNL     1       4.226   3.599  17.420  0.00  0.00    +0.000 A 
ATOM     19  N   UNL     1       4.803   3.251  16.269  0.00  0.00    +0.000 NA
ATOM     20  N   UNL     1       5.259   4.398  15.720  0.00  0.00    +0.000 N 
ATOM     21  C   UNL     1       4.869   5.498  16.475  0.00  0.00    +0.000 A 
ATOM     22  C   UNL     1       5.104   6.918  16.076  0.00  0.00    +0.000 C 
ATOM     23  C   UNL     1       4.149   5.014  17.581  0.00  0.00    +0.000 A 
BRANCH  20  24
ATOM     24  C   UNL     1       5.978   4.328  14.487  0.00  0.00    +0.000 A 
ATOM     25  C   UNL     1       5.470   3.526  13.450  0.00  0.00    +0.000 A 
ATOM     26  C   UNL     1       6.086   3.516  12.196  0.00  0.00    +0.000 A 
ATOM     27  C   UNL     1       7.234   4.274  11.977  0.00  0.00    +0.000 A 
ATOM     28  C   UNL     1       7.784   5.015  13.020  0.00  0.00    +0.000 A 
ATOM     29  C   UNL     1       7.166   5.038  14.276  0.00  0.00    +0.000 A 
ENDBRANCH  20  24
ENDBRANCH   1  23
TORSDOF 3
ENDMDL
MODEL 3
REMARK VINA RESULT:      -8.5      1.954      2.757
REMARK  Name = 
REMARK  5 active torsions:
REMARK  status: ('A' for Active; 'I' for Inactive)
REMARK    1  A    between atoms: C_1  and  C_2
REMARK    2  A    between atoms: N_4  and  C_5
REMARK    3  A    between atoms: C_11  and  C_12
REMARK    4  A    between atoms: C_13  and  C_14
REMARK    5  A    between atoms: N_16  and  C_17
REMARK                            x       y       z     vdW  Elec       q    Type
REMARK                         _______ _______ _______ _____ _____    ______ ____
ROOT
ATOM      1  C   UNL     1       1.897   6.156  20.223  0.00  0.00    +0.000 C 
ATOM      2  O   UNL     1       0.964   5.604  20.799  0.00  0.00    +0.000 OA
ATOM      3  N   UNL     1       2.071   7.533  20.205  0.00  0.00    +0.000 N 
ATOM      4  H   UNL     1       2.826   7.889  19.648  0.00  0.00    +0.000 HD
ENDROOT
BRANCH   3   5
ATOM      5  C   UNL     1       1.290   8.533  20.846  0.00  0.00    +0.000 A 
ATOM      6  C   UNL     1       1.139   8.647  22.250  0.00  0.00    +0.000 A 
ATOM      7  C   UNL     1       0.332   9.648  22.831  0.00  0.00    +0.000 A 
ATOM      8  C   UNL     1      -0.323  10.497  21.974  0.00  0.00    +0.000 A 
ATOM      9  N   UNL     1      -1.221  11.525  22.244  0.00  0.00    +0.000 N 
ATOM     10  C   UNL     1      -1.661  12.068  21.027  0.00  0.00    +0.000 A 
ATOM     11  O   UNL     1      -2.482  12.955  20.878  0.00  0.00    +0.000 OA
ATOM     12  N   UNL     1      -0.984  11.375  20.011  0.00  0.00    +0.000 N 
ATOM     13  C   UNL     1      -0.175  10.403  20.596  0.00  0.00    +0.000 A 
ATOM     14  C   UNL     1       0.632   9.452  20.006  0.00  0.00    +0.000 A 
ATOM     15  H   UNL     1      -1.562  11.822  23.144  0.00  0.00    +0.000 HD
ATOM     16  H   UNL     1      -1.128  11.550  19.031  0.00  0.00    +0.000 HD
ENDBRANCH   3   5
BRANCH   1  23
ATOM     17  C   UNL     1       3.113   3.012  20.751  0.00  0.00    +0.000 C 
ATOM     18  C   UNL     1       3.398   4.016  19.693  0.00  0.00    +0.000 A 
ATOM     19  N   UNL     1       4.227   3.638  18.719  0.00  0.00    +0.000 NA
ATOM     20  N   UNL     1       4.444   4.739  17.966  0.00  0.00    +0.000 N 
ATOM     21  C   UNL     1       3.658   5.800  18.402  0.00  0.00    +0.000 A 
ATOM     22  C   UNL     1       3.568   7.119  17.708  0.00  0.00    +0.000 C 
ATOM     23  C   UNL     1       2.922   5.349  19.511  0.00  0.00    +0.000 A 
BRANCH  20  24
ATOM     24  C   UNL     1       5.348   4.646  16.864  0.00  0.00    +0.000 A 
ATOM     25  C   UNL     1       4.847   4.259  15.607  0.00  0.00    +0.000 A 
ATOM     26  C   UNL     1       5.677   4.261  14.484  0.00  0.00    +0.000 A 
ATOM     27  C   UNL     1       7.020   4.612  14.608  0.00  0.00    +0.000 A 
ATOM     28  C   UNL     1       7.540   4.928  15.862  0.00  0.00    +0.000 A 
ATOM     29  C   UNL     1       6.711   4.937  16.990  0.00  0.00    +0.000 A 
ENDBRANCH  20  24
ENDBRANCH   1  23
TORSDOF 3
ENDMDL
MODEL 4
REMARK VINA RESULT:      -8.2      2.383      9.894
REMARK  Name = 
REMARK  5 active torsions:
REMARK  status: ('A' for Active; 'I' for Inactive)
REMARK    1  A    between atoms: C_1  and  C_2
REMARK    2  A    between atoms: N_4  and  C_5
REMARK    3  A    between atoms: C_11  and  C_12
REMARK    4  A    between atoms: C_13  and  C_14
REMARK    5  A    between atoms: N_16  and  C_17
REMARK                            x       y       z     vdW  Elec       q    Type
REMARK                         _______ _______ _______ _____ _____    ______ ____
ROOT
ATOM      1  C   UNL     1       1.496   8.056  19.911  0.00  0.00    +0.000 C 
ATOM      2  O   UNL     1       1.563   7.211  20.800  0.00  0.00    +0.000 OA
ATOM      3  N   UNL     1       2.140   7.925  18.689  0.00  0.00    +0.000 N 
ATOM      4  H   UNL     1       2.079   8.702  18.056  0.00  0.00    +0.000 HD
ENDROOT
BRANCH   3   5
ATOM      5  C   UNL     1       2.923   6.838  18.212  0.00  0.00    +0.000 A 
ATOM      6  C   UNL     1       2.476   5.495  18.166  0.00  0.00    +0.000 A 
ATOM      7  C   UNL     1       3.304   4.452  17.702  0.00  0.00    +0.000 A 
ATOM      8  C   UNL     1       4.578   4.791  17.317  0.00  0.00    +0.000 A 
ATOM      9  N   UNL     1       5.626   3.986  16.881  0.00  0.00    +0.000 N 
ATOM     10  C   UNL     1       6.750   4.795  16.657  0.00  0.00    +0.000 A 
ATOM     11  O   UNL     1       7.858   4.426  16.312  0.00  0.00    +0.000 OA
ATOM     12  N   UNL     1       6.354   6.115  16.929  0.00  0.00    +0.000 N 
ATOM     13  C   UNL     1       5.025   6.105  17.346  0.00  0.00    +0.000 A 
ATOM     14  C   UNL     1       4.223   7.146  17.767  0.00  0.00    +0.000 A 
ATOM     15  H   UNL     1       5.630   2.984  16.783  0.00  0.00    +0.000 HD
ATOM     16  H   UNL     1       6.976   6.903  16.868  0.00  0.00    +0.000 HD
ENDBRANCH   3   5
BRANCH   1  23
ATOM     17  C   UNL     1      -0.352   9.946  17.754  0.00  0.00    +0.000 C 
ATOM     18  C   UNL     1      -0.131  10.052  19.220  0.00  0.00    +0.000 A 
ATOM     19  N   UNL     1      -0.810  11.008  19.858  0.00  0.00    +0.000 NA
ATOM     20  N   UNL     1      -0.350  11.005  21.129  0.00  0.00    +0.000 N 
ATOM     21  C   UNL     1       0.549   9.963  21.329  0.00  0.00    +0.000 A 
ATOM     22  C   UNL     1       1.143   9.608  22.652  0.00  0.00    +0.000 C 
ATOM     23  C   UNL     1       0.685   9.286  20.105  0.00  0.00    +0.000 A 
BRANCH  20  24
ATOM     24  C   UNL     1      -0.865  11.974  22.044  0.00  0.00    +0.000 A 
ATOM     25  C   UNL     1      -0.234  13.227  22.132  0.00  0.00    +0.000 A 
ATOM     26  C   UNL     1      -0.773  14.236  22.934  0.00  0.00    +0.000 A 
ATOM     27  C   UNL     1      -1.921  13.992  23.685  0.00  0.00    +0.000 A 
ATOM     28  C   UNL     1      -2.511  12.730  23.659  0.00  0.00    +0.000 A 
ATOM     29  C   UNL     1      -1.983  11.719  22.848  0.00  0.00    +0.000 A 
ENDBRANCH  20  24
ENDBRANCH   1  23
TORSDOF 3
ENDMDL
MODEL 5
REMARK VINA RESULT:      -8.2      2.505      9.877
REMARK  Name = 
REMARK  5 active torsions:
REMARK  status: ('A' for Active; 'I' for Inactive)
REMARK    1  A    between atoms: C_1  and  C_2
REMARK    2  A    between atoms: N_4  and  C_5
REMARK    3  A    between atoms: C_11  and  C_12
REMARK    4  A    between atoms: C_13  and  C_14
REMARK    5  A    between atoms: N_16  and  C_17
REMARK                            x       y       z     vdW  Elec       q    Type
REMARK                         _______ _______ _______ _____ _____    ______ ____
ROOT
ATOM      1  C   UNL     1       1.773   8.353  19.746  0.00  0.00    +0.000 C 
ATOM      2  O   UNL     1       1.912   7.562  20.673  0.00  0.00    +0.000 OA
ATOM      3  N   UNL     1       2.291   8.134  18.476  0.00  0.00    +0.000 N 
ATOM      4  H   UNL     1       2.182   8.873  17.806  0.00  0.00    +0.000 HD
ENDROOT
BRANCH   3   5
ATOM      5  C   UNL     1       3.004   7.002  17.994  0.00  0.00    +0.000 A 
ATOM      6  C   UNL     1       2.533   5.670  18.077  0.00  0.00    +0.000 A 
ATOM      7  C   UNL     1       3.293   4.582  17.600  0.00  0.00    +0.000 A 
ATOM      8  C   UNL     1       4.527   4.868  17.071  0.00  0.00    +0.000 A 
ATOM      9  N   UNL     1       5.513   4.014  16.585  0.00  0.00    +0.000 N 
ATOM     10  C   UNL     1       6.623   4.782  16.201  0.00  0.00    +0.000 A 
ATOM     11  O   UNL     1       7.685   4.368  15.772  0.00  0.00    +0.000 OA
ATOM     12  N   UNL     1       6.278   6.125  16.427  0.00  0.00    +0.000 N 
ATOM     13  C   UNL     1       4.998   6.171  16.973  0.00  0.00    +0.000 A 
ATOM     14  C   UNL     1       4.259   7.253  17.405  0.00  0.00    +0.000 A 
ATOM     15  H   UNL     1       5.491   3.008  16.550  0.00  0.00    +0.000 HD
ATOM     16  H   UNL     1       6.904   6.894  16.256  0.00  0.00    +0.000 HD
ENDBRANCH   3   5
BRANCH   1  23
ATOM     17  C   UNL     1       1.970  11.412  18.247  0.00  0.00    +0.000 C 
ATOM     18  C   UNL     1       1.047  10.877  19.283  0.00  0.00    +0.000 A 
ATOM     19  N   UNL     1       0.064  11.686  19.681  0.00  0.00    +0.000 NA
ATOM     20  N   UNL     1      -0.546  11.053  20.707  0.00  0.00    +0.000 N 
ATOM     21  C   UNL     1      -0.016   9.780  20.889  0.00  0.00    +0.000 A 
ATOM     22  C   UNL     1      -0.553   8.777  21.857  0.00  0.00    +0.000 C 
ATOM     23  C   UNL     1       1.007   9.611  19.940  0.00  0.00    +0.000 A 
BRANCH  20  24
ATOM     24  C   UNL     1      -1.621  11.714  21.377  0.00  0.00    +0.000 A 
ATOM     25  C   UNL     1      -2.608  12.354  20.607  0.00  0.00    +0.000 A 
ATOM     26  C   UNL     1      -3.729  12.917  21.222  0.00  0.00    +0.000 A 
ATOM     27  C   UNL     1      -3.857  12.882  22.609  0.00  0.00    +0.000 A 
ATOM     28  C   UNL     1      -2.848  12.313  23.383  0.00  0.00    +0.000 A 
ATOM     29  C   UNL     1      -1.727  11.737  22.773  0.00  0.00    +0.000 A 
ENDBRANCH  20  24
ENDBRANCH   1  23
TORSDOF 3
ENDMDL
MODEL 6
REMARK VINA RESULT:      -8.2      3.179      9.640
REMARK  Name = 
REMARK  5 active torsions:
REMARK  status: ('A' for Active; 'I' for Inactive)
REMARK    1  A    between atoms: C_1  and  C_2
REMARK    2  A    between atoms: N_4  and  C_5
REMARK    3  A    between atoms: C_11  and  C_12
REMARK    4  A    between atoms: C_13  and  C_14
REMARK    5  A    between atoms: N_16  and  C_17
REMARK                            x       y       z     vdW  Elec       q    Type
REMARK                         _______ _______ _______ _____ _____    ______ ____
ROOT
ATOM      1  C   UNL     1       1.816   9.142  18.328  0.00  0.00    +0.000 C 
ATOM      2  O   UNL     1       2.000   9.208  17.117  0.00  0.00    +0.000 OA
ATOM      3  N   UNL     1       2.189   8.047  19.095  0.00  0.00    +0.000 N 
ATOM      4  H   UNL     1       1.932   8.061  20.065  0.00  0.00    +0.000 HD
ENDROOT
BRANCH   3   5
ATOM      5  C   UNL     1       2.864   6.866  18.683  0.00  0.00    +0.000 A 
ATOM      6  C   UNL     1       3.905   6.837  17.723  0.00  0.00    +0.000 A 
ATOM      7  C   UNL     1       4.526   5.631  17.335  0.00  0.00    +0.000 A 
ATOM      8  C   UNL     1       4.060   4.476  17.913  0.00  0.00    +0.000 A 
ATOM      9  N   UNL     1       4.425   3.152  17.690  0.00  0.00    +0.000 N 
ATOM     10  C   UNL     1       3.621   2.324  18.487  0.00  0.00    +0.000 A 
ATOM     11  O   UNL     1       3.632   1.106  18.519  0.00  0.00    +0.000 OA
ATOM     12  N   UNL     1       2.785   3.172  19.230  0.00  0.00    +0.000 N 
ATOM     13  C   UNL     1       3.047   4.490  18.864  0.00  0.00    +0.000 A 
ATOM     14  C   UNL     1       2.447   5.661  19.281  0.00  0.00    +0.000 A 
ATOM     15  H   UNL     1       5.108   2.806  17.035  0.00  0.00    +0.000 HD
ATOM     16  H   UNL     1       2.087   2.838  19.873  0.00  0.00    +0.000 HD
ENDBRANCH   3   5
BRANCH   1  23
ATOM     17  C   UNL     1       2.365  12.509  18.259  0.00  0.00    +0.000 C 
ATOM     18  C   UNL     1       1.367  11.686  18.992  0.00  0.00    +0.000 A 
ATOM     19  N   UNL     1       0.464  12.348  19.717  0.00  0.00    +0.000 NA
ATOM     20  N   UNL     1      -0.232  11.408  20.392  0.00  0.00    +0.000 N 
ATOM     21  C   UNL     1       0.158  10.130  20.008  0.00  0.00    +0.000 A 
ATOM     22  C   UNL     1      -0.503   8.874  20.472  0.00  0.00    +0.000 C 
ATOM     23  C   UNL     1       1.180  10.273  19.054  0.00  0.00    +0.000 A 
BRANCH  20  24
ATOM     24  C   UNL     1      -1.248  11.832  21.303  0.00  0.00    +0.000 A 
ATOM     25  C   UNL     1      -2.374  12.507  20.797  0.00  0.00    +0.000 A 
ATOM     26  C   UNL     1      -3.436  12.842  21.640  0.00  0.00    +0.000 A 
ATOM     27  C   UNL     1      -3.370  12.541  22.999  0.00  0.00    +0.000 A 
ATOM     28  C   UNL     1      -2.228  11.937  23.520  0.00  0.00    +0.000 A 
ATOM     29  C   UNL     1      -1.165  11.589  22.679  0.00  0.00    +0.000 A 
ENDBRANCH  20  24
ENDBRANCH   1  23
TORSDOF 3
ENDMDL
MODEL 7
REMARK VINA RESULT:      -8.1      2.229      3.353
REMARK  Name = 
REMARK  5 active torsions:
REMARK  status: ('A' for Active; 'I' for Inactive)
REMARK    1  A    between atoms: C_1  and  C_2
REMARK    2  A    between atoms: N_4  and  C_5
REMARK    3  A    between atoms: C_11  and  C_12
REMARK    4  A    between atoms: C_13  and  C_14
REMARK    5  A    between atoms: N_16  and  C_17
REMARK                            x       y       z     vdW  Elec       q    Type
REMARK                         _______ _______ _______ _____ _____    ______ ____
ROOT
ATOM      1  C   UNL     1       1.464   6.422  20.453  0.00  0.00    +0.000 C 
ATOM      2  O   UNL     1       0.397   5.923  20.799  0.00  0.00    +0.000 OA
ATOM      3  N   UNL     1       1.763   7.767  20.619  0.00  0.00    +0.000 N 
ATOM      4  H   UNL     1       2.634   8.091  20.240  0.00  0.00    +0.000 HD
ENDROOT
BRANCH   3   5
ATOM      5  C   UNL     1       0.974   8.781  21.230  0.00  0.00    +0.000 A 
ATOM      6  C   UNL     1       0.746   8.881  22.624  0.00  0.00    +0.000 A 
ATOM      7  C   UNL     1      -0.064   9.896  23.173  0.00  0.00    +0.000 A 
ATOM      8  C   UNL     1      -0.646  10.775  22.292  0.00  0.00    +0.000 A 
ATOM      9  N   UNL     1      -1.529  11.825  22.526  0.00  0.00    +0.000 N 
ATOM     10  C   UNL     1      -1.883  12.395  21.295  0.00  0.00    +0.000 A 
ATOM     11  O   UNL     1      -2.670  13.307  21.112  0.00  0.00    +0.000 OA
ATOM     12  N   UNL     1      -1.169  11.697  20.308  0.00  0.00    +0.000 N 
ATOM     13  C   UNL     1      -0.422  10.695  20.924  0.00  0.00    +0.000 A 
ATOM     14  C   UNL     1       0.391   9.729  20.367  0.00  0.00    +0.000 A 
ATOM     15  H   UNL     1      -1.912  12.119  23.410  0.00  0.00    +0.000 HD
ATOM     16  H   UNL     1      -1.252  11.888  19.324  0.00  0.00    +0.000 HD
ENDBRANCH   3   5
BRANCH   1  23
ATOM     17  C   UNL     1       2.608   3.288  21.168  0.00  0.00    +0.000 C 
ATOM     18  C   UNL     1       2.970   4.250  20.094  0.00  0.00    +0.000 A 
ATOM     19  N   UNL     1       3.853   3.829  19.188  0.00  0.00    +0.000 NA
ATOM     20  N   UNL     1       4.130   4.899  18.412  0.00  0.00    +0.000 N 
ATOM     21  C   UNL     1       3.330   5.983  18.759  0.00  0.00    +0.000 A 
ATOM     22  C   UNL     1       3.299   7.277  18.014  0.00  0.00    +0.000 C 
ATOM     23  C   UNL     1       2.522   5.580  19.835  0.00  0.00    +0.000 A 
BRANCH  20  24
ATOM     24  C   UNL     1       5.099   4.758  17.371  0.00  0.00    +0.000 A 
ATOM     25  C   UNL     1       6.453   4.990  17.670  0.00  0.00    +0.000 A 
ATOM     26  C   UNL     1       7.440   4.757  16.709  0.00  0.00    +0.000 A 
ATOM     27  C   UNL     1       7.083   4.329  15.432  0.00  0.00    +0.000 A 
ATOM     28  C   UNL     1       5.738   4.165  15.107  0.00  0.00    +0.000 A 
ATOM     29  C   UNL     1       4.746   4.386  16.069  0.00  0.00    +0.000 A 
ENDBRANCH  20  24
ENDBRANCH   1  23
TORSDOF 3
ENDMDL
MODEL 8
REMARK VINA RESULT:      -8.1      2.698      3.691
REMARK  Name = 
REMARK  5 active torsions:
REMARK  status: ('A' for Active; 'I' for Inactive)
REMARK    1  A    between atoms: C_1  and  C_2
REMARK    2  A    between atoms: N_4  and  C_5
REMARK    3  A    between atoms: C_11  and  C_12
REMARK    4  A    between atoms: C_13  and  C_14
REMARK    5  A    between atoms: N_16  and  C_17
REMARK                            x       y       z     vdW  Elec       q    Type
REMARK                         _______ _______ _______ _____ _____    ______ ____
ROOT
ATOM      1  C   UNL     1       1.730   7.968  19.709  0.00  0.00    +0.000 C 
ATOM      2  O   UNL     1       1.433   8.157  20.885  0.00  0.00    +0.000 OA
ATOM      3  N   UNL     1       1.323   8.806  18.679  0.00  0.00    +0.000 N 
ATOM      4  H   UNL     1       1.560   8.526  17.744  0.00  0.00    +0.000 HD
ENDROOT
BRANCH   3   5
ATOM      5  C   UNL     1       0.569  10.008  18.760  0.00  0.00    +0.000 A 
ATOM      6  C   UNL     1      -0.845  10.061  18.792  0.00  0.00    +0.000 A 
ATOM      7  C   UNL     1      -1.542  11.286  18.851  0.00  0.00    +0.000 A 
ATOM      8  C   UNL     1      -0.788  12.433  18.854  0.00  0.00    +0.000 A 
ATOM      9  N   UNL     1      -1.186  13.766  18.845  0.00  0.00    +0.000 N 
ATOM     10  C   UNL     1      -0.041  14.576  18.795  0.00  0.00    +0.000 A 
ATOM     11  O   UNL     1      -0.009  15.792  18.732  0.00  0.00    +0.000 OA
ATOM     12  N   UNL     1       1.064  13.709  18.813  0.00  0.00    +0.000 N 
ATOM     13  C   UNL     1       0.600  12.396  18.834  0.00  0.00    +0.000 A 
ATOM     14  C   UNL     1       1.304  11.210  18.807  0.00  0.00    +0.000 A 
ATOM     15  H   UNL     1      -2.126  14.126  18.823  0.00  0.00    +0.000 HD
ATOM     16  H   UNL     1       2.017  14.027  18.764  0.00  0.00    +0.000 HD
ENDBRANCH   3   5
BRANCH   1  23
ATOM     17  C   UNL     1       1.974   4.798  20.947  0.00  0.00    +0.000 C 
ATOM     18  C   UNL     1       2.647   5.466  19.803  0.00  0.00    +0.000 A 
ATOM     19  N   UNL     1       3.454   4.707  19.060  0.00  0.00    +0.000 NA
ATOM     20  N   UNL     1       4.052   5.545  18.184  0.00  0.00    +0.000 N 
ATOM     21  C   UNL     1       3.536   6.831  18.298  0.00  0.00    +0.000 A 
ATOM     22  C   UNL     1       3.893   7.963  17.392  0.00  0.00    +0.000 C 
ATOM     23  C   UNL     1       2.576   6.809  19.325  0.00  0.00    +0.000 A 
BRANCH  20  24
ATOM     24  C   UNL     1       5.023   5.012  17.282  0.00  0.00    +0.000 A 
ATOM     25  C   UNL     1       4.602   4.569  16.016  0.00  0.00    +0.000 A 
ATOM     26  C   UNL     1       5.536   4.144  15.068  0.00  0.00    +0.000 A 
ATOM     27  C   UNL     1       6.892   4.119  15.387  0.00  0.00    +0.000 A 
ATOM     28  C   UNL     1       7.310   4.489  16.663  0.00  0.00    +0.000 A 
ATOM     29  C   UNL     1       6.381   4.926  17.614  0.00  0.00    +0.000 A 
ENDBRANCH  20  24
ENDBRANCH   1  23
TORSDOF 3
ENDMDL
MODEL 9
REMARK VINA RESULT:      -8.1      2.965      9.949
REMARK  Name = 
REMARK  5 active torsions:
REMARK  status: ('A' for Active; 'I' for Inactive)
REMARK    1  A    between atoms: C_1  and  C_2
REMARK    2  A    between atoms: N_4  and  C_5
REMARK    3  A    between atoms: C_11  and  C_12
REMARK    4  A    between atoms: C_13  and  C_14
REMARK    5  A    between atoms: N_16  and  C_17
REMARK                            x       y       z     vdW  Elec       q    Type
REMARK                         _______ _______ _______ _____ _____    ______ ____
ROOT
ATOM      1  C   UNL     1       1.329   9.574  18.292  0.00  0.00    +0.000 C 
ATOM      2  O   UNL     1       2.099  10.088  17.486  0.00  0.00    +0.000 OA
ATOM      3  N   UNL     1       1.523   8.308  18.827  0.00  0.00    +0.000 N 
ATOM      4  H   UNL     1       0.800   7.950  19.424  0.00  0.00    +0.000 HD
ENDROOT
BRANCH   3   5
ATOM      5  C   UNL     1       2.606   7.412  18.612  0.00  0.00    +0.000 A 
ATOM      6  C   UNL     1       2.932   6.335  19.472  0.00  0.00    +0.000 A 
ATOM      7  C   UNL     1       4.033   5.490  19.220  0.00  0.00    +0.000 A 
ATOM      8  C   UNL     1       4.795   5.771  18.113  0.00  0.00    +0.000 A 
ATOM      9  N   UNL     1       5.957   5.164  17.648  0.00  0.00    +0.000 N 
ATOM     10  C   UNL     1       6.393   5.847  16.503  0.00  0.00    +0.000 A 
ATOM     11  O   UNL     1       7.400   5.621  15.856  0.00  0.00    +0.000 OA
ATOM     12  N   UNL     1       5.451   6.859  16.257  0.00  0.00    +0.000 N 
ATOM     13  C   UNL     1       4.481   6.818  17.255  0.00  0.00    +0.000 A 
ATOM     14  C   UNL     1       3.391   7.638  17.464  0.00  0.00    +0.000 A 
ATOM     15  H   UNL     1       6.459   4.398  18.066  0.00  0.00    +0.000 HD
ATOM     16  H   UNL     1       5.531   7.518  15.501  0.00  0.00    +0.000 HD
ENDBRANCH   3   5
BRANCH   1  23
ATOM     17  C   UNL     1      -1.819   9.868  17.010  0.00  0.00    +0.000 C 
ATOM     18  C   UNL     1      -1.207  10.398  18.257  0.00  0.00    +0.000 A 
ATOM     19  N   UNL     1      -2.016  11.063  19.084  0.00  0.00    +0.000 NA
ATOM     20  N   UNL     1      -1.224  11.563  20.057  0.00  0.00    +0.000 N 
ATOM     21  C   UNL     1       0.085  11.118  19.909  0.00  0.00    +0.000 A 
ATOM     22  C   UNL     1       1.180  11.387  20.888  0.00  0.00    +0.000 C 
ATOM     23  C   UNL     1       0.126  10.312  18.758  0.00  0.00    +0.000 A 
BRANCH  20  24
ATOM     24  C   UNL     1      -1.818  12.376  21.071  0.00  0.00    +0.000 A 
ATOM     25  C   UNL     1      -2.189  13.694  20.751  0.00  0.00    +0.000 A 
ATOM     26  C   UNL     1      -2.869  14.483  21.683  0.00  0.00    +0.000 A 
ATOM     27  C   UNL     1      -3.150  13.980  22.951  0.00  0.00    +0.000 A 
ATOM     28  C   UNL     1      -2.722  12.701  23.299  0.00  0.00    +0.000 A 
ATOM     29  C   UNL     1      -2.050  11.901  22.367  0.00  0.00    +0.000 A 
ENDBRANCH  20  24
ENDBRANCH   1  23
TORSDOF 3
ENDMDL
