MODEL 1
REMARK VINA RESULT:      -8.1      0.000      0.000
REMARK  Name = 
REMARK  5 active torsions:
REMARK  status: ('A' for Active; 'I' for Inactive)
REMARK    1  A    between atoms: C_2  and  C_16
REMARK    2  A    between atoms: C_7  and  C_8
REMARK    3  A    between atoms: C_19  and  S_20
REMARK    4  A    between atoms: S_20  and  N_23
REMARK    5  A    between atoms: N_23  and  C_24
REMARK                            x       y       z     vdW  Elec       q    Type
REMARK                         _______ _______ _______ _____ _____    ______ ____
ROOT
ATOM      1  O   UNL     1       1.897   9.956  18.936  0.00  0.00    +0.000 OA
ATOM      2  C   UNL     1       1.634   8.839  19.365  0.00  0.00    +0.000 C 
ATOM      3  N   UNL     1       0.727   8.544  20.364  0.00  0.00    +0.000 N 
ATOM      4  C   UNL     1       0.009   9.541  21.025  0.00  0.00    +0.000 A 
ATOM      5  C   UNL     1      -0.715  10.494  20.328  0.00  0.00    +0.000 A 
ATOM      6  C   UNL     1      -1.377  11.486  21.051  0.00  0.00    +0.000 A 
ATOM      7  C   UNL     1      -1.254  11.554  22.445  0.00  0.00    +0.000 A 
ATOM      8  C   UNL     1      -0.542  10.507  23.035  0.00  0.00    +0.000 A 
ATOM      9  N   UNL     1       0.051   9.481  22.367  0.00  0.00    +0.000 NA
ATOM     10  H   UNL     1       0.960   7.766  20.966  0.00  0.00    +0.000 HD
ENDROOT
BRANCH   7  11
ATOM     11  C   UNL     1      -1.792  12.668  23.247  0.00  0.00    +0.000 A 
ATOM     12  C   UNL     1      -3.139  12.754  23.605  0.00  0.00    +0.000 A 
ATOM     13  C   UNL     1      -3.597  13.871  24.299  0.00  0.00    +0.000 A 
ATOM     14  C   UNL     1      -2.704  14.880  24.624  0.00  0.00    +0.000 A 
ATOM     15  C   UNL     1      -1.384  14.724  24.246  0.00  0.00    +0.000 A 
ATOM     16  N   UNL     1      -0.913  13.652  23.567  0.00  0.00    +0.000 NA
ENDBRANCH   7  11
BRANCH   2  17
ATOM     17  C   UNL     1       2.382   7.667  18.841  0.00  0.00    +0.000 A 
ATOM     18  C   UNL     1       2.319   6.442  19.512  0.00  0.00    +0.000 A 
ATOM     19  C   UNL     1       3.053   5.350  19.037  0.00  0.00    +0.000 A 
ATOM     20  C   UNL     1       3.854   5.500  17.903  0.00  0.00    +0.000 A 
ATOM     21  C   UNL     1       3.927   6.722  17.231  0.00  0.00    +0.000 A 
ATOM     22  C   UNL     1       3.185   7.807  17.696  0.00  0.00    +0.000 A 
BRANCH  20  23
ATOM     23  S   UNL     1       4.823   4.133  17.314  0.00  0.00    +0.000 S 
ATOM     24  O   UNL     1       4.067   2.924  17.566  0.00  0.00    +0.000 OA
ATOM     25  O   UNL     1       5.335   4.447  16.006  0.00  0.00    +0.000 OA
BRANCH  23  26
ATOM     26  N   UNL     1       6.130   4.115  18.399  0.00  0.00    +0.000 NA
ATOM     27  H   UNL     1       6.280   3.173  18.757  0.00  0.00    +0.000 HD
BRANCH  26  28
ATOM     28  C   UNL     1       7.307   4.894  18.030  0.00  0.00    +0.000 C 
ATOM     29  C   UNL     1       8.147   5.549  19.089  0.00  0.00    +0.000 C 
ATOM     30  C   UNL     1       7.304   6.390  18.178  0.00  0.00    +0.000 C 
ENDBRANCH  26  28
ENDBRANCH  23  26
ENDBRANCH  20  23
ENDBRANCH   2  17
TORSDOF 5
ENDMDL
MODEL 2
REMARK VINA RESULT:      -8.0      2.950      3.699
REMARK  Name = 
REMARK  5 active torsions:
REMARK  status: ('A' for Active; 'I' for Inactive)
REMARK    1  A    between atoms: C_2  and  C_16
REMARK    2  A    between atoms: C_7  and  C_8
REMARK    3  A    between atoms: C_19  and  S_20
REMARK    4  A    between atoms: S_20  and  N_23
REMARK    5  A    between atoms: N_23  and  C_24
REMARK                            x       y       z     vdW  Elec       q    Type
REMARK                         _______ _______ _______ _____ _____    ______ ____
ROOT
ATOM      1  O   UNL     1       1.959   7.764  19.880  0.00  0.00    +0.000 OA
ATOM      2  C   UNL     1       2.180   7.956  18.690  0.00  0.00    +0.000 C 
ATOM      3  N   UNL     1       1.592   8.924  17.900  0.00  0.00    +0.000 N 
ATOM      4  C   UNL     1       0.627   9.799  18.402  0.00  0.00    +0.000 A 
ATOM      5  C   UNL     1       0.851  10.541  19.550  0.00  0.00    +0.000 A 
ATOM      6  C   UNL     1      -0.172  11.365  20.019  0.00  0.00    +0.000 A 
ATOM      7  C   UNL     1      -1.419  11.388  19.379  0.00  0.00    +0.000 A 
ATOM      8  C   UNL     1      -1.502  10.638  18.203  0.00  0.00    +0.000 A 
ATOM      9  N   UNL     1      -0.500   9.884  17.676  0.00  0.00    +0.000 NA
ATOM     10  H   UNL     1       1.429   8.677  16.933  0.00  0.00    +0.000 HD
ENDROOT
BRANCH   7  11
ATOM     11  C   UNL     1      -2.586  12.110  19.917  0.00  0.00    +0.000 A 
ATOM     12  C   UNL     1      -2.568  12.745  21.161  0.00  0.00    +0.000 A 
ATOM     13  C   UNL     1      -3.728  13.345  21.644  0.00  0.00    +0.000 A 
ATOM     14  C   UNL     1      -4.883  13.302  20.879  0.00  0.00    +0.000 A 
ATOM     15  C   UNL     1      -4.826  12.664  19.654  0.00  0.00    +0.000 A 
ATOM     16  N   UNL     1      -3.714  12.069  19.163  0.00  0.00    +0.000 NA
ENDBRANCH   7  11
BRANCH   2  17
ATOM     17  C   UNL     1       3.110   7.049  17.970  0.00  0.00    +0.000 A 
ATOM     18  C   UNL     1       2.953   5.663  18.073  0.00  0.00    +0.000 A 
ATOM     19  C   UNL     1       3.852   4.811  17.423  0.00  0.00    +0.000 A 
ATOM     20  C   UNL     1       4.908   5.356  16.687  0.00  0.00    +0.000 A 
ATOM     21  C   UNL     1       5.074   6.739  16.585  0.00  0.00    +0.000 A 
ATOM     22  C   UNL     1       4.171   7.588  17.221  0.00  0.00    +0.000 A 
BRANCH  20  23
ATOM     23  S   UNL     1       6.080   4.285  15.891  0.00  0.00    +0.000 S 
ATOM     24  O   UNL     1       7.402   4.798  16.181  0.00  0.00    +0.000 OA
ATOM     25  O   UNL     1       5.724   2.916  16.157  0.00  0.00    +0.000 OA
BRANCH  23  26
ATOM     26  N   UNL     1       5.798   4.591  14.244  0.00  0.00    +0.000 NA
ATOM     27  H   UNL     1       6.092   5.537  14.004  0.00  0.00    +0.000 HD
BRANCH  26  28
ATOM     28  C   UNL     1       6.126   3.522  13.307  0.00  0.00    +0.000 C 
ATOM     29  C   UNL     1       6.762   3.841  11.984  0.00  0.00    +0.000 C 
ATOM     30  C   UNL     1       5.342   3.362  12.034  0.00  0.00    +0.000 C 
ENDBRANCH  26  28
ENDBRANCH  23  26
ENDBRANCH  20  23
ENDBRANCH   2  17
TORSDOF 5
ENDMDL
MODEL 3
REMARK VINA RESULT:      -7.9      2.884      3.828
REMARK  Name = 
REMARK  5 active torsions:
REMARK  status: ('A' for Active; 'I' for Inactive)
REMARK    1  A    between atoms: C_2  and  C_16
REMARK    2  A    between atoms: C_7  and  C_8
REMARK    3  A    between atoms: C_19  and  S_20
REMARK    4  A    between atoms: S_20  and  N_23
REMARK    5  A    between atoms: N_23  and  C_24
REMARK                            x       y       z     vdW  Elec       q    Type
REMARK                         _______ _______ _______ _____ _____    ______ ____
ROOT
ATOM      1  O   UNL     1       2.089   7.220  19.638  0.00  0.00    +0.000 OA
ATOM      2  C   UNL     1       2.568   7.685  18.611  0.00  0.00    +0.000 C 
ATOM      3  N   UNL     1       2.164   8.843  17.976  0.00  0.00    +0.000 N 
ATOM      4  C   UNL     1       1.107   9.616  18.458  0.00  0.00    +0.000 A 
ATOM      5  C   UNL     1       1.063  10.045  19.773  0.00  0.00    +0.000 A 
ATOM      6  C   UNL     1      -0.044  10.780  20.198  0.00  0.00    +0.000 A 
ATOM      7  C   UNL     1      -1.116  11.019  19.328  0.00  0.00    +0.000 A 
ATOM      8  C   UNL     1      -0.930  10.582  18.014  0.00  0.00    +0.000 A 
ATOM      9  N   UNL     1       0.169   9.930  17.548  0.00  0.00    +0.000 NA
ATOM     10  H   UNL     1       2.224   8.847  16.967  0.00  0.00    +0.000 HD
ENDROOT
BRANCH   7  11
ATOM     11  C   UNL     1      -2.378  11.644  19.761  0.00  0.00    +0.000 A 
ATOM     12  C   UNL     1      -3.510  11.696  18.944  0.00  0.00    +0.000 A 
ATOM     13  C   UNL     1      -4.648  12.368  19.386  0.00  0.00    +0.000 A 
ATOM     14  C   UNL     1      -4.636  12.973  20.633  0.00  0.00    +0.000 A 
ATOM     15  C   UNL     1      -3.485  12.873  21.392  0.00  0.00    +0.000 A 
ATOM     16  N   UNL     1      -2.365  12.232  20.985  0.00  0.00    +0.000 NA
ENDBRANCH   7  11
BRANCH   2  17
ATOM     17  C   UNL     1       3.641   6.936  17.908  0.00  0.00    +0.000 A 
ATOM     18  C   UNL     1       4.217   5.812  18.509  0.00  0.00    +0.000 A 
ATOM     19  C   UNL     1       5.252   5.130  17.861  0.00  0.00    +0.000 A 
ATOM     20  C   UNL     1       5.711   5.589  16.624  0.00  0.00    +0.000 A 
ATOM     21  C   UNL     1       5.145   6.715  16.020  0.00  0.00    +0.000 A 
ATOM     22  C   UNL     1       4.104   7.386  16.660  0.00  0.00    +0.000 A 
BRANCH  20  23
ATOM     23  S   UNL     1       7.052   4.757  15.810  0.00  0.00    +0.000 S 
ATOM     24  O   UNL     1       7.676   5.710  14.917  0.00  0.00    +0.000 OA
ATOM     25  O   UNL     1       7.814   4.024  16.787  0.00  0.00    +0.000 OA
BRANCH  23  26
ATOM     26  N   UNL     1       6.244   3.635  14.823  0.00  0.00    +0.000 NA
ATOM     27  H   UNL     1       5.526   3.146  15.357  0.00  0.00    +0.000 HD
BRANCH  26  28
ATOM     28  C   UNL     1       5.906   4.067  13.472  0.00  0.00    +0.000 C 
ATOM     29  C   UNL     1       5.207   3.130  12.527  0.00  0.00    +0.000 C 
ATOM     30  C   UNL     1       6.640   3.501  12.288  0.00  0.00    +0.000 C 
ENDBRANCH  26  28
ENDBRANCH  23  26
ENDBRANCH  20  23
ENDBRANCH   2  17
TORSDOF 5
ENDMDL
MODEL 4
REMARK VINA RESULT:      -7.9      1.435      1.522
REMARK  Name = 
REMARK  5 active torsions:
REMARK  status: ('A' for Active; 'I' for Inactive)
REMARK    1  A    between atoms: C_2  and  C_16
REMARK    2  A    between atoms: C_7  and  C_8
REMARK    3  A    between atoms: C_19  and  S_20
REMARK    4  A    between atoms: S_20  and  N_23
REMARK    5  A    between atoms: N_23  and  C_24
REMARK                            x       y       z     vdW  Elec       q    Type
REMARK                         _______ _______ _______ _____ _____    ______ ____
ROOT
ATOM      1  O   UNL     1       1.951   9.657  19.472  0.00  0.00    +0.000 OA
ATOM      2  C   UNL     1       1.520   8.594  19.902  0.00  0.00    +0.000 C 
ATOM      3  N   UNL     1       0.484   8.441  20.803  0.00  0.00    +0.000 N 
ATOM      4  C   UNL     1      -0.185   9.538  21.348  0.00  0.00    +0.000 A 
ATOM      5  C   UNL     1      -0.718  10.533  20.547  0.00  0.00    +0.000 A 
ATOM      6  C   UNL     1      -1.339  11.621  21.161  0.00  0.00    +0.000 A 
ATOM      7  C   UNL     1      -1.360  11.734  22.557  0.00  0.00    +0.000 A 
ATOM      8  C   UNL     1      -0.837  10.643  23.255  0.00  0.00    +0.000 A 
ATOM      9  N   UNL     1      -0.294   9.531  22.688  0.00  0.00    +0.000 NA
ATOM     10  H   UNL     1       0.561   7.669  21.450  0.00  0.00    +0.000 HD
ENDROOT
BRANCH   7  11
ATOM     11  C   UNL     1      -1.852  12.933  23.259  0.00  0.00    +0.000 A 
ATOM     12  C   UNL     1      -3.199  13.116  23.582  0.00  0.00    +0.000 A 
ATOM     13  C   UNL     1      -3.609  14.305  24.178  0.00  0.00    +0.000 A 
ATOM     14  C   UNL     1      -2.670  15.290  24.444  0.00  0.00    +0.000 A 
ATOM     15  C   UNL     1      -1.353  15.038  24.107  0.00  0.00    +0.000 A 
ATOM     16  N   UNL     1      -0.928  13.894  23.522  0.00  0.00    +0.000 NA
ENDBRANCH   7  11
BRANCH   2  17
ATOM     17  C   UNL     1       2.183   7.327  19.501  0.00  0.00    +0.000 A 
ATOM     18  C   UNL     1       2.119   6.209  20.339  0.00  0.00    +0.000 A 
ATOM     19  C   UNL     1       2.775   5.028  19.976  0.00  0.00    +0.000 A 
ATOM     20  C   UNL     1       3.501   4.983  18.783  0.00  0.00    +0.000 A 
ATOM     21  C   UNL     1       3.576   6.097  17.944  0.00  0.00    +0.000 A 
ATOM     22  C   UNL     1       2.911   7.270  18.300  0.00  0.00    +0.000 A 
BRANCH  20  23
ATOM     23  S   UNL     1       4.373   3.504  18.331  0.00  0.00    +0.000 S 
ATOM     24  O   UNL     1       4.929   2.940  19.543  0.00  0.00    +0.000 OA
ATOM     25  O   UNL     1       3.552   2.726  17.441  0.00  0.00    +0.000 OA
BRANCH  23  26
ATOM     26  N   UNL     1       5.686   4.110  17.439  0.00  0.00    +0.000 NA
ATOM     27  H   UNL     1       6.561   3.931  17.932  0.00  0.00    +0.000 HD
BRANCH  26  28
ATOM     28  C   UNL     1       5.664   3.890  15.998  0.00  0.00    +0.000 C 
ATOM     29  C   UNL     1       6.817   4.336  15.143  0.00  0.00    +0.000 C 
ATOM     30  C   UNL     1       5.502   5.050  15.055  0.00  0.00    +0.000 C 
ENDBRANCH  26  28
ENDBRANCH  23  26
ENDBRANCH  20  23
ENDBRANCH   2  17
TORSDOF 5
ENDMDL
MODEL 5
REMARK VINA RESULT:      -7.9      1.713      2.310
REMARK  Name = 
REMARK  5 active torsions:
REMARK  status: ('A' for Active; 'I' for Inactive)
REMARK    1  A    between atoms: C_2  and  C_16
REMARK    2  A    between atoms: C_7  and  C_8
REMARK    3  A    between atoms: C_19  and  S_20
REMARK    4  A    between atoms: S_20  and  N_23
REMARK    5  A    between atoms: N_23  and  C_24
REMARK                            x       y       z     vdW  Elec       q    Type
REMARK                         _______ _______ _______ _____ _____    ______ ____
ROOT
ATOM      1  O   UNL     1       1.090   8.130  21.339  0.00  0.00    +0.000 OA
ATOM      2  C   UNL     1       1.445   8.316  20.182  0.00  0.00    +0.000 C 
ATOM      3  N   UNL     1       1.086   9.383  19.382  0.00  0.00    +0.000 N 
ATOM      4  C   UNL     1       0.224  10.383  19.832  0.00  0.00    +0.000 A 
ATOM      5  C   UNL     1       0.451  11.053  21.023  0.00  0.00    +0.000 A 
ATOM      6  C   UNL     1      -0.473  12.014  21.433  0.00  0.00    +0.000 A 
ATOM      7  C   UNL     1      -1.638  12.246  20.688  0.00  0.00    +0.000 A 
ATOM      8  C   UNL     1      -1.726  11.548  19.482  0.00  0.00    +0.000 A 
ATOM      9  N   UNL     1      -0.806  10.661  19.014  0.00  0.00    +0.000 NA
ATOM     10  H   UNL     1       0.977   9.189  18.396  0.00  0.00    +0.000 HD
ENDROOT
BRANCH   7  11
ATOM     11  C   UNL     1      -2.726  13.125  21.151  0.00  0.00    +0.000 A 
ATOM     12  C   UNL     1      -2.610  13.931  22.286  0.00  0.00    +0.000 A 
ATOM     13  C   UNL     1      -3.703  14.682  22.712  0.00  0.00    +0.000 A 
ATOM     14  C   UNL     1      -4.889  14.618  21.998  0.00  0.00    +0.000 A 
ATOM     15  C   UNL     1      -4.930  13.807  20.880  0.00  0.00    +0.000 A 
ATOM     16  N   UNL     1      -3.886  13.063  20.447  0.00  0.00    +0.000 NA
ENDBRANCH   7  11
BRANCH   2  17
ATOM     17  C   UNL     1       2.288   7.294  19.510  0.00  0.00    +0.000 A 
ATOM     18  C   UNL     1       2.915   7.595  18.296  0.00  0.00    +0.000 A 
ATOM     19  C   UNL     1       3.678   6.619  17.647  0.00  0.00    +0.000 A 
ATOM     20  C   UNL     1       3.795   5.347  18.213  0.00  0.00    +0.000 A 
ATOM     21  C   UNL     1       3.167   5.037  19.422  0.00  0.00    +0.000 A 
ATOM     22  C   UNL     1       2.417   6.014  20.075  0.00  0.00    +0.000 A 
BRANCH  20  23
ATOM     23  S   UNL     1       4.727   4.086  17.378  0.00  0.00    +0.000 S 
ATOM     24  O   UNL     1       4.121   2.812  17.703  0.00  0.00    +0.000 OA
ATOM     25  O   UNL     1       4.953   4.491  16.016  0.00  0.00    +0.000 OA
BRANCH  23  26
ATOM     26  N   UNL     1       6.216   4.129  18.195  0.00  0.00    +0.000 NA
ATOM     27  H   UNL     1       6.932   3.648  17.651  0.00  0.00    +0.000 HD
BRANCH  26  28
ATOM     28  C   UNL     1       6.583   5.388  18.834  0.00  0.00    +0.000 C 
ATOM     29  C   UNL     1       7.442   6.385  18.110  0.00  0.00    +0.000 C 
ATOM     30  C   UNL     1       8.000   5.628  19.277  0.00  0.00    +0.000 C 
ENDBRANCH  26  28
ENDBRANCH  23  26
ENDBRANCH  20  23
ENDBRANCH   2  17
TORSDOF 5
ENDMDL
MODEL 6
REMARK VINA RESULT:      -7.8      0.937      1.504
REMARK  Name = 
REMARK  5 active torsions:
REMARK  status: ('A' for Active; 'I' for Inactive)
REMARK    1  A    between atoms: C_2  and  C_16
REMARK    2  A    between atoms: C_7  and  C_8
REMARK    3  A    between atoms: C_19  and  S_20
REMARK    4  A    between atoms: S_20  and  N_23
REMARK    5  A    between atoms: N_23  and  C_24
REMARK                            x       y       z     vdW  Elec       q    Type
REMARK                         _______ _______ _______ _____ _____    ______ ____
ROOT
ATOM      1  O   UNL     1       1.721  10.091  18.621  0.00  0.00    +0.000 OA
ATOM      2  C   UNL     1       1.514   9.060  19.249  0.00  0.00    +0.000 C 
ATOM      3  N   UNL     1       0.640   8.914  20.309  0.00  0.00    +0.000 N 
ATOM      4  C   UNL     1      -0.107   9.986  20.800  0.00  0.00    +0.000 A 
ATOM      5  C   UNL     1      -0.884  10.770  19.964  0.00  0.00    +0.000 A 
ATOM      6  C   UNL     1      -1.573  11.850  20.516  0.00  0.00    +0.000 A 
ATOM      7  C   UNL     1      -1.426  12.171  21.872  0.00  0.00    +0.000 A 
ATOM      8  C   UNL     1      -0.659  11.275  22.620  0.00  0.00    +0.000 A 
ATOM      9  N   UNL     1      -0.036  10.169  22.129  0.00  0.00    +0.000 NA
ATOM     10  H   UNL     1       0.916   8.266  21.033  0.00  0.00    +0.000 HD
ENDROOT
BRANCH   7  11
ATOM     11  C   UNL     1      -1.995  13.389  22.476  0.00  0.00    +0.000 A 
ATOM     12  C   UNL     1      -1.434  14.005  23.597  0.00  0.00    +0.000 A 
ATOM     13  C   UNL     1      -2.063  15.111  24.163  0.00  0.00    +0.000 A 
ATOM     14  C   UNL     1      -3.239  15.583  23.601  0.00  0.00    +0.000 A 
ATOM     15  C   UNL     1      -3.732  14.931  22.487  0.00  0.00    +0.000 A 
ATOM     16  N   UNL     1      -3.144  13.852  21.920  0.00  0.00    +0.000 NA
ENDBRANCH   7  11
BRANCH   2  17
ATOM     17  C   UNL     1       2.299   7.842  18.922  0.00  0.00    +0.000 A 
ATOM     18  C   UNL     1       3.039   7.786  17.737  0.00  0.00    +0.000 A 
ATOM     19  C   UNL     1       3.749   6.624  17.414  0.00  0.00    +0.000 A 
ATOM     20  C   UNL     1       3.699   5.525  18.276  0.00  0.00    +0.000 A 
ATOM     21  C   UNL     1       2.956   5.572  19.458  0.00  0.00    +0.000 A 
ATOM     22  C   UNL     1       2.260   6.734  19.786  0.00  0.00    +0.000 A 
BRANCH  20  23
ATOM     23  S   UNL     1       4.561   4.030  17.857  0.00  0.00    +0.000 S 
ATOM     24  O   UNL     1       3.800   2.924  18.400  0.00  0.00    +0.000 OA
ATOM     25  O   UNL     1       4.942   4.078  16.471  0.00  0.00    +0.000 OA
BRANCH  23  26
ATOM     26  N   UNL     1       5.973   4.146  18.796  0.00  0.00    +0.000 NA
ATOM     27  H   UNL     1       6.638   3.423  18.524  0.00  0.00    +0.000 HD
BRANCH  26  28
ATOM     28  C   UNL     1       6.493   5.486  19.045  0.00  0.00    +0.000 C 
ATOM     29  C   UNL     1       7.396   6.148  18.044  0.00  0.00    +0.000 C 
ATOM     30  C   UNL     1       7.949   5.688  19.358  0.00  0.00    +0.000 C 
ENDBRANCH  26  28
ENDBRANCH  23  26
ENDBRANCH  20  23
ENDBRANCH   2  17
TORSDOF 5
ENDMDL
MODEL 7
REMARK VINA RESULT:      -7.8      2.226      2.679
REMARK  Name = 
REMARK  5 active torsions:
REMARK  status: ('A' for Active; 'I' for Inactive)
REMARK    1  A    between atoms: C_2  and  C_16
REMARK    2  A    between atoms: C_7  and  C_8
REMARK    3  A    between atoms: C_19  and  S_20
REMARK    4  A    between atoms: S_20  and  N_23
REMARK    5  A    between atoms: N_23  and  C_24
REMARK                            x       y       z     vdW  Elec       q    Type
REMARK                         _______ _______ _______ _____ _____    ______ ____
ROOT
ATOM      1  O   UNL     1       1.664   9.732  17.562  0.00  0.00    +0.000 OA
ATOM      2  C   UNL     1       1.674   8.976  18.526  0.00  0.00    +0.000 C 
ATOM      3  N   UNL     1       0.948   9.133  19.691  0.00  0.00    +0.000 N 
ATOM      4  C   UNL     1       0.113  10.232  19.895  0.00  0.00    +0.000 A 
ATOM      5  C   UNL     1      -0.853  10.590  18.970  0.00  0.00    +0.000 A 
ATOM      6  C   UNL     1      -1.626  11.724  19.219  0.00  0.00    +0.000 A 
ATOM      7  C   UNL     1      -1.382  12.518  20.348  0.00  0.00    +0.000 A 
ATOM      8  C   UNL     1      -0.420  12.024  21.231  0.00  0.00    +0.000 A 
ATOM      9  N   UNL     1       0.298  10.881  21.057  0.00  0.00    +0.000 NA
ATOM     10  H   UNL     1       1.389   8.814  20.542  0.00  0.00    +0.000 HD
ENDROOT
BRANCH   7  11
ATOM     11  C   UNL     1      -2.050  13.811  20.581  0.00  0.00    +0.000 A 
ATOM     12  C   UNL     1      -3.389  13.906  20.969  0.00  0.00    +0.000 A 
ATOM     13  C   UNL     1      -3.980  15.160  21.099  0.00  0.00    +0.000 A 
ATOM     14  C   UNL     1      -3.227  16.295  20.842  0.00  0.00    +0.000 A 
ATOM     15  C   UNL     1      -1.906  16.127  20.471  0.00  0.00    +0.000 A 
ATOM     16  N   UNL     1      -1.308  14.921  20.332  0.00  0.00    +0.000 NA
ENDBRANCH   7  11
BRANCH   2  17
ATOM     17  C   UNL     1       2.585   7.803  18.518  0.00  0.00    +0.000 A 
ATOM     18  C   UNL     1       3.524   7.656  17.492  0.00  0.00    +0.000 A 
ATOM     19  C   UNL     1       4.357   6.532  17.467  0.00  0.00    +0.000 A 
ATOM     20  C   UNL     1       4.231   5.559  18.462  0.00  0.00    +0.000 A 
ATOM     21  C   UNL     1       3.290   5.696  19.486  0.00  0.00    +0.000 A 
ATOM     22  C   UNL     1       2.470   6.823  19.518  0.00  0.00    +0.000 A 
BRANCH  20  23
ATOM     23  S   UNL     1       5.252   4.107  18.418  0.00  0.00    +0.000 S 
ATOM     24  O   UNL     1       6.622   4.534  18.611  0.00  0.00    +0.000 OA
ATOM     25  O   UNL     1       4.655   3.086  19.237  0.00  0.00    +0.000 OA
BRANCH  23  26
ATOM     26  N   UNL     1       5.128   3.620  16.795  0.00  0.00    +0.000 NA
ATOM     27  H   UNL     1       4.191   3.807  16.440  0.00  0.00    +0.000 HD
BRANCH  26  28
ATOM     28  C   UNL     1       6.257   3.930  15.924  0.00  0.00    +0.000 C 
ATOM     29  C   UNL     1       6.229   5.152  15.052  0.00  0.00    +0.000 C 
ATOM     30  C   UNL     1       6.124   3.791  14.433  0.00  0.00    +0.000 C 
ENDBRANCH  26  28
ENDBRANCH  23  26
ENDBRANCH  20  23
ENDBRANCH   2  17
TORSDOF 5
ENDMDL
MODEL 8
REMARK VINA RESULT:      -7.8      1.550      1.833
REMARK  Name = 
REMARK  5 active torsions:
REMARK  status: ('A' for Active; 'I' for Inactive)
REMARK    1  A    between atoms: C_2  and  C_16
REMARK    2  A    between atoms: C_7  and  C_8
REMARK    3  A    between atoms: C_19  and  S_20
REMARK    4  A    between atoms: S_20  and  N_23
REMARK    5  A    between atoms: N_23  and  C_24
REMARK                            x       y       z     vdW  Elec       q    Type
REMARK                         _______ _______ _______ _____ _____    ______ ____
ROOT
ATOM      1  O   UNL     1       1.108   8.113  21.432  0.00  0.00    +0.000 OA
ATOM      2  C   UNL     1       1.421   8.300  20.263  0.00  0.00    +0.000 C 
ATOM      3  N   UNL     1       1.064   9.387  19.489  0.00  0.00    +0.000 N 
ATOM      4  C   UNL     1       0.254  10.410  19.985  0.00  0.00    +0.000 A 
ATOM      5  C   UNL     1       0.553  11.058  21.171  0.00  0.00    +0.000 A 
ATOM      6  C   UNL     1      -0.322  12.044  21.629  0.00  0.00    +0.000 A 
ATOM      7  C   UNL     1      -1.508  12.321  20.937  0.00  0.00    +0.000 A 
ATOM      8  C   UNL     1      -1.669  11.640  19.728  0.00  0.00    +0.000 A 
ATOM      9  N   UNL     1      -0.799  10.729  19.214  0.00  0.00    +0.000 NA
ATOM     10  H   UNL     1       0.908   9.207  18.506  0.00  0.00    +0.000 HD
ENDROOT
BRANCH   7  11
ATOM     11  C   UNL     1      -2.546  13.231  21.453  0.00  0.00    +0.000 A 
ATOM     12  C   UNL     1      -3.815  13.327  20.878  0.00  0.00    +0.000 A 
ATOM     13  C   UNL     1      -4.725  14.260  21.369  0.00  0.00    +0.000 A 
ATOM     14  C   UNL     1      -4.354  15.079  22.424  0.00  0.00    +0.000 A 
ATOM     15  C   UNL     1      -3.085  14.923  22.951  0.00  0.00    +0.000 A 
ATOM     16  N   UNL     1      -2.181  14.028  22.490  0.00  0.00    +0.000 NA
ENDBRANCH   7  11
BRANCH   2  17
ATOM     17  C   UNL     1       2.201   7.259  19.545  0.00  0.00    +0.000 A 
ATOM     18  C   UNL     1       2.335   5.982  20.099  0.00  0.00    +0.000 A 
ATOM     19  C   UNL     1       3.101   5.014  19.440  0.00  0.00    +0.000 A 
ATOM     20  C   UNL     1       3.737   5.341  18.239  0.00  0.00    +0.000 A 
ATOM     21  C   UNL     1       3.614   6.617  17.684  0.00  0.00    +0.000 A 
ATOM     22  C   UNL     1       2.840   7.576  18.334  0.00  0.00    +0.000 A 
BRANCH  20  23
ATOM     23  S   UNL     1       4.746   4.135  17.413  0.00  0.00    +0.000 S 
ATOM     24  O   UNL     1       4.133   2.840  17.622  0.00  0.00    +0.000 OA
ATOM     25  O   UNL     1       5.072   4.615  16.096  0.00  0.00    +0.000 OA
BRANCH  23  26
ATOM     26  N   UNL     1       6.167   4.146  18.344  0.00  0.00    +0.000 NA
ATOM     27  H   UNL     1       6.886   3.575  17.901  0.00  0.00    +0.000 HD
BRANCH  26  28
ATOM     28  C   UNL     1       6.576   5.427  18.911  0.00  0.00    +0.000 C 
ATOM     29  C   UNL     1       7.413   6.381  18.108  0.00  0.00    +0.000 C 
ATOM     30  C   UNL     1       8.013   5.668  19.283  0.00  0.00    +0.000 C 
ENDBRANCH  26  28
ENDBRANCH  23  26
ENDBRANCH  20  23
ENDBRANCH   2  17
TORSDOF 5
ENDMDL
MODEL 9
REMARK VINA RESULT:      -7.8      2.248      3.015
REMARK  Name = 
REMARK  5 active torsions:
REMARK  status: ('A' for Active; 'I' for Inactive)
REMARK    1  A    between atoms: C_2  and  C_16
REMARK    2  A    between atoms: C_7  and  C_8
REMARK    3  A    between atoms: C_19  and  S_20
REMARK    4  A    between atoms: S_20  and  N_23
REMARK    5  A    between atoms: N_23  and  C_24
REMARK                            x       y       z     vdW  Elec       q    Type
REMARK                         _______ _______ _______ _____ _____    ______ ____
ROOT
ATOM      1  O   UNL     1       1.405   9.584  17.466  0.00  0.00    +0.000 OA
ATOM      2  C   UNL     1       1.616   8.945  18.490  0.00  0.00    +0.000 C 
ATOM      3  N   UNL     1       1.073   9.199  19.734  0.00  0.00    +0.000 N 
ATOM      4  C   UNL     1       0.210  10.273  19.956  0.00  0.00    +0.000 A 
ATOM      5  C   UNL     1      -0.910  10.476  19.168  0.00  0.00    +0.000 A 
ATOM      6  C   UNL     1      -1.707  11.593  19.419  0.00  0.00    +0.000 A 
ATOM      7  C   UNL     1      -1.342  12.521  20.404  0.00  0.00    +0.000 A 
ATOM      8  C   UNL     1      -0.223  12.178  21.165  0.00  0.00    +0.000 A 
ATOM      9  N   UNL     1       0.532  11.059  20.997  0.00  0.00    +0.000 NA
ATOM     10  H   UNL     1       1.662   9.001  20.531  0.00  0.00    +0.000 HD
ENDROOT
BRANCH   7  11
ATOM     11  C   UNL     1      -2.049  13.799  20.605  0.00  0.00    +0.000 A 
ATOM     12  C   UNL     1      -3.406  13.863  20.934  0.00  0.00    +0.000 A 
ATOM     13  C   UNL     1      -4.030  15.104  21.037  0.00  0.00    +0.000 A 
ATOM     14  C   UNL     1      -3.293  16.255  20.812  0.00  0.00    +0.000 A 
ATOM     15  C   UNL     1      -1.953  16.117  20.500  0.00  0.00    +0.000 A 
ATOM     16  N   UNL     1      -1.322  14.925  20.389  0.00  0.00    +0.000 NA
ENDBRANCH   7  11
BRANCH   2  17
ATOM     17  C   UNL     1       2.590   7.824  18.456  0.00  0.00    +0.000 A 
ATOM     18  C   UNL     1       3.507   7.728  17.405  0.00  0.00    +0.000 A 
ATOM     19  C   UNL     1       4.399   6.651  17.356  0.00  0.00    +0.000 A 
ATOM     20  C   UNL     1       4.354   5.674  18.354  0.00  0.00    +0.000 A 
ATOM     21  C   UNL     1       3.436   5.760  19.403  0.00  0.00    +0.000 A 
ATOM     22  C   UNL     1       2.556   6.840  19.459  0.00  0.00    +0.000 A 
BRANCH  20  23
ATOM     23  S   UNL     1       5.452   4.281  18.282  0.00  0.00    +0.000 S 
ATOM     24  O   UNL     1       5.614   3.927  16.887  0.00  0.00    +0.000 OA
ATOM     25  O   UNL     1       6.584   4.528  19.135  0.00  0.00    +0.000 OA
BRANCH  23  26
ATOM     26  N   UNL     1       4.523   3.044  18.984  0.00  0.00    +0.000 NA
ATOM     27  H   UNL     1       4.124   3.359  19.868  0.00  0.00    +0.000 HD
BRANCH  26  28
ATOM     28  C   UNL     1       3.666   2.273  18.091  0.00  0.00    +0.000 C 
ATOM     29  C   UNL     1       2.411   2.880  17.531  0.00  0.00    +0.000 C 
ATOM     30  C   UNL     1       2.319   1.793  18.559  0.00  0.00    +0.000 C 
ENDBRANCH  26  28
ENDBRANCH  23  26
ENDBRANCH  20  23
ENDBRANCH   2  17
TORSDOF 5
ENDMDL
