MODEL 1
REMARK VINA RESULT:      -8.7      0.000      0.000
REMARK  Name = 
REMARK  6 active torsions:
REMARK  status: ('A' for Active; 'I' for Inactive)
REMARK    1  A    between atoms: C_2  and  OXT_3
REMARK    2  A    between atoms: C_2  and  CA_4
REMARK    3  A    between atoms: C_6  and  S_7
REMARK    4  A    between atoms: S_7  and  N_10
REMARK    5  A    between atoms: N_10  and  C_11
REMARK    6  A    between atoms: C_16  and  C_17
REMARK                            x       y       z     vdW  Elec       q    Type
REMARK                         _______ _______ _______ _____ _____    ______ ____
ROOT
ATOM      1  N   UNL     1       3.399   6.145  19.825  0.00  0.00    +0.000 N 
ATOM      2  H   UNL     1       3.491   6.637  20.711  0.00  0.00    +0.000 HD
ENDROOT
BRANCH   1   3
ATOM      3  C   UNL     1       2.991   4.773  19.913  0.00  0.00    +0.000 A 
ATOM      4  C   UNL     1       2.033   4.465  20.893  0.00  0.00    +0.000 A 
ATOM      5  C   UNL     1       1.468   3.196  20.957  0.00  0.00    +0.000 A 
ATOM      6  C   UNL     1       1.859   2.229  20.043  0.00  0.00    +0.000 A 
ATOM      7  C   UNL     1       2.843   2.520  19.091  0.00  0.00    +0.000 A 
ATOM      8  C   UNL     1       3.450   3.793  18.998  0.00  0.00    +0.000 A 
BRANCH   8   9
ATOM      9  C   UNL     1       4.545   4.024  18.005  0.00  0.00    +0.000 A 
ATOM     10  C   UNL     1       5.874   4.266  18.413  0.00  0.00    +0.000 A 
ATOM     11  C   UNL     1       6.890   4.496  17.482  0.00  0.00    +0.000 A 
ATOM     12  F   UNL     1       8.130   4.757  17.923  0.00  0.00    +0.000 F 
ATOM     13  C   UNL     1       6.629   4.468  16.124  0.00  0.00    +0.000 A 
ATOM     14  F   UNL     1       7.611   4.679  15.236  0.00  0.00    +0.000 F 
ATOM     15  C   UNL     1       5.336   4.235  15.695  0.00  0.00    +0.000 A 
ATOM     16  F   UNL     1       5.053   4.204  14.385  0.00  0.00    +0.000 F 
ATOM     17  C   UNL     1       4.304   4.041  16.616  0.00  0.00    +0.000 A 
ENDBRANCH   8   9
ENDBRANCH   1   3
BRANCH   1  18
ATOM     18  S   UNL     1       2.582   7.113  18.697  0.00  0.00    +0.000 S 
ATOM     19  O   UNL     1       1.606   6.338  17.961  0.00  0.00    +0.000 OA
ATOM     20  O   UNL     1       3.590   7.918  18.043  0.00  0.00    +0.000 OA
BRANCH  18  23
ATOM     21  CA  UNL     1       0.505   9.283  21.251  0.00  0.00    +0.000 A 
ATOM     22  C   UNL     1       1.238   8.152  20.920  0.00  0.00    +0.000 A 
ATOM     23  C   UNL     1       1.661   8.291  19.569  0.00  0.00    +0.000 A 
ATOM     24  C   UNL     1       1.189   9.503  19.113  0.00  0.00    +0.000 A 
ATOM     25  N   UNL     1       0.469  10.081  20.125  0.00  0.00    +0.000 N 
ATOM     26  H   UNL     1      -0.009  10.974  20.078  0.00  0.00    +0.000 HD
BRANCH  21  28
ATOM     27  O   UNL     1      -0.061  10.730  23.029  0.00  0.00    +0.000 OA
ATOM     28  C   UNL     1      -0.173   9.651  22.469  0.00  0.00    +0.000 C 
BRANCH  28  29
ATOM     29  OXT UNL     1      -0.932   8.642  22.953  0.00  0.00    +0.000 OA
ATOM     30  HXT UNL     1      -0.814   7.811  22.457  0.00  0.00    +0.000 HD
ENDBRANCH  28  29
ENDBRANCH  21  28
ENDBRANCH  18  23
ENDBRANCH   1  18
TORSDOF 6
ENDMDL
MODEL 2
REMARK VINA RESULT:      -8.6      0.050      1.581
REMARK  Name = 
REMARK  6 active torsions:
REMARK  status: ('A' for Active; 'I' for Inactive)
REMARK    1  A    between atoms: C_2  and  OXT_3
REMARK    2  A    between atoms: C_2  and  CA_4
REMARK    3  A    between atoms: C_6  and  S_7
REMARK    4  A    between atoms: S_7  and  N_10
REMARK    5  A    between atoms: N_10  and  C_11
REMARK    6  A    between atoms: C_16  and  C_17
REMARK                            x       y       z     vdW  Elec       q    Type
REMARK                         _______ _______ _______ _____ _____    ______ ____
ROOT
ATOM      1  N   UNL     1       3.371   6.132  19.807  0.00  0.00    +0.000 N 
ATOM      2  H   UNL     1       3.458   6.608  20.702  0.00  0.00    +0.000 HD
ENDROOT
BRANCH   1   3
ATOM      3  C   UNL     1       2.959   4.759  19.868  0.00  0.00    +0.000 A 
ATOM      4  C   UNL     1       1.991   4.437  20.834  0.00  0.00    +0.000 A 
ATOM      5  C   UNL     1       1.424   3.168  20.872  0.00  0.00    +0.000 A 
ATOM      6  C   UNL     1       1.822   2.215  19.946  0.00  0.00    +0.000 A 
ATOM      7  C   UNL     1       2.816   2.520  19.009  0.00  0.00    +0.000 A 
ATOM      8  C   UNL     1       3.427   3.793  18.943  0.00  0.00    +0.000 A 
BRANCH   8   9
ATOM      9  C   UNL     1       4.532   4.038  17.965  0.00  0.00    +0.000 A 
ATOM     10  C   UNL     1       4.308   4.013  16.573  0.00  0.00    +0.000 A 
ATOM     11  C   UNL     1       5.348   4.226  15.664  0.00  0.00    +0.000 A 
ATOM     12  F   UNL     1       5.087   4.156  14.350  0.00  0.00    +0.000 F 
ATOM     13  C   UNL     1       6.631   4.496  16.104  0.00  0.00    +0.000 A 
ATOM     14  F   UNL     1       7.621   4.711  15.226  0.00  0.00    +0.000 F 
ATOM     15  C   UNL     1       6.881   4.526  17.463  0.00  0.00    +0.000 A 
ATOM     16  F   UNL     1       8.116   4.783  17.917  0.00  0.00    +0.000 F 
ATOM     17  C   UNL     1       5.859   4.276  18.380  0.00  0.00    +0.000 A 
ENDBRANCH   8   9
ENDBRANCH   1   3
BRANCH   1  18
ATOM     18  S   UNL     1       2.563   7.120  18.690  0.00  0.00    +0.000 S 
ATOM     19  O   UNL     1       1.580   6.363  17.945  0.00  0.00    +0.000 OA
ATOM     20  O   UNL     1       3.578   7.924  18.046  0.00  0.00    +0.000 OA
BRANCH  18  23
ATOM     21  CA  UNL     1       0.505   9.278  21.270  0.00  0.00    +0.000 A 
ATOM     22  C   UNL     1       1.227   8.144  20.925  0.00  0.00    +0.000 A 
ATOM     23  C   UNL     1       1.652   8.296  19.576  0.00  0.00    +0.000 A 
ATOM     24  C   UNL     1       1.191   9.518  19.135  0.00  0.00    +0.000 A 
ATOM     25  N   UNL     1       0.476  10.089  20.153  0.00  0.00    +0.000 N 
ATOM     26  H   UNL     1       0.006  10.988  20.117  0.00  0.00    +0.000 HD
BRANCH  21  28
ATOM     27  O   UNL     1      -0.064  10.714  23.055  0.00  0.00    +0.000 OA
ATOM     28  C   UNL     1      -0.171   9.637  22.492  0.00  0.00    +0.000 C 
BRANCH  28  29
ATOM     29  OXT UNL     1      -0.921   8.622  22.975  0.00  0.00    +0.000 OA
ATOM     30  HXT UNL     1      -0.493   7.752  22.867  0.00  0.00    +0.000 HD
ENDBRANCH  28  29
ENDBRANCH  21  28
ENDBRANCH  18  23
ENDBRANCH   1  18
TORSDOF 6
ENDMDL
MODEL 3
REMARK VINA RESULT:      -8.4      1.014      1.109
REMARK  Name = 
REMARK  6 active torsions:
REMARK  status: ('A' for Active; 'I' for Inactive)
REMARK    1  A    between atoms: C_2  and  OXT_3
REMARK    2  A    between atoms: C_2  and  CA_4
REMARK    3  A    between atoms: C_6  and  S_7
REMARK    4  A    between atoms: S_7  and  N_10
REMARK    5  A    between atoms: N_10  and  C_11
REMARK    6  A    between atoms: C_16  and  C_17
REMARK                            x       y       z     vdW  Elec       q    Type
REMARK                         _______ _______ _______ _____ _____    ______ ____
ROOT
ATOM      1  N   UNL     1       3.209   6.324  19.719  0.00  0.00    +0.000 N 
ATOM      2  H   UNL     1       3.030   6.949  20.501  0.00  0.00    +0.000 HD
ENDROOT
BRANCH   1   3
ATOM      3  C   UNL     1       2.858   4.949  19.924  0.00  0.00    +0.000 A 
ATOM      4  C   UNL     1       1.871   4.692  20.891  0.00  0.00    +0.000 A 
ATOM      5  C   UNL     1       1.360   3.410  21.058  0.00  0.00    +0.000 A 
ATOM      6  C   UNL     1       1.833   2.379  20.260  0.00  0.00    +0.000 A 
ATOM      7  C   UNL     1       2.845   2.623  19.325  0.00  0.00    +0.000 A 
ATOM      8  C   UNL     1       3.400   3.908  19.131  0.00  0.00    +0.000 A 
BRANCH   8   9
ATOM      9  C   UNL     1       4.527   4.093  18.165  0.00  0.00    +0.000 A 
ATOM     10  C   UNL     1       5.834   4.396  18.603  0.00  0.00    +0.000 A 
ATOM     11  C   UNL     1       6.880   4.584  17.695  0.00  0.00    +0.000 A 
ATOM     12  F   UNL     1       8.096   4.905  18.162  0.00  0.00    +0.000 F 
ATOM     13  C   UNL     1       6.672   4.452  16.335  0.00  0.00    +0.000 A 
ATOM     14  F   UNL     1       7.683   4.622  15.471  0.00  0.00    +0.000 F 
ATOM     15  C   UNL     1       5.402   4.157  15.877  0.00  0.00    +0.000 A 
ATOM     16  F   UNL     1       5.171   4.025  14.562  0.00  0.00    +0.000 F 
ATOM     17  C   UNL     1       4.340   4.005  16.770  0.00  0.00    +0.000 A 
ENDBRANCH   8   9
ENDBRANCH   1   3
BRANCH   1  18
ATOM     18  S   UNL     1       2.691   7.034  18.268  0.00  0.00    +0.000 S 
ATOM     19  O   UNL     1       1.650   6.244  17.648  0.00  0.00    +0.000 OA
ATOM     20  O   UNL     1       3.887   7.437  17.560  0.00  0.00    +0.000 OA
BRANCH  18  23
ATOM     21  CA  UNL     1       0.822  10.148  19.803  0.00  0.00    +0.000 A 
ATOM     22  C   UNL     1       1.325   8.857  19.891  0.00  0.00    +0.000 A 
ATOM     23  C   UNL     1       1.945   8.549  18.648  0.00  0.00    +0.000 A 
ATOM     24  C   UNL     1       1.817   9.657  17.839  0.00  0.00    +0.000 A 
ATOM     25  N   UNL     1       1.114  10.605  18.533  0.00  0.00    +0.000 N 
ATOM     26  H   UNL     1       0.856  11.523  18.188  0.00  0.00    +0.000 HD
BRANCH  21  28
ATOM     27  O   UNL     1       0.500  11.280  21.849  0.00  0.00    +0.000 OA
ATOM     28  C   UNL     1       0.085  10.945  20.751  0.00  0.00    +0.000 C 
BRANCH  28  29
ATOM     29  OXT UNL     1      -1.150  11.259  20.300  0.00  0.00    +0.000 OA
ATOM     30  HXT UNL     1      -1.858  10.942  20.891  0.00  0.00    +0.000 HD
ENDBRANCH  28  29
ENDBRANCH  21  28
ENDBRANCH  18  23
ENDBRANCH   1  18
TORSDOF 6
ENDMDL
MODEL 4
REMARK VINA RESULT:      -8.4      0.951      1.918
REMARK  Name = 
REMARK  6 active torsions:
REMARK  status: ('A' for Active; 'I' for Inactive)
REMARK    1  A    between atoms: C_2  and  OXT_3
REMARK    2  A    between atoms: C_2  and  CA_4
REMARK    3  A    between atoms: C_6  and  S_7
REMARK    4  A    between atoms: S_7  and  N_10
REMARK    5  A    between atoms: N_10  and  C_11
REMARK    6  A    between atoms: C_16  and  C_17
REMARK                            x       y       z     vdW  Elec       q    Type
REMARK                         _______ _______ _______ _____ _____    ______ ____
ROOT
ATOM      1  N   UNL     1       3.195   6.294  19.742  0.00  0.00    +0.000 N 
ATOM      2  H   UNL     1       2.997   6.912  20.526  0.00  0.00    +0.000 HD
ENDROOT
BRANCH   1   3
ATOM      3  C   UNL     1       2.844   4.916  19.929  0.00  0.00    +0.000 A 
ATOM      4  C   UNL     1       1.853   4.646  20.888  0.00  0.00    +0.000 A 
ATOM      5  C   UNL     1       1.344   3.362  21.037  0.00  0.00    +0.000 A 
ATOM      6  C   UNL     1       1.821   2.341  20.229  0.00  0.00    +0.000 A 
ATOM      7  C   UNL     1       2.838   2.597  19.301  0.00  0.00    +0.000 A 
ATOM      8  C   UNL     1       3.391   3.886  19.125  0.00  0.00    +0.000 A 
BRANCH   8   9
ATOM      9  C   UNL     1       4.523   4.085  18.167  0.00  0.00    +0.000 A 
ATOM     10  C   UNL     1       4.338   3.981  16.773  0.00  0.00    +0.000 A 
ATOM     11  C   UNL     1       5.402   4.151  15.883  0.00  0.00    +0.000 A 
ATOM     12  F   UNL     1       5.180   4.007  14.568  0.00  0.00    +0.000 F 
ATOM     13  C   UNL     1       6.671   4.455  16.343  0.00  0.00    +0.000 A 
ATOM     14  F   UNL     1       7.684   4.629  15.483  0.00  0.00    +0.000 F 
ATOM     15  C   UNL     1       6.882   4.562  17.704  0.00  0.00    +0.000 A 
ATOM     16  F   UNL     1       8.102   4.853  18.178  0.00  0.00    +0.000 F 
ATOM     17  C   UNL     1       5.836   4.356  18.605  0.00  0.00    +0.000 A 
ENDBRANCH   8   9
ENDBRANCH   1   3
BRANCH   1  18
ATOM     18  S   UNL     1       2.704   7.014  18.286  0.00  0.00    +0.000 S 
ATOM     19  O   UNL     1       1.688   6.217  17.632  0.00  0.00    +0.000 OA
ATOM     20  O   UNL     1       3.911   7.441  17.614  0.00  0.00    +0.000 OA
BRANCH  18  23
ATOM     21  CA  UNL     1       0.801  10.104  19.829  0.00  0.00    +0.000 A 
ATOM     22  C   UNL     1       1.343   8.830  19.923  0.00  0.00    +0.000 A 
ATOM     23  C   UNL     1       1.927   8.514  18.665  0.00  0.00    +0.000 A 
ATOM     24  C   UNL     1       1.739   9.602  17.840  0.00  0.00    +0.000 A 
ATOM     25  N   UNL     1       1.033  10.543  18.541  0.00  0.00    +0.000 N 
ATOM     26  H   UNL     1       0.736  11.447  18.188  0.00  0.00    +0.000 HD
BRANCH  21  28
ATOM     27  O   UNL     1      -0.900  11.584  20.527  0.00  0.00    +0.000 OA
ATOM     28  C   UNL     1       0.075  10.899  20.788  0.00  0.00    +0.000 C 
BRANCH  28  29
ATOM     29  OXT UNL     1       0.622  10.831  22.022  0.00  0.00    +0.000 OA
ATOM     30  HXT UNL     1       1.037  11.669  22.297  0.00  0.00    +0.000 HD
ENDBRANCH  28  29
ENDBRANCH  21  28
ENDBRANCH  18  23
ENDBRANCH   1  18
TORSDOF 6
ENDMDL
MODEL 5
REMARK VINA RESULT:      -8.3      4.380      7.263
REMARK  Name = 
REMARK  6 active torsions:
REMARK  status: ('A' for Active; 'I' for Inactive)
REMARK    1  A    between atoms: C_2  and  OXT_3
REMARK    2  A    between atoms: C_2  and  CA_4
REMARK    3  A    between atoms: C_6  and  S_7
REMARK    4  A    between atoms: S_7  and  N_10
REMARK    5  A    between atoms: N_10  and  C_11
REMARK    6  A    between atoms: C_16  and  C_17
REMARK                            x       y       z     vdW  Elec       q    Type
REMARK                         _______ _______ _______ _____ _____    ______ ____
ROOT
ATOM      1  N   UNL     1       5.308   5.440  19.170  0.00  0.00    +0.000 N 
ATOM      2  H   UNL     1       5.019   6.369  19.468  0.00  0.00    +0.000 HD
ENDROOT
BRANCH   1   3
ATOM      3  C   UNL     1       4.276   4.611  18.618  0.00  0.00    +0.000 A 
ATOM      4  C   UNL     1       4.662   3.329  18.193  0.00  0.00    +0.000 A 
ATOM      5  C   UNL     1       3.711   2.403  17.782  0.00  0.00    +0.000 A 
ATOM      6  C   UNL     1       2.369   2.754  17.792  0.00  0.00    +0.000 A 
ATOM      7  C   UNL     1       1.984   4.044  18.176  0.00  0.00    +0.000 A 
ATOM      8  C   UNL     1       2.920   5.019  18.591  0.00  0.00    +0.000 A 
BRANCH   8   9
ATOM      9  C   UNL     1       2.455   6.401  18.923  0.00  0.00    +0.000 A 
ATOM     10  C   UNL     1       2.019   6.743  20.220  0.00  0.00    +0.000 A 
ATOM     11  C   UNL     1       1.570   8.033  20.521  0.00  0.00    +0.000 A 
ATOM     12  F   UNL     1       1.132   8.296  21.761  0.00  0.00    +0.000 F 
ATOM     13  C   UNL     1       1.566   9.025  19.558  0.00  0.00    +0.000 A 
ATOM     14  F   UNL     1       1.145  10.263  19.856  0.00  0.00    +0.000 F 
ATOM     15  C   UNL     1       1.987   8.719  18.277  0.00  0.00    +0.000 A 
ATOM     16  F   UNL     1       1.991   9.661  17.324  0.00  0.00    +0.000 F 
ATOM     17  C   UNL     1       2.401   7.425  17.954  0.00  0.00    +0.000 A 
ENDBRANCH   8   9
ENDBRANCH   1   3
BRANCH   1  18
ATOM     18  S   UNL     1       6.762   5.527  18.301  0.00  0.00    +0.000 S 
ATOM     19  O   UNL     1       7.595   4.375  18.569  0.00  0.00    +0.000 OA
ATOM     20  O   UNL     1       7.242   6.884  18.442  0.00  0.00    +0.000 OA
BRANCH  18  23
ATOM     21  CA  UNL     1       6.467   4.787  14.440  0.00  0.00    +0.000 A 
ATOM     22  C   UNL     1       7.019   4.553  15.691  0.00  0.00    +0.000 A 
ATOM     23  C   UNL     1       6.385   5.430  16.614  0.00  0.00    +0.000 A 
ATOM     24  C   UNL     1       5.457   6.166  15.910  0.00  0.00    +0.000 A 
ATOM     25  N   UNL     1       5.534   5.793  14.595  0.00  0.00    +0.000 N 
ATOM     26  H   UNL     1       4.978   6.173  13.836  0.00  0.00    +0.000 HD
BRANCH  21  28
ATOM     27  O   UNL     1       7.457   4.718  12.297  0.00  0.00    +0.000 OA
ATOM     28  C   UNL     1       6.753   4.204  13.153  0.00  0.00    +0.000 C 
BRANCH  28  29
ATOM     29  OXT UNL     1       6.120   3.023  12.977  0.00  0.00    +0.000 OA
ATOM     30  HXT UNL     1       6.024   2.783  12.036  0.00  0.00    +0.000 HD
ENDBRANCH  28  29
ENDBRANCH  21  28
ENDBRANCH  18  23
ENDBRANCH   1  18
TORSDOF 6
ENDMDL
MODEL 6
REMARK VINA RESULT:      -8.3      4.361      7.344
REMARK  Name = 
REMARK  6 active torsions:
REMARK  status: ('A' for Active; 'I' for Inactive)
REMARK    1  A    between atoms: C_2  and  OXT_3
REMARK    2  A    between atoms: C_2  and  CA_4
REMARK    3  A    between atoms: C_6  and  S_7
REMARK    4  A    between atoms: S_7  and  N_10
REMARK    5  A    between atoms: N_10  and  C_11
REMARK    6  A    between atoms: C_16  and  C_17
REMARK                            x       y       z     vdW  Elec       q    Type
REMARK                         _______ _______ _______ _____ _____    ______ ____
ROOT
ATOM      1  N   UNL     1       5.249   5.425  19.190  0.00  0.00    +0.000 N 
ATOM      2  H   UNL     1       4.959   6.352  19.493  0.00  0.00    +0.000 HD
ENDROOT
BRANCH   1   3
ATOM      3  C   UNL     1       4.220   4.602  18.623  0.00  0.00    +0.000 A 
ATOM      4  C   UNL     1       4.607   3.321  18.194  0.00  0.00    +0.000 A 
ATOM      5  C   UNL     1       3.656   2.401  17.768  0.00  0.00    +0.000 A 
ATOM      6  C   UNL     1       2.316   2.755  17.767  0.00  0.00    +0.000 A 
ATOM      7  C   UNL     1       1.931   4.044  18.154  0.00  0.00    +0.000 A 
ATOM      8  C   UNL     1       2.865   5.014  18.584  0.00  0.00    +0.000 A 
BRANCH   8   9
ATOM      9  C   UNL     1       2.402   6.396  18.919  0.00  0.00    +0.000 A 
ATOM     10  C   UNL     1       2.382   7.424  17.954  0.00  0.00    +0.000 A 
ATOM     11  C   UNL     1       1.963   8.718  18.276  0.00  0.00    +0.000 A 
ATOM     12  F   UNL     1       1.997   9.668  17.329  0.00  0.00    +0.000 F 
ATOM     13  C   UNL     1       1.527   9.026  19.552  0.00  0.00    +0.000 A 
ATOM     14  F   UNL     1       1.115  10.266  19.851  0.00  0.00    +0.000 F 
ATOM     15  C   UNL     1       1.536   8.039  20.519  0.00  0.00    +0.000 A 
ATOM     16  F   UNL     1       1.121   8.309  21.765  0.00  0.00    +0.000 F 
ATOM     17  C   UNL     1       1.989   6.752  20.220  0.00  0.00    +0.000 A 
ENDBRANCH   8   9
ENDBRANCH   1   3
BRANCH   1  18
ATOM     18  S   UNL     1       6.710   5.518  18.332  0.00  0.00    +0.000 S 
ATOM     19  O   UNL     1       7.542   4.365  18.600  0.00  0.00    +0.000 OA
ATOM     20  O   UNL     1       7.187   6.875  18.483  0.00  0.00    +0.000 OA
BRANCH  18  23
ATOM     21  CA  UNL     1       6.433   4.785  14.467  0.00  0.00    +0.000 A 
ATOM     22  C   UNL     1       6.970   4.540  15.723  0.00  0.00    +0.000 A 
ATOM     23  C   UNL     1       6.345   5.429  16.642  0.00  0.00    +0.000 A 
ATOM     24  C   UNL     1       5.437   6.183  15.930  0.00  0.00    +0.000 A 
ATOM     25  N   UNL     1       5.519   5.808  14.616  0.00  0.00    +0.000 N 
ATOM     26  H   UNL     1       4.977   6.200  13.852  0.00  0.00    +0.000 HD
BRANCH  21  28
ATOM     27  O   UNL     1       7.411   4.715  12.319  0.00  0.00    +0.000 OA
ATOM     28  C   UNL     1       6.720   4.198  13.182  0.00  0.00    +0.000 C 
BRANCH  28  29
ATOM     29  OXT UNL     1       6.102   3.007  13.019  0.00  0.00    +0.000 OA
ATOM     30  HXT UNL     1       6.311   2.373  13.729  0.00  0.00    +0.000 HD
ENDBRANCH  28  29
ENDBRANCH  21  28
ENDBRANCH  18  23
ENDBRANCH   1  18
TORSDOF 6
ENDMDL
MODEL 7
REMARK VINA RESULT:      -8.3      1.534      1.835
REMARK  Name = 
REMARK  6 active torsions:
REMARK  status: ('A' for Active; 'I' for Inactive)
REMARK    1  A    between atoms: C_2  and  OXT_3
REMARK    2  A    between atoms: C_2  and  CA_4
REMARK    3  A    between atoms: C_6  and  S_7
REMARK    4  A    between atoms: S_7  and  N_10
REMARK    5  A    between atoms: N_10  and  C_11
REMARK    6  A    between atoms: C_16  and  C_17
REMARK                            x       y       z     vdW  Elec       q    Type
REMARK                         _______ _______ _______ _____ _____    ______ ____
ROOT
ATOM      1  N   UNL     1       3.250   6.192  19.808  0.00  0.00    +0.000 N 
ATOM      2  H   UNL     1       3.151   6.755  20.650  0.00  0.00    +0.000 HD
ENDROOT
BRANCH   1   3
ATOM      3  C   UNL     1       2.864   4.815  19.929  0.00  0.00    +0.000 A 
ATOM      4  C   UNL     1       1.880   4.521  20.887  0.00  0.00    +0.000 A 
ATOM      5  C   UNL     1       1.337   3.244  20.976  0.00  0.00    +0.000 A 
ATOM      6  C   UNL     1       1.777   2.255  20.109  0.00  0.00    +0.000 A 
ATOM      7  C   UNL     1       2.787   2.534  19.181  0.00  0.00    +0.000 A 
ATOM      8  C   UNL     1       3.373   3.815  19.064  0.00  0.00    +0.000 A 
BRANCH   8   9
ATOM      9  C   UNL     1       4.496   4.033  18.101  0.00  0.00    +0.000 A 
ATOM     10  C   UNL     1       5.808   4.304  18.544  0.00  0.00    +0.000 A 
ATOM     11  C   UNL     1       6.851   4.524  17.639  0.00  0.00    +0.000 A 
ATOM     12  F   UNL     1       8.072   4.813  18.113  0.00  0.00    +0.000 F 
ATOM     13  C   UNL     1       6.634   4.455  16.275  0.00  0.00    +0.000 A 
ATOM     14  F   UNL     1       7.641   4.655  15.414  0.00  0.00    +0.000 F 
ATOM     15  C   UNL     1       5.358   4.193  15.812  0.00  0.00    +0.000 A 
ATOM     16  F   UNL     1       5.119   4.123  14.495  0.00  0.00    +0.000 F 
ATOM     17  C   UNL     1       4.300   4.010  16.704  0.00  0.00    +0.000 A 
ENDBRANCH   8   9
ENDBRANCH   1   3
BRANCH   1  18
ATOM     18  S   UNL     1       2.653   7.035  18.462  0.00  0.00    +0.000 S 
ATOM     19  O   UNL     1       1.667   6.247  17.754  0.00  0.00    +0.000 OA
ATOM     20  O   UNL     1       3.800   7.620  17.805  0.00  0.00    +0.000 OA
BRANCH  18  23
ATOM     21  CA  UNL     1       0.787  10.457  19.057  0.00  0.00    +0.000 A 
ATOM     22  C   UNL     1       1.437   9.544  18.238  0.00  0.00    +0.000 A 
ATOM     23  C   UNL     1       1.794   8.423  19.038  0.00  0.00    +0.000 A 
ATOM     24  C   UNL     1       1.345   8.671  20.316  0.00  0.00    +0.000 A 
ATOM     25  N   UNL     1       0.765   9.912  20.325  0.00  0.00    +0.000 N 
ATOM     26  H   UNL     1       0.355  10.370  21.132  0.00  0.00    +0.000 HD
BRANCH  21  28
ATOM     27  O   UNL     1       0.592  12.794  19.326  0.00  0.00    +0.000 OA
ATOM     28  C   UNL     1       0.242  11.762  18.777  0.00  0.00    +0.000 C 
BRANCH  28  29
ATOM     29  OXT UNL     1      -0.741  11.714  17.850  0.00  0.00    +0.000 OA
ATOM     30  HXT UNL     1      -0.407  11.821  16.941  0.00  0.00    +0.000 HD
ENDBRANCH  28  29
ENDBRANCH  21  28
ENDBRANCH  18  23
ENDBRANCH   1  18
TORSDOF 6
ENDMDL
MODEL 8
REMARK VINA RESULT:      -8.2      1.415      2.439
REMARK  Name = 
REMARK  6 active torsions:
REMARK  status: ('A' for Active; 'I' for Inactive)
REMARK    1  A    between atoms: C_2  and  OXT_3
REMARK    2  A    between atoms: C_2  and  CA_4
REMARK    3  A    between atoms: C_6  and  S_7
REMARK    4  A    between atoms: S_7  and  N_10
REMARK    5  A    between atoms: N_10  and  C_11
REMARK    6  A    between atoms: C_16  and  C_17
REMARK                            x       y       z     vdW  Elec       q    Type
REMARK                         _______ _______ _______ _____ _____    ______ ____
ROOT
ATOM      1  N   UNL     1       3.271   6.235  19.778  0.00  0.00    +0.000 N 
ATOM      2  H   UNL     1       3.192   6.784  20.631  0.00  0.00    +0.000 HD
ENDROOT
BRANCH   1   3
ATOM      3  C   UNL     1       2.907   4.852  19.889  0.00  0.00    +0.000 A 
ATOM      4  C   UNL     1       1.906   4.540  20.825  0.00  0.00    +0.000 A 
ATOM      5  C   UNL     1       1.384   3.254  20.901  0.00  0.00    +0.000 A 
ATOM      6  C   UNL     1       1.860   2.273  20.045  0.00  0.00    +0.000 A 
ATOM      7  C   UNL     1       2.886   2.569  19.140  0.00  0.00    +0.000 A 
ATOM      8  C   UNL     1       3.452   3.860  19.036  0.00  0.00    +0.000 A 
BRANCH   8   9
ATOM      9  C   UNL     1       4.593   4.099  18.099  0.00  0.00    +0.000 A 
ATOM     10  C   UNL     1       4.429   4.025  16.700  0.00  0.00    +0.000 A 
ATOM     11  C   UNL     1       5.503   4.233  15.829  0.00  0.00    +0.000 A 
ATOM     12  F   UNL     1       5.301   4.115  14.509  0.00  0.00    +0.000 F 
ATOM     13  C   UNL     1       6.760   4.546  16.314  0.00  0.00    +0.000 A 
ATOM     14  F   UNL     1       7.782   4.756  15.472  0.00  0.00    +0.000 F 
ATOM     15  C   UNL     1       6.950   4.624  17.681  0.00  0.00    +0.000 A 
ATOM     16  F   UNL     1       8.159   4.924  18.178  0.00  0.00    +0.000 F 
ATOM     17  C   UNL     1       5.895   4.381  18.562  0.00  0.00    +0.000 A 
ENDBRANCH   8   9
ENDBRANCH   1   3
BRANCH   1  18
ATOM     18  S   UNL     1       2.622   7.090  18.464  0.00  0.00    +0.000 S 
ATOM     19  O   UNL     1       1.630   6.297  17.770  0.00  0.00    +0.000 OA
ATOM     20  O   UNL     1       3.740   7.706  17.785  0.00  0.00    +0.000 OA
BRANCH  18  23
ATOM     21  CA  UNL     1       0.747  10.483  19.181  0.00  0.00    +0.000 A 
ATOM     22  C   UNL     1       1.406   9.606  18.331  0.00  0.00    +0.000 A 
ATOM     23  C   UNL     1       1.755   8.453  19.088  0.00  0.00    +0.000 A 
ATOM     24  C   UNL     1       1.293   8.647  20.371  0.00  0.00    +0.000 A 
ATOM     25  N   UNL     1       0.712   9.886  20.425  0.00  0.00    +0.000 N 
ATOM     26  H   UNL     1       0.293  10.310  21.246  0.00  0.00    +0.000 HD
BRANCH  21  28
ATOM     27  O   UNL     1      -0.862  12.199  19.392  0.00  0.00    +0.000 OA
ATOM     28  C   UNL     1       0.204  11.798  18.950  0.00  0.00    +0.000 C 
BRANCH  28  29
ATOM     29  OXT UNL     1       0.997  12.543  18.148  0.00  0.00    +0.000 OA
ATOM     30  HXT UNL     1       0.529  13.303  17.755  0.00  0.00    +0.000 HD
ENDBRANCH  28  29
ENDBRANCH  21  28
ENDBRANCH  18  23
ENDBRANCH   1  18
TORSDOF 6
ENDMDL
MODEL 9
REMARK VINA RESULT:      -8.1      1.065      1.958
REMARK  Name = 
REMARK  6 active torsions:
REMARK  status: ('A' for Active; 'I' for Inactive)
REMARK    1  A    between atoms: C_2  and  OXT_3
REMARK    2  A    between atoms: C_2  and  CA_4
REMARK    3  A    between atoms: C_6  and  S_7
REMARK    4  A    between atoms: S_7  and  N_10
REMARK    5  A    between atoms: N_10  and  C_11
REMARK    6  A    between atoms: C_16  and  C_17
REMARK                            x       y       z     vdW  Elec       q    Type
REMARK                         _______ _______ _______ _____ _____    ______ ____
ROOT
ATOM      1  N   UNL     1       2.123   5.677  17.879  0.00  0.00    +0.000 N 
ATOM      2  H   UNL     1       2.177   5.778  16.868  0.00  0.00    +0.000 HD
ENDROOT
BRANCH   1   3
ATOM      3  C   UNL     1       2.224   4.337  18.380  0.00  0.00    +0.000 A 
ATOM      4  C   UNL     1       1.189   3.905  19.227  0.00  0.00    +0.000 A 
ATOM      5  C   UNL     1       1.122   2.580  19.643  0.00  0.00    +0.000 A 
ATOM      6  C   UNL     1       2.087   1.681  19.215  0.00  0.00    +0.000 A 
ATOM      7  C   UNL     1       3.142   2.117  18.405  0.00  0.00    +0.000 A 
ATOM      8  C   UNL     1       3.255   3.457  17.968  0.00  0.00    +0.000 A 
BRANCH   8   9
ATOM      9  C   UNL     1       4.441   3.879  17.161  0.00  0.00    +0.000 A 
ATOM     10  C   UNL     1       4.393   3.944  15.753  0.00  0.00    +0.000 A 
ATOM     11  C   UNL     1       5.510   4.323  15.003  0.00  0.00    +0.000 A 
ATOM     12  F   UNL     1       5.421   4.334  13.664  0.00  0.00    +0.000 F 
ATOM     13  C   UNL     1       6.695   4.674  15.622  0.00  0.00    +0.000 A 
ATOM     14  F   UNL     1       7.759   5.048  14.897  0.00  0.00    +0.000 F 
ATOM     15  C   UNL     1       6.773   4.618  17.001  0.00  0.00    +0.000 A 
ATOM     16  F   UNL     1       7.910   4.951  17.628  0.00  0.00    +0.000 F 
ATOM     17  C   UNL     1       5.676   4.204  17.760  0.00  0.00    +0.000 A 
ENDBRANCH   8   9
ENDBRANCH   1   3
BRANCH   1  18
ATOM     18  S   UNL     1       3.086   6.849  18.640  0.00  0.00    +0.000 S 
ATOM     19  O   UNL     1       3.801   7.644  17.665  0.00  0.00    +0.000 OA
ATOM     20  O   UNL     1       3.750   6.181  19.738  0.00  0.00    +0.000 OA
BRANCH  18  23
ATOM     21  CA  UNL     1       0.775   8.909  21.081  0.00  0.00    +0.000 A 
ATOM     22  C   UNL     1       1.631   7.851  20.809  0.00  0.00    +0.000 A 
ATOM     23  C   UNL     1       2.037   7.962  19.450  0.00  0.00    +0.000 A 
ATOM     24  C   UNL     1       1.432   9.086  18.931  0.00  0.00    +0.000 A 
ATOM     25  N   UNL     1       0.650   9.634  19.913  0.00  0.00    +0.000 N 
ATOM     26  H   UNL     1       0.074  10.464  19.819  0.00  0.00    +0.000 HD
BRANCH  21  28
ATOM     27  O   UNL     1       0.303  10.238  22.974  0.00  0.00    +0.000 OA
ATOM     28  C   UNL     1       0.058   9.264  22.280  0.00  0.00    +0.000 C 
BRANCH  28  29
ATOM     29  OXT UNL     1      -0.909   8.368  22.580  0.00  0.00    +0.000 OA
ATOM     30  HXT UNL     1      -0.899   7.592  21.990  0.00  0.00    +0.000 HD
ENDBRANCH  28  29
ENDBRANCH  21  28
ENDBRANCH  18  23
ENDBRANCH   1  18
TORSDOF 6
ENDMDL
