MODEL 1
REMARK VINA RESULT:      -7.9      0.000      0.000
REMARK  Name = 
REMARK  6 active torsions:
REMARK  status: ('A' for Active; 'I' for Inactive)
REMARK    1  A    between atoms: C_1  and  C_2
REMARK    2  A    between atoms: C_4  and  C_5
REMARK    3  A    between atoms: N_7  and  C_8
REMARK    4  A    between atoms: C_10  and  C_11
REMARK    5  A    between atoms: C_19  and  S_20
REMARK    6  A    between atoms: S_20  and  N_23
REMARK                            x       y       z     vdW  Elec       q    Type
REMARK                         _______ _______ _______ _____ _____    ______ ____
ROOT
ATOM      1  C   UNL     1       9.990  10.972  20.499  0.00  0.00    +0.000 C 
ATOM      2  C   UNL     1       9.239  10.452  19.338  0.00  0.00    +0.000 A 
ATOM      3  O   UNL     1       9.008   9.113  19.377  0.00  0.00    +0.000 OA
ATOM      4  C   UNL     1       8.279   8.777  18.274  0.00  0.00    +0.000 A 
ATOM      5  C   UNL     1       8.033   9.909  17.520  0.00  0.00    +0.000 A 
ATOM      6  C   UNL     1       8.688  10.980  18.183  0.00  0.00    +0.000 A 
ENDROOT
BRANCH   4   7
ATOM      7  C   UNL     1       7.916   7.390  18.094  0.00  0.00    +0.000 C 
ATOM      8  O   UNL     1       8.202   6.507  18.901  0.00  0.00    +0.000 OA
ATOM      9  N   UNL     1       7.200   7.149  16.929  0.00  0.00    +0.000 N 
ATOM     10  H   UNL     1       7.040   7.941  16.312  0.00  0.00    +0.000 HD
BRANCH   9  11
ATOM     11  C   UNL     1       6.782   5.848  16.541  0.00  0.00    +0.000 C 
ATOM     12  C   UNL     1       5.763   5.718  15.446  0.00  0.00    +0.000 C 
ATOM     13  C   UNL     1       5.428   5.237  16.833  0.00  0.00    +0.000 C 
BRANCH  13  14
ATOM     14  C   UNL     1       4.401   5.922  17.706  0.00  0.00    +0.000 A 
ATOM     15  C   UNL     1       3.827   7.162  17.374  0.00  0.00    +0.000 A 
ATOM     16  C   UNL     1       2.813   7.736  18.151  0.00  0.00    +0.000 A 
ATOM     17  C   UNL     1       2.340   7.073  19.279  0.00  0.00    +0.000 A 
ATOM     18  C   UNL     1       2.886   5.841  19.624  0.00  0.00    +0.000 A 
ATOM     19 CL   UNL     1       2.286   4.997  20.999  0.00  0.00    +0.000 Cl
ATOM     20  C   UNL     1       3.903   5.274  18.852  0.00  0.00    +0.000 A 
ENDBRANCH  13  14
ENDBRANCH   9  11
ENDBRANCH   4   7
BRANCH   6  21
ATOM     21  S   UNL     1       8.744  12.620  17.662  0.00  0.00    +0.000 S 
ATOM     22  O   UNL     1      10.103  12.764  17.180  0.00  0.00    +0.000 OA
ATOM     23  O   UNL     1       7.603  12.747  16.780  0.00  0.00    +0.000 OA
BRANCH  21  24
ATOM     24  N   UNL     1       8.528  13.674  18.991  0.00  0.00    +0.000 NA
ATOM     25  C   UNL     1       7.395  14.630  18.911  0.00  0.00    +0.000 C 
ATOM     26  C   UNL     1       8.030  15.947  18.504  0.00  0.00    +0.000 C 
ATOM     27  C   UNL     1       9.331  15.948  19.279  0.00  0.00    +0.000 C 
ATOM     28  C   UNL     1       9.739  14.480  19.356  0.00  0.00    +0.000 C 
ENDBRANCH  21  24
ENDBRANCH   6  21
TORSDOF 5
ENDMDL
MODEL 2
REMARK VINA RESULT:      -7.6      5.988      7.463
REMARK  Name = 
REMARK  6 active torsions:
REMARK  status: ('A' for Active; 'I' for Inactive)
REMARK    1  A    between atoms: C_1  and  C_2
REMARK    2  A    between atoms: C_4  and  C_5
REMARK    3  A    between atoms: N_7  and  C_8
REMARK    4  A    between atoms: C_10  and  C_11
REMARK    5  A    between atoms: C_19  and  S_20
REMARK    6  A    between atoms: S_20  and  N_23
REMARK                            x       y       z     vdW  Elec       q    Type
REMARK                         _______ _______ _______ _____ _____    ______ ____
ROOT
ATOM      1  C   UNL     1       1.945   9.735  17.874  0.00  0.00    +0.000 C 
ATOM      2  C   UNL     1       1.707   8.910  19.076  0.00  0.00    +0.000 A 
ATOM      3  O   UNL     1       2.047   7.602  18.931  0.00  0.00    +0.000 OA
ATOM      4  C   UNL     1       1.814   6.970  20.118  0.00  0.00    +0.000 A 
ATOM      5  C   UNL     1       1.325   7.879  21.037  0.00  0.00    +0.000 A 
ATOM      6  C   UNL     1       1.215   9.118  20.353  0.00  0.00    +0.000 A 
ENDROOT
BRANCH   4   7
ATOM      7  C   UNL     1       2.097   5.556  20.203  0.00  0.00    +0.000 C 
ATOM      8  O   UNL     1       2.045   4.920  21.255  0.00  0.00    +0.000 OA
ATOM      9  N   UNL     1       2.421   4.978  18.983  0.00  0.00    +0.000 N 
ATOM     10  H   UNL     1       2.466   5.595  18.177  0.00  0.00    +0.000 HD
BRANCH   9  11
ATOM     11  C   UNL     1       2.774   3.608  18.852  0.00  0.00    +0.000 C 
ATOM     12  C   UNL     1       3.883   3.068  19.706  0.00  0.00    +0.000 C 
ATOM     13  C   UNL     1       4.040   3.085  18.208  0.00  0.00    +0.000 C 
BRANCH  13  14
ATOM     14  C   UNL     1       5.025   3.991  17.504  0.00  0.00    +0.000 A 
ATOM     15  C   UNL     1       4.992   4.216  16.116  0.00  0.00    +0.000 A 
ATOM     16  C   UNL     1       5.858   5.128  15.497  0.00  0.00    +0.000 A 
ATOM     17  C   UNL     1       6.774   5.846  16.260  0.00  0.00    +0.000 A 
ATOM     18  C   UNL     1       6.820   5.646  17.635  0.00  0.00    +0.000 A 
ATOM     19 CL   UNL     1       7.927   6.553  18.592  0.00  0.00    +0.000 Cl
ATOM     20  C   UNL     1       5.961   4.731  18.249  0.00  0.00    +0.000 A 
ENDBRANCH  13  14
ENDBRANCH   9  11
ENDBRANCH   4   7
BRANCH   6  21
ATOM     21  S   UNL     1       0.623  10.596  21.009  0.00  0.00    +0.000 S 
ATOM     22  O   UNL     1       0.672  10.363  22.438  0.00  0.00    +0.000 OA
ATOM     23  O   UNL     1       1.434  11.612  20.372  0.00  0.00    +0.000 OA
BRANCH  21  24
ATOM     24  N   UNL     1      -1.009  10.835  20.558  0.00  0.00    +0.000 NA
ATOM     25  C   UNL     1      -1.307  10.849  19.103  0.00  0.00    +0.000 C 
ATOM     26  C   UNL     1      -1.428  12.319  18.747  0.00  0.00    +0.000 C 
ATOM     27  C   UNL     1      -2.136  12.901  19.953  0.00  0.00    +0.000 C 
ATOM     28  C   UNL     1      -1.645  12.066  21.133  0.00  0.00    +0.000 C 
ENDBRANCH  21  24
ENDBRANCH   6  21
TORSDOF 5
ENDMDL
MODEL 3
REMARK VINA RESULT:      -7.5      1.702      2.246
REMARK  Name = 
REMARK  6 active torsions:
REMARK  status: ('A' for Active; 'I' for Inactive)
REMARK    1  A    between atoms: C_1  and  C_2
REMARK    2  A    between atoms: C_4  and  C_5
REMARK    3  A    between atoms: N_7  and  C_8
REMARK    4  A    between atoms: C_10  and  C_11
REMARK    5  A    between atoms: C_19  and  S_20
REMARK    6  A    between atoms: S_20  and  N_23
REMARK                            x       y       z     vdW  Elec       q    Type
REMARK                         _______ _______ _______ _____ _____    ______ ____
ROOT
ATOM      1  C   UNL     1       9.825  10.814  20.716  0.00  0.00    +0.000 C 
ATOM      2  C   UNL     1       9.155  10.315  19.498  0.00  0.00    +0.000 A 
ATOM      3  O   UNL     1       8.949   8.971  19.483  0.00  0.00    +0.000 OA
ATOM      4  C   UNL     1       8.294   8.656  18.329  0.00  0.00    +0.000 A 
ATOM      5  C   UNL     1       8.070   9.805  17.595  0.00  0.00    +0.000 A 
ATOM      6  C   UNL     1       8.663  10.867  18.327  0.00  0.00    +0.000 A 
ENDROOT
BRANCH   4   7
ATOM      7  C   UNL     1       7.970   7.268  18.087  0.00  0.00    +0.000 C 
ATOM      8  O   UNL     1       8.174   6.375  18.908  0.00  0.00    +0.000 OA
ATOM      9  N   UNL     1       7.395   7.039  16.845  0.00  0.00    +0.000 N 
ATOM     10  H   UNL     1       7.297   7.840  16.226  0.00  0.00    +0.000 HD
BRANCH   9  11
ATOM     11  C   UNL     1       7.039   5.741  16.391  0.00  0.00    +0.000 C 
ATOM     12  C   UNL     1       6.012   5.617  15.303  0.00  0.00    +0.000 C 
ATOM     13  C   UNL     1       5.724   5.044  16.666  0.00  0.00    +0.000 C 
BRANCH  13  14
ATOM     14  C   UNL     1       4.675   5.626  17.587  0.00  0.00    +0.000 A 
ATOM     15  C   UNL     1       4.426   5.114  18.874  0.00  0.00    +0.000 A 
ATOM     16  C   UNL     1       3.512   5.723  19.744  0.00  0.00    +0.000 A 
ATOM     17  C   UNL     1       2.833   6.871  19.348  0.00  0.00    +0.000 A 
ATOM     18  C   UNL     1       3.068   7.400  18.084  0.00  0.00    +0.000 A 
ATOM     19 CL   UNL     1       2.256   8.838  17.596  0.00  0.00    +0.000 Cl
ATOM     20  C   UNL     1       3.974   6.787  17.214  0.00  0.00    +0.000 A 
ENDBRANCH  13  14
ENDBRANCH   9  11
ENDBRANCH   4   7
BRANCH   6  21
ATOM     21  S   UNL     1       8.716  12.523  17.859  0.00  0.00    +0.000 S 
ATOM     22  O   UNL     1       7.725  12.597  16.805  0.00  0.00    +0.000 OA
ATOM     23  O   UNL     1       8.562  13.245  19.105  0.00  0.00    +0.000 OA
BRANCH  21  24
ATOM     24  N   UNL     1      10.243  12.904  17.191  0.00  0.00    +0.000 NA
ATOM     25  C   UNL     1      11.395  12.081  17.639  0.00  0.00    +0.000 C 
ATOM     26  C   UNL     1      12.100  12.937  18.675  0.00  0.00    +0.000 C 
ATOM     27  C   UNL     1      11.990  14.331  18.094  0.00  0.00    +0.000 C 
ATOM     28  C   UNL     1      10.657  14.337  17.349  0.00  0.00    +0.000 C 
ENDBRANCH  21  24
ENDBRANCH   6  21
TORSDOF 5
ENDMDL
MODEL 4
REMARK VINA RESULT:      -7.5      1.053      1.397
REMARK  Name = 
REMARK  6 active torsions:
REMARK  status: ('A' for Active; 'I' for Inactive)
REMARK    1  A    between atoms: C_1  and  C_2
REMARK    2  A    between atoms: C_4  and  C_5
REMARK    3  A    between atoms: N_7  and  C_8
REMARK    4  A    between atoms: C_10  and  C_11
REMARK    5  A    between atoms: C_19  and  S_20
REMARK    6  A    between atoms: S_20  and  N_23
REMARK                            x       y       z     vdW  Elec       q    Type
REMARK                         _______ _______ _______ _____ _____    ______ ____
ROOT
ATOM      1  C   UNL     1       9.886  10.876  20.475  0.00  0.00    +0.000 C 
ATOM      2  C   UNL     1       9.138  10.376  19.303  0.00  0.00    +0.000 A 
ATOM      3  O   UNL     1       8.911   9.035  19.316  0.00  0.00    +0.000 OA
ATOM      4  C   UNL     1       8.184   8.719  18.205  0.00  0.00    +0.000 A 
ATOM      5  C   UNL     1       7.935   9.864  17.473  0.00  0.00    +0.000 A 
ATOM      6  C   UNL     1       8.586  10.924  18.158  0.00  0.00    +0.000 A 
ENDROOT
BRANCH   4   7
ATOM      7  C   UNL     1       7.825   7.334  17.998  0.00  0.00    +0.000 C 
ATOM      8  O   UNL     1       8.153   6.430  18.765  0.00  0.00    +0.000 OA
ATOM      9  N   UNL     1       7.062   7.122  16.858  0.00  0.00    +0.000 N 
ATOM     10  H   UNL     1       6.869   7.931  16.274  0.00  0.00    +0.000 HD
BRANCH   9  11
ATOM     11  C   UNL     1       6.638   5.829  16.448  0.00  0.00    +0.000 C 
ATOM     12  C   UNL     1       5.593   5.723  15.375  0.00  0.00    +0.000 C 
ATOM     13  C   UNL     1       5.294   5.206  16.758  0.00  0.00    +0.000 C 
BRANCH  13  14
ATOM     14  C   UNL     1       4.286   5.865  17.673  0.00  0.00    +0.000 A 
ATOM     15  C   UNL     1       3.998   5.380  18.961  0.00  0.00    +0.000 A 
ATOM     16  C   UNL     1       3.127   6.057  19.825  0.00  0.00    +0.000 A 
ATOM     17  C   UNL     1       2.531   7.247  19.420  0.00  0.00    +0.000 A 
ATOM     18  C   UNL     1       2.807   7.751  18.153  0.00  0.00    +0.000 A 
ATOM     19 CL   UNL     1       2.098   9.239  17.655  0.00  0.00    +0.000 Cl
ATOM     20  C   UNL     1       3.669   7.070  17.291  0.00  0.00    +0.000 A 
ENDBRANCH  13  14
ENDBRANCH   9  11
ENDBRANCH   4   7
BRANCH   6  21
ATOM     21  S   UNL     1       8.638  12.574  17.669  0.00  0.00    +0.000 S 
ATOM     22  O   UNL     1       9.986  12.722  17.159  0.00  0.00    +0.000 OA
ATOM     23  O   UNL     1       7.477  12.724  16.816  0.00  0.00    +0.000 OA
BRANCH  21  24
ATOM     24  N   UNL     1       8.457  13.602  19.023  0.00  0.00    +0.000 NA
ATOM     25  C   UNL     1       7.362  14.604  18.964  0.00  0.00    +0.000 C 
ATOM     26  C   UNL     1       8.050  15.905  18.592  0.00  0.00    +0.000 C 
ATOM     27  C   UNL     1       9.347  15.836  19.372  0.00  0.00    +0.000 C 
ATOM     28  C   UNL     1       9.697  14.350  19.413  0.00  0.00    +0.000 C 
ENDBRANCH  21  24
ENDBRANCH   6  21
TORSDOF 5
ENDMDL
MODEL 5
REMARK VINA RESULT:      -7.4      5.602      6.956
REMARK  Name = 
REMARK  6 active torsions:
REMARK  status: ('A' for Active; 'I' for Inactive)
REMARK    1  A    between atoms: C_1  and  C_2
REMARK    2  A    between atoms: C_4  and  C_5
REMARK    3  A    between atoms: N_7  and  C_8
REMARK    4  A    between atoms: C_10  and  C_11
REMARK    5  A    between atoms: C_19  and  S_20
REMARK    6  A    between atoms: S_20  and  N_23
REMARK                            x       y       z     vdW  Elec       q    Type
REMARK                         _______ _______ _______ _____ _____    ______ ____
ROOT
ATOM      1  C   UNL     1       2.077   9.678  17.770  0.00  0.00    +0.000 C 
ATOM      2  C   UNL     1       1.771   8.871  18.969  0.00  0.00    +0.000 A 
ATOM      3  O   UNL     1       2.134   7.565  18.870  0.00  0.00    +0.000 OA
ATOM      4  C   UNL     1       1.830   6.951  20.051  0.00  0.00    +0.000 A 
ATOM      5  C   UNL     1       1.272   7.870  20.919  0.00  0.00    +0.000 A 
ATOM      6  C   UNL     1       1.193   9.095  20.207  0.00  0.00    +0.000 A 
ENDROOT
BRANCH   4   7
ATOM      7  C   UNL     1       2.123   5.542  20.181  0.00  0.00    +0.000 C 
ATOM      8  O   UNL     1       1.996   4.921  21.235  0.00  0.00    +0.000 OA
ATOM      9  N   UNL     1       2.550   4.951  18.999  0.00  0.00    +0.000 N 
ATOM     10  H   UNL     1       2.651   5.557  18.190  0.00  0.00    +0.000 HD
BRANCH   9  11
ATOM     11  C   UNL     1       2.929   3.584  18.918  0.00  0.00    +0.000 C 
ATOM     12  C   UNL     1       4.056   3.099  19.783  0.00  0.00    +0.000 C 
ATOM     13  C   UNL     1       4.201   3.062  18.283  0.00  0.00    +0.000 C 
BRANCH  13  14
ATOM     14  C   UNL     1       5.162   3.959  17.537  0.00  0.00    +0.000 A 
ATOM     15  C   UNL     1       5.141   4.098  16.138  0.00  0.00    +0.000 A 
ATOM     16  C   UNL     1       5.982   5.001  15.475  0.00  0.00    +0.000 A 
ATOM     17  C   UNL     1       6.860   5.799  16.203  0.00  0.00    +0.000 A 
ATOM     18  C   UNL     1       6.893   5.685  17.589  0.00  0.00    +0.000 A 
ATOM     19 CL   UNL     1       7.953   6.690  18.501  0.00  0.00    +0.000 Cl
ATOM     20  C   UNL     1       6.060   4.778  18.247  0.00  0.00    +0.000 A 
ENDBRANCH  13  14
ENDBRANCH   9  11
ENDBRANCH   4   7
BRANCH   6  21
ATOM     21  S   UNL     1       0.542  10.577  20.796  0.00  0.00    +0.000 S 
ATOM     22  O   UNL     1      -0.861  10.478  20.449  0.00  0.00    +0.000 OA
ATOM     23  O   UNL     1       0.987  10.632  22.173  0.00  0.00    +0.000 OA
BRANCH  21  24
ATOM     24  N   UNL     1       1.216  11.901  19.949  0.00  0.00    +0.000 NA
ATOM     25  C   UNL     1       1.803  12.991  20.768  0.00  0.00    +0.000 C 
ATOM     26  C   UNL     1       0.742  14.076  20.783  0.00  0.00    +0.000 C 
ATOM     27  C   UNL     1       0.187  14.025  19.374  0.00  0.00    +0.000 C 
ATOM     28  C   UNL     1       0.288  12.557  18.970  0.00  0.00    +0.000 C 
ENDBRANCH  21  24
ENDBRANCH   6  21
TORSDOF 5
ENDMDL
MODEL 6
REMARK VINA RESULT:      -7.4      6.757     10.084
REMARK  Name = 
REMARK  6 active torsions:
REMARK  status: ('A' for Active; 'I' for Inactive)
REMARK    1  A    between atoms: C_1  and  C_2
REMARK    2  A    between atoms: C_4  and  C_5
REMARK    3  A    between atoms: N_7  and  C_8
REMARK    4  A    between atoms: C_10  and  C_11
REMARK    5  A    between atoms: C_19  and  S_20
REMARK    6  A    between atoms: S_20  and  N_23
REMARK                            x       y       z     vdW  Elec       q    Type
REMARK                         _______ _______ _______ _____ _____    ______ ____
ROOT
ATOM      1  C   UNL     1       2.857   7.725  17.661  0.00  0.00    +0.000 C 
ATOM      2  C   UNL     1       2.280   7.764  19.020  0.00  0.00    +0.000 A 
ATOM      3  O   UNL     1       1.803   8.982  19.391  0.00  0.00    +0.000 OA
ATOM      4  C   UNL     1       1.269   8.865  20.641  0.00  0.00    +0.000 A 
ATOM      5  C   UNL     1       1.397   7.561  21.079  0.00  0.00    +0.000 A 
ATOM      6  C   UNL     1       2.087   6.862  20.053  0.00  0.00    +0.000 A 
ENDROOT
BRANCH   4   7
ATOM      7  C   UNL     1       0.702  10.046  21.252  0.00  0.00    +0.000 C 
ATOM      8  O   UNL     1       0.729  10.258  22.463  0.00  0.00    +0.000 OA
ATOM      9  N   UNL     1       0.135  10.926  20.341  0.00  0.00    +0.000 N 
ATOM     10  H   UNL     1       0.136  10.645  19.364  0.00  0.00    +0.000 HD
BRANCH   9  11
ATOM     11  C   UNL     1      -0.514  12.127  20.735  0.00  0.00    +0.000 C 
ATOM     12  C   UNL     1      -1.790  12.029  21.519  0.00  0.00    +0.000 C 
ATOM     13  C   UNL     1      -1.805  12.660  20.151  0.00  0.00    +0.000 C 
BRANCH  13  14
ATOM     14  C   UNL     1      -2.486  12.015  18.966  0.00  0.00    +0.000 A 
ATOM     15  C   UNL     1      -1.773  11.393  17.925  0.00  0.00    +0.000 A 
ATOM     16  C   UNL     1      -2.426  10.724  16.882  0.00  0.00    +0.000 A 
ATOM     17  C   UNL     1      -3.816  10.653  16.862  0.00  0.00    +0.000 A 
ATOM     18  C   UNL     1      -4.543  11.254  17.884  0.00  0.00    +0.000 A 
ATOM     19 CL   UNL     1      -6.261  11.145  17.886  0.00  0.00    +0.000 Cl
ATOM     20  C   UNL     1      -3.890  11.927  18.920  0.00  0.00    +0.000 A 
ENDBRANCH  13  14
ENDBRANCH   9  11
ENDBRANCH   4   7
BRANCH   6  21
ATOM     21  S   UNL     1       2.550   5.204  20.083  0.00  0.00    +0.000 S 
ATOM     22  O   UNL     1       3.948   5.248  19.704  0.00  0.00    +0.000 OA
ATOM     23  O   UNL     1       2.127   4.745  21.390  0.00  0.00    +0.000 OA
BRANCH  21  24
ATOM     24  N   UNL     1       1.696   4.325  18.891  0.00  0.00    +0.000 NA
ATOM     25  C   UNL     1       1.028   3.074  19.330  0.00  0.00    +0.000 C 
ATOM     26  C   UNL     1       1.961   1.963  18.885  0.00  0.00    +0.000 C 
ATOM     27  C   UNL     1       2.453   2.454  17.540  0.00  0.00    +0.000 C 
ATOM     28  C   UNL     1       2.499   3.974  17.674  0.00  0.00    +0.000 C 
ENDBRANCH  21  24
ENDBRANCH   6  21
TORSDOF 5
ENDMDL
MODEL 7
REMARK VINA RESULT:      -7.3      6.014      7.580
REMARK  Name = 
REMARK  6 active torsions:
REMARK  status: ('A' for Active; 'I' for Inactive)
REMARK    1  A    between atoms: C_1  and  C_2
REMARK    2  A    between atoms: C_4  and  C_5
REMARK    3  A    between atoms: N_7  and  C_8
REMARK    4  A    between atoms: C_10  and  C_11
REMARK    5  A    between atoms: C_19  and  S_20
REMARK    6  A    between atoms: S_20  and  N_23
REMARK                            x       y       z     vdW  Elec       q    Type
REMARK                         _______ _______ _______ _____ _____    ______ ____
ROOT
ATOM      1  C   UNL     1       1.878   9.900  18.091  0.00  0.00    +0.000 C 
ATOM      2  C   UNL     1       1.629   9.020  19.251  0.00  0.00    +0.000 A 
ATOM      3  O   UNL     1       1.955   7.717  19.044  0.00  0.00    +0.000 OA
ATOM      4  C   UNL     1       1.712   7.031  20.198  0.00  0.00    +0.000 A 
ATOM      5  C   UNL     1       1.231   7.899  21.160  0.00  0.00    +0.000 A 
ATOM      6  C   UNL     1       1.137   9.171  20.536  0.00  0.00    +0.000 A 
ENDROOT
BRANCH   4   7
ATOM      7  C   UNL     1       1.980   5.611  20.216  0.00  0.00    +0.000 C 
ATOM      8  O   UNL     1       1.716   4.886  21.174  0.00  0.00    +0.000 OA
ATOM      9  N   UNL     1       2.550   5.138  19.042  0.00  0.00    +0.000 N 
ATOM     10  H   UNL     1       2.756   5.822  18.319  0.00  0.00    +0.000 HD
BRANCH   9  11
ATOM     11  C   UNL     1       2.930   3.780  18.866  0.00  0.00    +0.000 C 
ATOM     12  C   UNL     1       3.984   3.207  19.767  0.00  0.00    +0.000 C 
ATOM     13  C   UNL     1       4.245   3.304  18.287  0.00  0.00    +0.000 C 
BRANCH  13  14
ATOM     14  C   UNL     1       5.264   4.255  17.701  0.00  0.00    +0.000 A 
ATOM     15  C   UNL     1       6.026   5.134  18.492  0.00  0.00    +0.000 A 
ATOM     16  C   UNL     1       7.026   5.943  17.938  0.00  0.00    +0.000 A 
ATOM     17  C   UNL     1       7.297   5.882  16.575  0.00  0.00    +0.000 A 
ATOM     18  C   UNL     1       6.563   5.014  15.773  0.00  0.00    +0.000 A 
ATOM     19 CL   UNL     1       6.911   4.906  14.090  0.00  0.00    +0.000 Cl
ATOM     20  C   UNL     1       5.560   4.214  16.326  0.00  0.00    +0.000 A 
ENDBRANCH  13  14
ENDBRANCH   9  11
ENDBRANCH   4   7
BRANCH   6  21
ATOM     21  S   UNL     1       0.559  10.622  21.262  0.00  0.00    +0.000 S 
ATOM     22  O   UNL     1       0.493  10.280  22.669  0.00  0.00    +0.000 OA
ATOM     23  O   UNL     1       1.457  11.644  20.765  0.00  0.00    +0.000 OA
BRANCH  21  24
ATOM     24  N   UNL     1      -1.023  10.971  20.717  0.00  0.00    +0.000 NA
ATOM     25  C   UNL     1      -1.243  10.969  19.248  0.00  0.00    +0.000 C 
ATOM     26  C   UNL     1      -1.232  12.434  18.854  0.00  0.00    +0.000 C 
ATOM     27  C   UNL     1      -1.957  13.098  20.006  0.00  0.00    +0.000 C 
ATOM     28  C   UNL     1      -1.593  12.260  21.229  0.00  0.00    +0.000 C 
ENDBRANCH  21  24
ENDBRANCH   6  21
TORSDOF 5
ENDMDL
MODEL 8
REMARK VINA RESULT:      -7.3      6.413      8.986
REMARK  Name = 
REMARK  6 active torsions:
REMARK  status: ('A' for Active; 'I' for Inactive)
REMARK    1  A    between atoms: C_1  and  C_2
REMARK    2  A    between atoms: C_4  and  C_5
REMARK    3  A    between atoms: N_7  and  C_8
REMARK    4  A    between atoms: C_10  and  C_11
REMARK    5  A    between atoms: C_19  and  S_20
REMARK    6  A    between atoms: S_20  and  N_23
REMARK                            x       y       z     vdW  Elec       q    Type
REMARK                         _______ _______ _______ _____ _____    ______ ____
ROOT
ATOM      1  C   UNL     1       0.891   3.886  20.465  0.00  0.00    +0.000 C 
ATOM      2  C   UNL     1       1.565   5.163  20.153  0.00  0.00    +0.000 A 
ATOM      3  O   UNL     1       1.073   6.234  20.831  0.00  0.00    +0.000 OA
ATOM      4  C   UNL     1       1.805   7.330  20.479  0.00  0.00    +0.000 A 
ATOM      5  C   UNL     1       2.780   6.963  19.572  0.00  0.00    +0.000 A 
ATOM      6  C   UNL     1       2.597   5.576  19.329  0.00  0.00    +0.000 A 
ENDROOT
BRANCH   4   7
ATOM      7  C   UNL     1       1.458   8.601  21.074  0.00  0.00    +0.000 C 
ATOM      8  O   UNL     1       1.600   8.847  22.271  0.00  0.00    +0.000 OA
ATOM      9  N   UNL     1       0.960   9.523  20.164  0.00  0.00    +0.000 N 
ATOM     10  H   UNL     1       0.853   9.213  19.202  0.00  0.00    +0.000 HD
BRANCH   9  11
ATOM     11  C   UNL     1       0.520  10.819  20.547  0.00  0.00    +0.000 C 
ATOM     12  C   UNL     1      -0.757  10.942  21.326  0.00  0.00    +0.000 C 
ATOM     13  C   UNL     1      -0.662  11.556  19.954  0.00  0.00    +0.000 C 
BRANCH  13  14
ATOM     14  C   UNL     1      -1.437  11.025  18.770  0.00  0.00    +0.000 A 
ATOM     15  C   UNL     1      -0.888  10.115  17.848  0.00  0.00    +0.000 A 
ATOM     16  C   UNL     1      -1.653   9.568  16.809  0.00  0.00    +0.000 A 
ATOM     17  C   UNL     1      -2.994   9.912  16.676  0.00  0.00    +0.000 A 
ATOM     18  C   UNL     1      -3.562  10.804  17.580  0.00  0.00    +0.000 A 
ATOM     19 CL   UNL     1      -5.229  11.212  17.442  0.00  0.00    +0.000 Cl
ATOM     20  C   UNL     1      -2.796  11.355  18.610  0.00  0.00    +0.000 A 
ENDBRANCH  13  14
ENDBRANCH   9  11
ENDBRANCH   4   7
BRANCH   6  21
ATOM     21  S   UNL     1       3.515   4.600  18.248  0.00  0.00    +0.000 S 
ATOM     22  O   UNL     1       4.049   3.567  19.112  0.00  0.00    +0.000 OA
ATOM     23  O   UNL     1       2.589   4.297  17.176  0.00  0.00    +0.000 OA
BRANCH  21  24
ATOM     24  N   UNL     1       4.823   5.493  17.604  0.00  0.00    +0.000 NA
ATOM     25  C   UNL     1       5.122   5.301  16.162  0.00  0.00    +0.000 C 
ATOM     26  C   UNL     1       6.303   4.348  16.137  0.00  0.00    +0.000 C 
ATOM     27  C   UNL     1       7.137   4.814  17.313  0.00  0.00    +0.000 C 
ATOM     28  C   UNL     1       6.122   5.319  18.334  0.00  0.00    +0.000 C 
ENDBRANCH  21  24
ENDBRANCH   6  21
TORSDOF 5
ENDMDL
MODEL 9
REMARK VINA RESULT:      -7.3      1.448      1.982
REMARK  Name = 
REMARK  6 active torsions:
REMARK  status: ('A' for Active; 'I' for Inactive)
REMARK    1  A    between atoms: C_1  and  C_2
REMARK    2  A    between atoms: C_4  and  C_5
REMARK    3  A    between atoms: N_7  and  C_8
REMARK    4  A    between atoms: C_10  and  C_11
REMARK    5  A    between atoms: C_19  and  S_20
REMARK    6  A    between atoms: S_20  and  N_23
REMARK                            x       y       z     vdW  Elec       q    Type
REMARK                         _______ _______ _______ _____ _____    ______ ____
ROOT
ATOM      1  C   UNL     1       7.655  12.337  17.157  0.00  0.00    +0.000 C 
ATOM      2  C   UNL     1       8.233  11.183  17.876  0.00  0.00    +0.000 A 
ATOM      3  O   UNL     1       7.675   9.986  17.551  0.00  0.00    +0.000 OA
ATOM      4  C   UNL     1       8.323   9.013  18.254  0.00  0.00    +0.000 A 
ATOM      5  C   UNL     1       9.311   9.585  19.034  0.00  0.00    +0.000 A 
ATOM      6  C   UNL     1       9.223  10.986  18.824  0.00  0.00    +0.000 A 
ENDROOT
BRANCH   4   7
ATOM      7  C   UNL     1       7.894   7.644  18.075  0.00  0.00    +0.000 C 
ATOM      8  O   UNL     1       8.189   6.738  18.853  0.00  0.00    +0.000 OA
ATOM      9  N   UNL     1       7.107   7.450  16.949  0.00  0.00    +0.000 N 
ATOM     10  H   UNL     1       6.945   8.258  16.353  0.00  0.00    +0.000 HD
BRANCH   9  11
ATOM     11  C   UNL     1       6.615   6.174  16.567  0.00  0.00    +0.000 C 
ATOM     12  C   UNL     1       5.638   6.092  15.430  0.00  0.00    +0.000 C 
ATOM     13  C   UNL     1       5.210   5.665  16.810  0.00  0.00    +0.000 C 
BRANCH  13  14
ATOM     14  C   UNL     1       4.197   6.438  17.623  0.00  0.00    +0.000 A 
ATOM     15  C   UNL     1       3.734   7.712  17.247  0.00  0.00    +0.000 A 
ATOM     16  C   UNL     1       2.730   8.372  17.968  0.00  0.00    +0.000 A 
ATOM     17  C   UNL     1       2.156   7.765  19.080  0.00  0.00    +0.000 A 
ATOM     18  C   UNL     1       2.592   6.502  19.466  0.00  0.00    +0.000 A 
ATOM     19 CL   UNL     1       1.866   5.727  20.823  0.00  0.00    +0.000 Cl
ATOM     20  C   UNL     1       3.599   5.848  18.752  0.00  0.00    +0.000 A 
ENDBRANCH  13  14
ENDBRANCH   9  11
ENDBRANCH   4   7
BRANCH   6  21
ATOM     21  S   UNL     1      10.194  12.192  19.576  0.00  0.00    +0.000 S 
ATOM     22  O   UNL     1      10.901  11.451  20.601  0.00  0.00    +0.000 OA
ATOM     23  O   UNL     1      10.888  12.822  18.472  0.00  0.00    +0.000 OA
BRANCH  21  24
ATOM     24  N   UNL     1       9.207  13.361  20.339  0.00  0.00    +0.000 NA
ATOM     25  C   UNL     1       9.343  14.763  19.871  0.00  0.00    +0.000 C 
ATOM     26  C   UNL     1      10.222  15.433  20.912  0.00  0.00    +0.000 C 
ATOM     27  C   UNL     1       9.736  14.819  22.209  0.00  0.00    +0.000 C 
ATOM     28  C   UNL     1       9.320  13.399  21.834  0.00  0.00    +0.000 C 
ENDBRANCH  21  24
ENDBRANCH   6  21
TORSDOF 5
ENDMDL
