MODEL 1
REMARK VINA RESULT:      -9.1      0.000      0.000
REMARK  Name = 
REMARK  4 active torsions:
REMARK  status: ('A' for Active; 'I' for Inactive)
REMARK    1  A    between atoms: C_2  and  C_3
REMARK    2  A    between atoms: C_3  and  N_4
REMARK    3  A    between atoms: C_7  and  C_8
REMARK    4  A    between atoms: C_12  and  C_13
REMARK                            x       y       z     vdW  Elec       q    Type
REMARK                         _______ _______ _______ _____ _____    ______ ____
ROOT
ATOM      1  N   UNL     1       5.992   6.024  16.113  0.00  0.00    +0.000 N 
ATOM      2  N   UNL     1       7.330   5.882  16.014  0.00  0.00    +0.000 NA
ATOM      3  N   UNL     1       7.524   5.174  14.911  0.00  0.00    +0.000 NA
ATOM      4  C   UNL     1       6.283   4.888  14.398  0.00  0.00    +0.000 A 
ATOM      5  N   UNL     1       5.288   5.416  15.128  0.00  0.00    +0.000 NA
ENDROOT
BRANCH   4   6
ATOM      6  C   UNL     1       6.070   4.025  13.247  0.00  0.00    +0.000 A 
ATOM      7  C   UNL     1       7.052   3.113  12.845  0.00  0.00    +0.000 A 
ATOM      8  C   UNL     1       6.831   2.272  11.752  0.00  0.00    +0.000 A 
ATOM      9  C   UNL     1       5.625   2.335  11.051  0.00  0.00    +0.000 A 
ATOM     10  C   UNL     1       4.625   3.238  11.435  0.00  0.00    +0.000 A 
ATOM     11  C   UNL     1       4.859   4.077  12.537  0.00  0.00    +0.000 A 
BRANCH  10  12
ATOM     12  C   UNL     1       3.311   3.328  10.699  0.00  0.00    +0.000 C 
ATOM     13  F   UNL     1       2.261   2.808  11.393  0.00  0.00    +0.000 F 
ATOM     14  F   UNL     1       2.965   4.612  10.407  0.00  0.00    +0.000 F 
ATOM     15  F   UNL     1       3.335   2.666   9.508  0.00  0.00    +0.000 F 
ENDBRANCH  10  12
ENDBRANCH   4   6
BRANCH   1  16
ATOM     16  C   UNL     1       5.387   6.150  17.425  0.00  0.00    +0.000 C 
BRANCH  16  18
ATOM     17  O   UNL     1       6.050   4.175  18.607  0.00  0.00    +0.000 OA
ATOM     18  C   UNL     1       5.149   4.845  18.121  0.00  0.00    +0.000 C 
ATOM     19  N   UNL     1       3.793   4.520  18.166  0.00  0.00    +0.000 N 
ATOM     20  C   UNL     1       2.684   5.382  17.689  0.00  0.00    +0.000 C 
ATOM     21  C   UNL     1       1.442   4.513  17.770  0.00  0.00    +0.000 C 
ATOM     22  C   UNL     1       1.808   3.773  19.017  0.00  0.00    +0.000 A 
ATOM     23  C   UNL     1       0.990   3.388  20.059  0.00  0.00    +0.000 A 
ATOM     24  C   UNL     1       1.595   2.793  21.165  0.00  0.00    +0.000 A 
ATOM     25  C   UNL     1       2.972   2.503  21.167  0.00  0.00    +0.000 A 
ATOM     26  C   UNL     1       3.794   2.912  20.113  0.00  0.00    +0.000 A 
ATOM     27  C   UNL     1       3.201   3.630  19.097  0.00  0.00    +0.000 A 
ENDBRANCH  16  18
ENDBRANCH   1  16
TORSDOF 4
ENDMDL
MODEL 2
REMARK VINA RESULT:      -9.0      1.309      1.696
REMARK  Name = 
REMARK  4 active torsions:
REMARK  status: ('A' for Active; 'I' for Inactive)
REMARK    1  A    between atoms: C_2  and  C_3
REMARK    2  A    between atoms: C_3  and  N_4
REMARK    3  A    between atoms: C_7  and  C_8
REMARK    4  A    between atoms: C_12  and  C_13
REMARK                            x       y       z     vdW  Elec       q    Type
REMARK                         _______ _______ _______ _____ _____    ______ ____
ROOT
ATOM      1  N   UNL     1       6.659   5.818  17.403  0.00  0.00    +0.000 N 
ATOM      2  N   UNL     1       7.572   4.840  17.570  0.00  0.00    +0.000 NA
ATOM      3  N   UNL     1       7.845   4.407  16.348  0.00  0.00    +0.000 NA
ATOM      4  C   UNL     1       7.057   5.128  15.485  0.00  0.00    +0.000 A 
ATOM      5  N   UNL     1       6.297   6.036  16.117  0.00  0.00    +0.000 NA
ENDROOT
BRANCH   4   6
ATOM      6  C   UNL     1       6.982   4.866  14.056  0.00  0.00    +0.000 A 
ATOM      7  C   UNL     1       7.984   5.322  13.192  0.00  0.00    +0.000 A 
ATOM      8  C   UNL     1       7.916   5.047  11.824  0.00  0.00    +0.000 A 
ATOM      9  C   UNL     1       6.847   4.312  11.309  0.00  0.00    +0.000 A 
ATOM     10  C   UNL     1       5.833   3.842  12.154  0.00  0.00    +0.000 A 
ATOM     11  C   UNL     1       5.914   4.124  13.527  0.00  0.00    +0.000 A 
BRANCH  10  12
ATOM     12  C   UNL     1       4.667   3.043  11.626  0.00  0.00    +0.000 C 
ATOM     13  F   UNL     1       4.101   3.577  10.508  0.00  0.00    +0.000 F 
ATOM     14  F   UNL     1       5.017   1.770  11.294  0.00  0.00    +0.000 F 
ATOM     15  F   UNL     1       3.659   2.929  12.536  0.00  0.00    +0.000 F 
ENDBRANCH  10  12
ENDBRANCH   4   6
BRANCH   1  16
ATOM     16  C   UNL     1       5.687   6.068  18.452  0.00  0.00    +0.000 C 
BRANCH  16  18
ATOM     17  O   UNL     1       5.943   4.318  20.067  0.00  0.00    +0.000 OA
ATOM     18  C   UNL     1       5.259   4.842  19.198  0.00  0.00    +0.000 C 
ATOM     19  N   UNL     1       3.993   4.408  18.802  0.00  0.00    +0.000 N 
ATOM     20  C   UNL     1       3.106   5.105  17.840  0.00  0.00    +0.000 C 
ATOM     21  C   UNL     1       1.953   4.147  17.597  0.00  0.00    +0.000 C 
ATOM     22  C   UNL     1       1.864   3.601  18.986  0.00  0.00    +0.000 A 
ATOM     23  C   UNL     1       0.735   3.277  19.709  0.00  0.00    +0.000 A 
ATOM     24  C   UNL     1       0.914   2.876  21.033  0.00  0.00    +0.000 A 
ATOM     25  C   UNL     1       2.204   2.710  21.570  0.00  0.00    +0.000 A 
ATOM     26  C   UNL     1       3.339   3.056  20.833  0.00  0.00    +0.000 A 
ATOM     27  C   UNL     1       3.135   3.590  19.579  0.00  0.00    +0.000 A 
ENDBRANCH  16  18
ENDBRANCH   1  16
TORSDOF 4
ENDMDL
MODEL 3
REMARK VINA RESULT:      -8.7      6.225      8.297
REMARK  Name = 
REMARK  4 active torsions:
REMARK  status: ('A' for Active; 'I' for Inactive)
REMARK    1  A    between atoms: C_2  and  C_3
REMARK    2  A    between atoms: C_3  and  N_4
REMARK    3  A    between atoms: C_7  and  C_8
REMARK    4  A    between atoms: C_12  and  C_13
REMARK                            x       y       z     vdW  Elec       q    Type
REMARK                         _______ _______ _______ _____ _____    ______ ____
ROOT
ATOM      1  N   UNL     1       7.773   6.980  18.151  0.00  0.00    +0.000 N 
ATOM      2  N   UNL     1       7.115   7.685  17.208  0.00  0.00    +0.000 NA
ATOM      3  N   UNL     1       7.560   8.926  17.326  0.00  0.00    +0.000 NA
ATOM      4  C   UNL     1       8.459   8.930  18.365  0.00  0.00    +0.000 A 
ATOM      5  N   UNL     1       8.625   7.713  18.908  0.00  0.00    +0.000 NA
ENDROOT
BRANCH   4   6
ATOM      6  C   UNL     1       9.083  10.137  18.883  0.00  0.00    +0.000 A 
ATOM      7  C   UNL     1       9.210  10.342  20.262  0.00  0.00    +0.000 A 
ATOM      8  C   UNL     1       9.831  11.493  20.750  0.00  0.00    +0.000 A 
ATOM      9  C   UNL     1      10.330  12.451  19.865  0.00  0.00    +0.000 A 
ATOM     10  C   UNL     1      10.217  12.268  18.481  0.00  0.00    +0.000 A 
ATOM     11  C   UNL     1       9.592  11.104  18.002  0.00  0.00    +0.000 A 
BRANCH  10  12
ATOM     12  C   UNL     1      10.749  13.283  17.500  0.00  0.00    +0.000 C 
ATOM     13  F   UNL     1      11.741  14.066  18.009  0.00  0.00    +0.000 F 
ATOM     14  F   UNL     1      11.268  12.704  16.382  0.00  0.00    +0.000 F 
ATOM     15  F   UNL     1       9.784  14.141  17.062  0.00  0.00    +0.000 F 
ENDBRANCH  10  12
ENDBRANCH   4   6
BRANCH   1  16
ATOM     16  C   UNL     1       7.136   5.820  18.745  0.00  0.00    +0.000 C 
BRANCH  16  18
ATOM     17  O   UNL     1       6.579   4.361  16.929  0.00  0.00    +0.000 OA
ATOM     18  C   UNL     1       6.197   5.098  17.828  0.00  0.00    +0.000 C 
ATOM     19  N   UNL     1       4.862   5.346  18.150  0.00  0.00    +0.000 N 
ATOM     20  C   UNL     1       4.390   6.138  19.312  0.00  0.00    +0.000 C 
ATOM     21  C   UNL     1       2.892   6.282  19.112  0.00  0.00    +0.000 C 
ATOM     22  C   UNL     1       2.648   4.928  18.525  0.00  0.00    +0.000 A 
ATOM     23  C   UNL     1       1.580   4.081  18.736  0.00  0.00    +0.000 A 
ATOM     24  C   UNL     1       1.634   2.820  18.145  0.00  0.00    +0.000 A 
ATOM     25  C   UNL     1       2.689   2.471  17.281  0.00  0.00    +0.000 A 
ATOM     26  C   UNL     1       3.773   3.331  17.087  0.00  0.00    +0.000 A 
ATOM     27  C   UNL     1       3.772   4.512  17.797  0.00  0.00    +0.000 A 
ENDBRANCH  16  18
ENDBRANCH   1  16
TORSDOF 4
ENDMDL
MODEL 4
REMARK VINA RESULT:      -8.6      1.679      2.203
REMARK  Name = 
REMARK  4 active torsions:
REMARK  status: ('A' for Active; 'I' for Inactive)
REMARK    1  A    between atoms: C_2  and  C_3
REMARK    2  A    between atoms: C_3  and  N_4
REMARK    3  A    between atoms: C_7  and  C_8
REMARK    4  A    between atoms: C_12  and  C_13
REMARK                            x       y       z     vdW  Elec       q    Type
REMARK                         _______ _______ _______ _____ _____    ______ ____
ROOT
ATOM      1  N   UNL     1       6.118   5.941  16.329  0.00  0.00    +0.000 N 
ATOM      2  N   UNL     1       7.412   5.656  16.078  0.00  0.00    +0.000 NA
ATOM      3  N   UNL     1       7.405   4.983  14.937  0.00  0.00    +0.000 NA
ATOM      4  C   UNL     1       6.091   4.862  14.554  0.00  0.00    +0.000 A 
ATOM      5  N   UNL     1       5.248   5.462  15.408  0.00  0.00    +0.000 NA
ENDROOT
BRANCH   4   6
ATOM      6  C   UNL     1       5.659   4.083  13.405  0.00  0.00    +0.000 A 
ATOM      7  C   UNL     1       4.374   4.246  12.873  0.00  0.00    +0.000 A 
ATOM      8  C   UNL     1       3.974   3.511  11.755  0.00  0.00    +0.000 A 
ATOM      9  C   UNL     1       4.854   2.606  11.159  0.00  0.00    +0.000 A 
ATOM     10  C   UNL     1       6.145   2.426  11.671  0.00  0.00    +0.000 A 
ATOM     11  C   UNL     1       6.536   3.173  12.794  0.00  0.00    +0.000 A 
BRANCH  10  12
ATOM     12  C   UNL     1       7.120   1.458  11.047  0.00  0.00    +0.000 C 
ATOM     13  F   UNL     1       6.890   0.159  11.386  0.00  0.00    +0.000 F 
ATOM     14  F   UNL     1       7.093   1.498   9.686  0.00  0.00    +0.000 F 
ATOM     15  F   UNL     1       8.410   1.713  11.404  0.00  0.00    +0.000 F 
ENDBRANCH  10  12
ENDBRANCH   4   6
BRANCH   1  16
ATOM     16  C   UNL     1       5.674   6.072  17.705  0.00  0.00    +0.000 C 
BRANCH  16  18
ATOM     17  O   UNL     1       6.118   4.015  18.849  0.00  0.00    +0.000 OA
ATOM     18  C   UNL     1       5.298   4.776  18.355  0.00  0.00    +0.000 C 
ATOM     19  N   UNL     1       3.917   4.574  18.351  0.00  0.00    +0.000 N 
ATOM     20  C   UNL     1       2.906   5.546  17.865  0.00  0.00    +0.000 C 
ATOM     21  C   UNL     1       1.589   4.791  17.884  0.00  0.00    +0.000 C 
ATOM     22  C   UNL     1       1.846   3.989  19.120  0.00  0.00    +0.000 A 
ATOM     23  C   UNL     1       0.963   3.654  20.125  0.00  0.00    +0.000 A 
ATOM     24  C   UNL     1       1.476   2.978  21.231  0.00  0.00    +0.000 A 
ATOM     25  C   UNL     1       2.820   2.564  21.266  0.00  0.00    +0.000 A 
ATOM     26  C   UNL     1       3.710   2.923  20.250  0.00  0.00    +0.000 A 
ATOM     27  C   UNL     1       3.217   3.718  19.237  0.00  0.00    +0.000 A 
ENDBRANCH  16  18
ENDBRANCH   1  16
TORSDOF 4
ENDMDL
MODEL 5
REMARK VINA RESULT:      -8.5      5.508      8.519
REMARK  Name = 
REMARK  4 active torsions:
REMARK  status: ('A' for Active; 'I' for Inactive)
REMARK    1  A    between atoms: C_2  and  C_3
REMARK    2  A    between atoms: C_3  and  N_4
REMARK    3  A    between atoms: C_7  and  C_8
REMARK    4  A    between atoms: C_12  and  C_13
REMARK                            x       y       z     vdW  Elec       q    Type
REMARK                         _______ _______ _______ _____ _____    ______ ____
ROOT
ATOM      1  N   UNL     1       2.564   7.539  19.125  0.00  0.00    +0.000 N 
ATOM      2  N   UNL     1       2.891   7.878  17.862  0.00  0.00    +0.000 NA
ATOM      3  N   UNL     1       2.115   8.910  17.566  0.00  0.00    +0.000 NA
ATOM      4  C   UNL     1       1.321   9.138  18.663  0.00  0.00    +0.000 A 
ATOM      5  N   UNL     1       1.581   8.294  19.673  0.00  0.00    +0.000 NA
ENDROOT
BRANCH   4   6
ATOM      6  C   UNL     1       0.249  10.121  18.687  0.00  0.00    +0.000 A 
ATOM      7  C   UNL     1       0.248  11.155  19.631  0.00  0.00    +0.000 A 
ATOM      8  C   UNL     1      -0.773  12.107  19.634  0.00  0.00    +0.000 A 
ATOM      9  C   UNL     1      -1.802  12.036  18.693  0.00  0.00    +0.000 A 
ATOM     10  C   UNL     1      -1.822  11.012  17.737  0.00  0.00    +0.000 A 
ATOM     11  C   UNL     1      -0.789  10.061  17.744  0.00  0.00    +0.000 A 
BRANCH  10  12
ATOM     12  C   UNL     1      -2.919  10.910  16.707  0.00  0.00    +0.000 C 
ATOM     13  F   UNL     1      -2.492  11.130  15.432  0.00  0.00    +0.000 F 
ATOM     14  F   UNL     1      -3.509   9.683  16.695  0.00  0.00    +0.000 F 
ATOM     15  F   UNL     1      -3.923  11.806  16.923  0.00  0.00    +0.000 F 
ENDBRANCH  10  12
ENDBRANCH   4   6
BRANCH   1  16
ATOM     16  C   UNL     1       2.697   6.157  19.547  0.00  0.00    +0.000 C 
BRANCH  16  18
ATOM     17  O   UNL     1       2.238   4.728  17.680  0.00  0.00    +0.000 OA
ATOM     18  C   UNL     1       3.062   5.211  18.444  0.00  0.00    +0.000 C 
ATOM     19  N   UNL     1       4.438   4.986  18.387  0.00  0.00    +0.000 N 
ATOM     20  C   UNL     1       5.457   5.660  19.229  0.00  0.00    +0.000 C 
ATOM     21  C   UNL     1       6.759   4.938  18.932  0.00  0.00    +0.000 C 
ATOM     22  C   UNL     1       6.514   4.694  17.478  0.00  0.00    +0.000 A 
ATOM     23  C   UNL     1       7.413   4.756  16.433  0.00  0.00    +0.000 A 
ATOM     24  C   UNL     1       6.912   4.584  15.144  0.00  0.00    +0.000 A 
ATOM     25  C   UNL     1       5.561   4.254  14.931  0.00  0.00    +0.000 A 
ATOM     26  C   UNL     1       4.656   4.209  15.995  0.00  0.00    +0.000 A 
ATOM     27  C   UNL     1       5.141   4.528  17.245  0.00  0.00    +0.000 A 
ENDBRANCH  16  18
ENDBRANCH   1  16
TORSDOF 4
ENDMDL
MODEL 6
REMARK VINA RESULT:      -8.1      6.613      9.644
REMARK  Name = 
REMARK  4 active torsions:
REMARK  status: ('A' for Active; 'I' for Inactive)
REMARK    1  A    between atoms: C_2  and  C_3
REMARK    2  A    between atoms: C_3  and  N_4
REMARK    3  A    between atoms: C_7  and  C_8
REMARK    4  A    between atoms: C_12  and  C_13
REMARK                            x       y       z     vdW  Elec       q    Type
REMARK                         _______ _______ _______ _____ _____    ______ ____
ROOT
ATOM      1  N   UNL     1       2.554   7.281  19.284  0.00  0.00    +0.000 N 
ATOM      2  N   UNL     1       2.553   7.657  17.988  0.00  0.00    +0.000 NA
ATOM      3  N   UNL     1       1.777   8.729  17.937  0.00  0.00    +0.000 NA
ATOM      4  C   UNL     1       1.312   8.945  19.212  0.00  0.00    +0.000 A 
ATOM      5  N   UNL     1       1.788   8.052  20.093  0.00  0.00    +0.000 NA
ENDROOT
BRANCH   4   6
ATOM      6  C   UNL     1       0.333   9.967  19.547  0.00  0.00    +0.000 A 
ATOM      7  C   UNL     1      -0.347  10.664  18.541  0.00  0.00    +0.000 A 
ATOM      8  C   UNL     1      -1.301  11.628  18.871  0.00  0.00    +0.000 A 
ATOM      9  C   UNL     1      -1.585  11.905  20.210  0.00  0.00    +0.000 A 
ATOM     10  C   UNL     1      -0.920  11.220  21.234  0.00  0.00    +0.000 A 
ATOM     11  C   UNL     1       0.036  10.251  20.889  0.00  0.00    +0.000 A 
BRANCH  10  12
ATOM     12  C   UNL     1      -1.207  11.495  22.690  0.00  0.00    +0.000 C 
ATOM     13  F   UNL     1      -2.536  11.536  22.986  0.00  0.00    +0.000 F 
ATOM     14  F   UNL     1      -0.671  10.552  23.513  0.00  0.00    +0.000 F 
ATOM     15  F   UNL     1      -0.695  12.688  23.106  0.00  0.00    +0.000 F 
ENDBRANCH  10  12
ENDBRANCH   4   6
BRANCH   1  16
ATOM     16  C   UNL     1       2.727   5.880  19.617  0.00  0.00    +0.000 C 
BRANCH  16  18
ATOM     17  O   UNL     1       2.275   4.554  17.673  0.00  0.00    +0.000 OA
ATOM     18  C   UNL     1       3.099   5.013  18.452  0.00  0.00    +0.000 C 
ATOM     19  N   UNL     1       4.480   4.832  18.360  0.00  0.00    +0.000 N 
ATOM     20  C   UNL     1       5.494   5.483  19.225  0.00  0.00    +0.000 C 
ATOM     21  C   UNL     1       6.810   4.818  18.864  0.00  0.00    +0.000 C 
ATOM     22  C   UNL     1       6.546   4.656  17.401  0.00  0.00    +0.000 A 
ATOM     23  C   UNL     1       7.424   4.808  16.348  0.00  0.00    +0.000 A 
ATOM     24  C   UNL     1       6.906   4.700  15.058  0.00  0.00    +0.000 A 
ATOM     25  C   UNL     1       5.561   4.345  14.847  0.00  0.00    +0.000 A 
ATOM     26  C   UNL     1       4.677   4.209  15.920  0.00  0.00    +0.000 A 
ATOM     27  C   UNL     1       5.174   4.465  17.180  0.00  0.00    +0.000 A 
ENDBRANCH  16  18
ENDBRANCH   1  16
TORSDOF 4
ENDMDL
MODEL 7
REMARK VINA RESULT:      -8.1      1.045      1.899
REMARK  Name = 
REMARK  4 active torsions:
REMARK  status: ('A' for Active; 'I' for Inactive)
REMARK    1  A    between atoms: C_2  and  C_3
REMARK    2  A    between atoms: C_3  and  N_4
REMARK    3  A    between atoms: C_7  and  C_8
REMARK    4  A    between atoms: C_12  and  C_13
REMARK                            x       y       z     vdW  Elec       q    Type
REMARK                         _______ _______ _______ _____ _____    ______ ____
ROOT
ATOM      1  N   UNL     1       6.305   5.677  16.047  0.00  0.00    +0.000 N 
ATOM      2  N   UNL     1       7.562   5.895  15.608  0.00  0.00    +0.000 NA
ATOM      3  N   UNL     1       7.626   5.298  14.427  0.00  0.00    +0.000 NA
ATOM      4  C   UNL     1       6.402   4.713  14.210  0.00  0.00    +0.000 A 
ATOM      5  N   UNL     1       5.538   4.937  15.212  0.00  0.00    +0.000 NA
ENDROOT
BRANCH   4   6
ATOM      6  C   UNL     1       6.111   3.861  13.067  0.00  0.00    +0.000 A 
ATOM      7  C   UNL     1       7.035   2.901  12.636  0.00  0.00    +0.000 A 
ATOM      8  C   UNL     1       6.738   2.073  11.553  0.00  0.00    +0.000 A 
ATOM      9  C   UNL     1       5.515   2.195  10.889  0.00  0.00    +0.000 A 
ATOM     10  C   UNL     1       4.574   3.146  11.303  0.00  0.00    +0.000 A 
ATOM     11  C   UNL     1       4.883   3.973  12.395  0.00  0.00    +0.000 A 
BRANCH  10  12
ATOM     12  C   UNL     1       3.244   3.300  10.608  0.00  0.00    +0.000 C 
ATOM     13  F   UNL     1       2.917   4.595  10.336  0.00  0.00    +0.000 F 
ATOM     14  F   UNL     1       3.202   2.648   9.413  0.00  0.00    +0.000 F 
ATOM     15  F   UNL     1       2.210   2.801  11.342  0.00  0.00    +0.000 F 
ENDBRANCH  10  12
ENDBRANCH   4   6
BRANCH   1  16
ATOM     16  C   UNL     1       6.056   5.597  17.475  0.00  0.00    +0.000 C 
BRANCH  16  18
ATOM     17  O   UNL     1       3.841   6.510  17.449  0.00  0.00    +0.000 OA
ATOM     18  C   UNL     1       4.606   5.643  17.849  0.00  0.00    +0.000 C 
ATOM     19  N   UNL     1       4.247   4.570  18.666  0.00  0.00    +0.000 N 
ATOM     20  C   UNL     1       5.135   3.448  19.055  0.00  0.00    +0.000 C 
ATOM     21  C   UNL     1       4.353   2.664  20.094  0.00  0.00    +0.000 C 
ATOM     22  C   UNL     1       2.999   2.841  19.486  0.00  0.00    +0.000 A 
ATOM     23  C   UNL     1       1.969   1.927  19.403  0.00  0.00    +0.000 A 
ATOM     24  C   UNL     1       0.831   2.305  18.692  0.00  0.00    +0.000 A 
ATOM     25  C   UNL     1       0.701   3.606  18.173  0.00  0.00    +0.000 A 
ATOM     26  C   UNL     1       1.757   4.518  18.250  0.00  0.00    +0.000 A 
ATOM     27  C   UNL     1       2.928   4.076  18.826  0.00  0.00    +0.000 A 
ENDBRANCH  16  18
ENDBRANCH   1  16
TORSDOF 4
ENDMDL
MODEL 8
REMARK VINA RESULT:      -8.1      6.549      8.546
REMARK  Name = 
REMARK  4 active torsions:
REMARK  status: ('A' for Active; 'I' for Inactive)
REMARK    1  A    between atoms: C_2  and  C_3
REMARK    2  A    between atoms: C_3  and  N_4
REMARK    3  A    between atoms: C_7  and  C_8
REMARK    4  A    between atoms: C_12  and  C_13
REMARK                            x       y       z     vdW  Elec       q    Type
REMARK                         _______ _______ _______ _____ _____    ______ ____
ROOT
ATOM      1  N   UNL     1       7.687   6.859  18.193  0.00  0.00    +0.000 N 
ATOM      2  N   UNL     1       7.062   7.500  17.185  0.00  0.00    +0.000 NA
ATOM      3  N   UNL     1       7.539   8.735  17.208  0.00  0.00    +0.000 NA
ATOM      4  C   UNL     1       8.422   8.800  18.258  0.00  0.00    +0.000 A 
ATOM      5  N   UNL     1       8.547   7.629  18.902  0.00  0.00    +0.000 NA
ENDROOT
BRANCH   4   6
ATOM      6  C   UNL     1       9.072  10.029  18.685  0.00  0.00    +0.000 A 
ATOM      7  C   UNL     1       9.996  10.676  17.856  0.00  0.00    +0.000 A 
ATOM      8  C   UNL     1      10.598  11.868  18.264  0.00  0.00    +0.000 A 
ATOM      9  C   UNL     1      10.283  12.425  19.505  0.00  0.00    +0.000 A 
ATOM     10  C   UNL     1       9.360  11.798  20.352  0.00  0.00    +0.000 A 
ATOM     11  C   UNL     1       8.759  10.601  19.929  0.00  0.00    +0.000 A 
BRANCH  10  12
ATOM     12  C   UNL     1       8.997  12.376  21.697  0.00  0.00    +0.000 C 
ATOM     13  F   UNL     1       7.849  13.110  21.684  0.00  0.00    +0.000 F 
ATOM     14  F   UNL     1       8.814  11.415  22.645  0.00  0.00    +0.000 F 
ATOM     15  F   UNL     1       9.963  13.204  22.187  0.00  0.00    +0.000 F 
ENDBRANCH  10  12
ENDBRANCH   4   6
BRANCH   1  16
ATOM     16  C   UNL     1       7.009   5.768  18.870  0.00  0.00    +0.000 C 
BRANCH  16  18
ATOM     17  O   UNL     1       6.520   4.173  17.152  0.00  0.00    +0.000 OA
ATOM     18  C   UNL     1       6.105   4.965  17.987  0.00  0.00    +0.000 C 
ATOM     19  N   UNL     1       4.759   5.210  18.261  0.00  0.00    +0.000 N 
ATOM     20  C   UNL     1       4.246   6.074  19.353  0.00  0.00    +0.000 C 
ATOM     21  C   UNL     1       2.750   6.174  19.110  0.00  0.00    +0.000 C 
ATOM     22  C   UNL     1       2.543   4.778  18.616  0.00  0.00    +0.000 A 
ATOM     23  C   UNL     1       1.486   3.928  18.865  0.00  0.00    +0.000 A 
ATOM     24  C   UNL     1       1.576   2.629  18.367  0.00  0.00    +0.000 A 
ATOM     25  C   UNL     1       2.657   2.239  17.554  0.00  0.00    +0.000 A 
ATOM     26  C   UNL     1       3.730   3.104  17.322  0.00  0.00    +0.000 A 
ATOM     27  C   UNL     1       3.691   4.333  17.946  0.00  0.00    +0.000 A 
ENDBRANCH  16  18
ENDBRANCH   1  16
TORSDOF 4
ENDMDL
MODEL 9
REMARK VINA RESULT:      -8.1      5.917      7.977
REMARK  Name = 
REMARK  4 active torsions:
REMARK  status: ('A' for Active; 'I' for Inactive)
REMARK    1  A    between atoms: C_2  and  C_3
REMARK    2  A    between atoms: C_3  and  N_4
REMARK    3  A    between atoms: C_7  and  C_8
REMARK    4  A    between atoms: C_12  and  C_13
REMARK                            x       y       z     vdW  Elec       q    Type
REMARK                         _______ _______ _______ _____ _____    ______ ____
ROOT
ATOM      1  N   UNL     1       7.687   6.787  18.066  0.00  0.00    +0.000 N 
ATOM      2  N   UNL     1       7.030   7.401  17.061  0.00  0.00    +0.000 NA
ATOM      3  N   UNL     1       7.409   8.668  17.119  0.00  0.00    +0.000 NA
ATOM      4  C   UNL     1       8.267   8.778  18.186  0.00  0.00    +0.000 A 
ATOM      5  N   UNL     1       8.472   7.605  18.806  0.00  0.00    +0.000 NA
ENDROOT
BRANCH   4   6
ATOM      6  C   UNL     1       8.811  10.043  18.652  0.00  0.00    +0.000 A 
ATOM      7  C   UNL     1       9.806  10.076  19.637  0.00  0.00    +0.000 A 
ATOM      8  C   UNL     1      10.340  11.293  20.062  0.00  0.00    +0.000 A 
ATOM      9  C   UNL     1       9.884  12.492  19.507  0.00  0.00    +0.000 A 
ATOM     10  C   UNL     1       8.892  12.485  18.519  0.00  0.00    +0.000 A 
ATOM     11  C   UNL     1       8.365  11.254  18.098  0.00  0.00    +0.000 A 
BRANCH  10  12
ATOM     12  C   UNL     1       8.381  13.763  17.899  0.00  0.00    +0.000 C 
ATOM     13  F   UNL     1       7.498  13.561  16.882  0.00  0.00    +0.000 F 
ATOM     14  F   UNL     1       7.738  14.557  18.798  0.00  0.00    +0.000 F 
ATOM     15  F   UNL     1       9.383  14.525  17.376  0.00  0.00    +0.000 F 
ENDBRANCH  10  12
ENDBRANCH   4   6
BRANCH   1  16
ATOM     16  C   UNL     1       7.085   5.632  18.707  0.00  0.00    +0.000 C 
BRANCH  16  18
ATOM     17  O   UNL     1       6.456   4.114  16.963  0.00  0.00    +0.000 OA
ATOM     18  C   UNL     1       6.111   4.889  17.845  0.00  0.00    +0.000 C 
ATOM     19  N   UNL     1       4.789   5.168  18.196  0.00  0.00    +0.000 N 
ATOM     20  C   UNL     1       4.361   6.009  19.341  0.00  0.00    +0.000 C 
ATOM     21  C   UNL     1       2.860   6.166  19.179  0.00  0.00    +0.000 C 
ATOM     22  C   UNL     1       2.581   4.796  18.650  0.00  0.00    +0.000 A 
ATOM     23  C   UNL     1       1.509   3.972  18.924  0.00  0.00    +0.000 A 
ATOM     24  C   UNL     1       1.530   2.689  18.379  0.00  0.00    +0.000 A 
ATOM     25  C   UNL     1       2.554   2.293  17.499  0.00  0.00    +0.000 A 
ATOM     26  C   UNL     1       3.643   3.131  17.241  0.00  0.00    +0.000 A 
ATOM     27  C   UNL     1       3.678   4.337  17.907  0.00  0.00    +0.000 A 
ENDBRANCH  16  18
ENDBRANCH   1  16
TORSDOF 4
ENDMDL
