MODEL 1
REMARK VINA RESULT:      -9.5      0.000      0.000
REMARK  Name = 
REMARK  2 active torsions:
REMARK  status: ('A' for Active; 'I' for Inactive)
REMARK    1  A    between atoms: C_2  and  C_3
REMARK    2  A    between atoms: C_15  and  N_16
REMARK                            x       y       z     vdW  Elec       q    Type
REMARK                         _______ _______ _______ _____ _____    ______ ____
ROOT
ATOM      1  O   UNL     1       4.073   2.447  19.495  0.00  0.00    +0.000 OA
ATOM      2  C   UNL     1       4.282   3.659  19.450  0.00  0.00    +0.000 C 
ATOM      3  N   UNL     1       3.440   4.576  20.077  0.00  0.00    +0.000 N 
ATOM      4  C   UNL     1       2.349   4.159  20.932  0.00  0.00    +0.000 C 
ATOM      5  C   UNL     1       1.156   4.950  20.418  0.00  0.00    +0.000 C 
ATOM      6  C   UNL     1       1.768   6.299  20.019  0.00  0.00    +0.000 C 
ATOM      7  C   UNL     1       3.176   5.898  19.521  0.00  0.00    +0.000 C 
ENDROOT
BRANCH   6   8
ATOM      8  N   UNL     1       1.843   7.195  21.186  0.00  0.00    +0.000 N 
ATOM      9  C   UNL     1       1.247   8.459  21.009  0.00  0.00    +0.000 A 
ATOM     10  C   UNL     1       1.258   9.379  22.057  0.00  0.00    +0.000 A 
ATOM     11  N   UNL     1       0.701  10.612  21.987  0.00  0.00    +0.000 NA
ATOM     12  C   UNL     1       0.113  10.924  20.819  0.00  0.00    +0.000 A 
ATOM     13  C   UNL     1      -0.485  12.169  20.657  0.00  0.00    +0.000 A 
ATOM     14  C   UNL     1      -1.087  12.534  19.451  0.00  0.00    +0.000 A 
ATOM     15  C   UNL     1      -1.090  11.640  18.389  0.00  0.00    +0.000 A 
ATOM     16  C   UNL     1      -0.504  10.382  18.546  0.00  0.00    +0.000 A 
ATOM     17  C   UNL     1       0.092  10.006  19.743  0.00  0.00    +0.000 A 
ATOM     18  N   UNL     1       0.644   8.779  19.848  0.00  0.00    +0.000 NA
ATOM     19  H   UNL     1       2.798   7.333  21.508  0.00  0.00    +0.000 HD
ENDBRANCH   6   8
BRANCH   2  20
ATOM     20  C   UNL     1       5.442   4.209  18.711  0.00  0.00    +0.000 A 
ATOM     21  N   UNL     1       6.543   4.679  19.338  0.00  0.00    +0.000 NA
ATOM     22  N   UNL     1       7.401   4.980  18.350  0.00  0.00    +0.000 N 
ATOM     23  C   UNL     1       6.880   4.778  17.114  0.00  0.00    +0.000 A 
ATOM     24  C   UNL     1       5.605   4.296  17.298  0.00  0.00    +0.000 A 
ATOM     25  C   UNL     1       4.698   3.983  16.164  0.00  0.00    +0.000 C 
ATOM     26  C   UNL     1       5.183   4.715  14.891  0.00  0.00    +0.000 C 
ATOM     27  C   UNL     1       6.695   4.515  14.660  0.00  0.00    +0.000 C 
ATOM     28  C   UNL     1       7.549   5.063  15.822  0.00  0.00    +0.000 C 
ATOM     29  H   UNL     1       8.320   5.330  18.600  0.00  0.00    +0.000 HD
ENDBRANCH   2  20
TORSDOF 2
ENDMDL
MODEL 2
REMARK VINA RESULT:      -8.6      1.354      1.864
REMARK  Name = 
REMARK  2 active torsions:
REMARK  status: ('A' for Active; 'I' for Inactive)
REMARK    1  A    between atoms: C_2  and  C_3
REMARK    2  A    between atoms: C_15  and  N_16
REMARK                            x       y       z     vdW  Elec       q    Type
REMARK                         _______ _______ _______ _____ _____    ______ ____
ROOT
ATOM      1  O   UNL     1       3.840   2.184  18.805  0.00  0.00    +0.000 OA
ATOM      2  C   UNL     1       3.932   3.411  18.771  0.00  0.00    +0.000 C 
ATOM      3  N   UNL     1       3.210   4.229  19.638  0.00  0.00    +0.000 N 
ATOM      4  C   UNL     1       2.413   3.689  20.720  0.00  0.00    +0.000 C 
ATOM      5  C   UNL     1       1.069   4.384  20.568  0.00  0.00    +0.000 C 
ATOM      6  C   UNL     1       1.448   5.793  20.097  0.00  0.00    +0.000 C 
ATOM      7  C   UNL     1       2.706   5.537  19.238  0.00  0.00    +0.000 C 
ENDROOT
BRANCH   6   8
ATOM      8  N   UNL     1       1.749   6.657  21.251  0.00  0.00    +0.000 N 
ATOM      9  C   UNL     1       1.345   8.000  21.116  0.00  0.00    +0.000 A 
ATOM     10  C   UNL     1       1.578   8.899  22.156  0.00  0.00    +0.000 A 
ATOM     11  N   UNL     1       1.216  10.204  22.124  0.00  0.00    +0.000 NA
ATOM     12  C   UNL     1       0.597  10.613  21.003  0.00  0.00    +0.000 A 
ATOM     13  C   UNL     1       0.190  11.937  20.882  0.00  0.00    +0.000 A 
ATOM     14  C   UNL     1      -0.437  12.401  19.724  0.00  0.00    +0.000 A 
ATOM     15  C   UNL     1      -0.659  11.527  18.668  0.00  0.00    +0.000 A 
ATOM     16  C   UNL     1      -0.266  10.193  18.785  0.00  0.00    +0.000 A 
ATOM     17  C   UNL     1       0.353   9.718  19.935  0.00  0.00    +0.000 A 
ATOM     18  N   UNL     1       0.713   8.420  20.002  0.00  0.00    +0.000 NA
ATOM     19  H   UNL     1       2.735   6.643  21.500  0.00  0.00    +0.000 HD
ENDBRANCH   6   8
BRANCH   2  20
ATOM     20  C   UNL     1       4.814   4.085  17.791  0.00  0.00    +0.000 A 
ATOM     21  N   UNL     1       4.682   3.911  16.457  0.00  0.00    +0.000 NA
ATOM     22  N   UNL     1       5.569   4.757  15.909  0.00  0.00    +0.000 N 
ATOM     23  C   UNL     1       6.306   5.425  16.830  0.00  0.00    +0.000 A 
ATOM     24  C   UNL     1       5.865   5.009  18.064  0.00  0.00    +0.000 A 
ATOM     25  C   UNL     1       6.461   5.500  19.333  0.00  0.00    +0.000 C 
ATOM     26  C   UNL     1       7.864   6.088  19.057  0.00  0.00    +0.000 C 
ATOM     27  C   UNL     1       7.847   7.063  17.862  0.00  0.00    +0.000 C 
ATOM     28  C   UNL     1       7.400   6.386  16.551  0.00  0.00    +0.000 C 
ATOM     29  H   UNL     1       5.620   4.812  14.897  0.00  0.00    +0.000 HD
ENDBRANCH   2  20
TORSDOF 2
ENDMDL
MODEL 3
REMARK VINA RESULT:      -8.2      3.010      8.331
REMARK  Name = 
REMARK  2 active torsions:
REMARK  status: ('A' for Active; 'I' for Inactive)
REMARK    1  A    between atoms: C_2  and  C_3
REMARK    2  A    between atoms: C_15  and  N_16
REMARK                            x       y       z     vdW  Elec       q    Type
REMARK                         _______ _______ _______ _____ _____    ______ ____
ROOT
ATOM      1  O   UNL     1      -1.213  12.005  21.674  0.00  0.00    +0.000 OA
ATOM      2  C   UNL     1      -0.908  11.242  20.757  0.00  0.00    +0.000 C 
ATOM      3  N   UNL     1      -0.255  10.033  20.990  0.00  0.00    +0.000 N 
ATOM      4  C   UNL     1      -0.014   9.534  22.328  0.00  0.00    +0.000 C 
ATOM      5  C   UNL     1       1.461   9.167  22.324  0.00  0.00    +0.000 C 
ATOM      6  C   UNL     1       1.690   8.627  20.907  0.00  0.00    +0.000 C 
ATOM      7  C   UNL     1       0.722   9.482  20.058  0.00  0.00    +0.000 C 
ENDROOT
BRANCH   6   8
ATOM      8  N   UNL     1       1.348   7.196  20.839  0.00  0.00    +0.000 N 
ATOM      9  C   UNL     1       2.043   6.459  19.861  0.00  0.00    +0.000 A 
ATOM     10  C   UNL     1       1.796   5.094  19.720  0.00  0.00    +0.000 A 
ATOM     11  N   UNL     1       2.422   4.301  18.818  0.00  0.00    +0.000 NA
ATOM     12  C   UNL     1       3.329   4.909  18.033  0.00  0.00    +0.000 A 
ATOM     13  C   UNL     1       4.021   4.172  17.078  0.00  0.00    +0.000 A 
ATOM     14  C   UNL     1       4.954   4.774  16.232  0.00  0.00    +0.000 A 
ATOM     15  C   UNL     1       5.199   6.136  16.341  0.00  0.00    +0.000 A 
ATOM     16  C   UNL     1       4.519   6.882  17.306  0.00  0.00    +0.000 A 
ATOM     17  C   UNL     1       3.593   6.293  18.158  0.00  0.00    +0.000 A 
ATOM     18  N   UNL     1       2.963   7.054  19.076  0.00  0.00    +0.000 NA
ATOM     19  H   UNL     1       0.351   7.042  20.709  0.00  0.00    +0.000 HD
ENDBRANCH   6   8
BRANCH   2  20
ATOM     20  C   UNL     1      -1.213  11.579  19.348  0.00  0.00    +0.000 A 
ATOM     21  N   UNL     1      -0.703  12.671  18.737  0.00  0.00    +0.000 NA
ATOM     22  N   UNL     1      -1.108  12.575  17.461  0.00  0.00    +0.000 N 
ATOM     23  C   UNL     1      -1.904  11.501  17.236  0.00  0.00    +0.000 A 
ATOM     24  C   UNL     1      -2.015  10.835  18.434  0.00  0.00    +0.000 A 
ATOM     25  C   UNL     1      -2.843   9.612  18.595  0.00  0.00    +0.000 C 
ATOM     26  C   UNL     1      -3.873   9.524  17.446  0.00  0.00    +0.000 C 
ATOM     27  C   UNL     1      -3.213   9.753  16.070  0.00  0.00    +0.000 C 
ATOM     28  C   UNL     1      -2.555  11.143  15.953  0.00  0.00    +0.000 C 
ATOM     29  H   UNL     1      -0.810  13.290  16.805  0.00  0.00    +0.000 HD
ENDBRANCH   2  20
TORSDOF 2
ENDMDL
MODEL 4
REMARK VINA RESULT:      -7.9      0.895      1.003
REMARK  Name = 
REMARK  2 active torsions:
REMARK  status: ('A' for Active; 'I' for Inactive)
REMARK    1  A    between atoms: C_2  and  C_3
REMARK    2  A    between atoms: C_15  and  N_16
REMARK                            x       y       z     vdW  Elec       q    Type
REMARK                         _______ _______ _______ _____ _____    ______ ____
ROOT
ATOM      1  O   UNL     1       3.001   2.730  18.542  0.00  0.00    +0.000 OA
ATOM      2  C   UNL     1       3.526   3.797  18.860  0.00  0.00    +0.000 C 
ATOM      3  N   UNL     1       2.854   4.751  19.622  0.00  0.00    +0.000 N 
ATOM      4  C   UNL     1       1.552   4.494  20.202  0.00  0.00    +0.000 C 
ATOM      5  C   UNL     1       0.725   5.706  19.803  0.00  0.00    +0.000 C 
ATOM      6  C   UNL     1       1.733   6.861  19.866  0.00  0.00    +0.000 C 
ATOM      7  C   UNL     1       3.053   6.182  19.432  0.00  0.00    +0.000 C 
ENDROOT
BRANCH   6   8
ATOM      8  N   UNL     1       1.823   7.391  21.237  0.00  0.00    +0.000 N 
ATOM      9  C   UNL     1       1.101   8.578  21.469  0.00  0.00    +0.000 A 
ATOM     10  C   UNL     1       1.115   9.158  22.737  0.00  0.00    +0.000 A 
ATOM     11  N   UNL     1       0.444  10.290  23.059  0.00  0.00    +0.000 NA
ATOM     12  C   UNL     1      -0.267  10.852  22.066  0.00  0.00    +0.000 A 
ATOM     13  C   UNL     1      -0.988  12.016  22.306  0.00  0.00    +0.000 A 
ATOM     14  C   UNL     1      -1.720  12.639  21.294  0.00  0.00    +0.000 A 
ATOM     15  C   UNL     1      -1.730  12.089  20.019  0.00  0.00    +0.000 A 
ATOM     16  C   UNL     1      -1.021  10.913  19.771  0.00  0.00    +0.000 A 
ATOM     17  C   UNL     1      -0.294  10.281  20.772  0.00  0.00    +0.000 A 
ATOM     18  N   UNL     1       0.375   9.145  20.485  0.00  0.00    +0.000 NA
ATOM     19  H   UNL     1       2.785   7.538  21.533  0.00  0.00    +0.000 HD
ENDBRANCH   6   8
BRANCH   2  20
ATOM     20  C   UNL     1       4.905   4.129  18.435  0.00  0.00    +0.000 A 
ATOM     21  N   UNL     1       5.936   4.195  19.307  0.00  0.00    +0.000 NA
ATOM     22  N   UNL     1       7.020   4.405  18.544  0.00  0.00    +0.000 N 
ATOM     23  C   UNL     1       6.727   4.535  17.227  0.00  0.00    +0.000 A 
ATOM     24  C   UNL     1       5.365   4.382  17.110  0.00  0.00    +0.000 A 
ATOM     25  C   UNL     1       4.658   4.491  15.808  0.00  0.00    +0.000 C 
ATOM     26  C   UNL     1       5.543   5.254  14.795  0.00  0.00    +0.000 C 
ATOM     27  C   UNL     1       6.984   4.702  14.771  0.00  0.00    +0.000 C 
ATOM     28  C   UNL     1       7.689   4.826  16.137  0.00  0.00    +0.000 C 
ATOM     29  H   UNL     1       7.926   4.461  18.999  0.00  0.00    +0.000 HD
ENDBRANCH   2  20
TORSDOF 2
ENDMDL
MODEL 5
REMARK VINA RESULT:      -7.7      3.697      9.702
REMARK  Name = 
REMARK  2 active torsions:
REMARK  status: ('A' for Active; 'I' for Inactive)
REMARK    1  A    between atoms: C_2  and  C_3
REMARK    2  A    between atoms: C_15  and  N_16
REMARK                            x       y       z     vdW  Elec       q    Type
REMARK                         _______ _______ _______ _____ _____    ______ ____
ROOT
ATOM      1  O   UNL     1      -0.783  13.381  18.458  0.00  0.00    +0.000 OA
ATOM      2  C   UNL     1      -1.049  12.184  18.348  0.00  0.00    +0.000 C 
ATOM      3  N   UNL     1      -0.113  11.191  18.632  0.00  0.00    +0.000 N 
ATOM      4  C   UNL     1       1.182  11.496  19.203  0.00  0.00    +0.000 C 
ATOM      5  C   UNL     1       2.161  10.747  18.313  0.00  0.00    +0.000 C 
ATOM      6  C   UNL     1       1.408   9.459  17.958  0.00  0.00    +0.000 C 
ATOM      7  C   UNL     1      -0.062   9.934  17.896  0.00  0.00    +0.000 C 
ENDROOT
BRANCH   6   8
ATOM      8  N   UNL     1       1.603   8.443  19.005  0.00  0.00    +0.000 N 
ATOM      9  C   UNL     1       2.585   7.473  18.722  0.00  0.00    +0.000 A 
ATOM     10  C   UNL     1       2.852   6.469  19.653  0.00  0.00    +0.000 A 
ATOM     11  N   UNL     1       3.783   5.501  19.476  0.00  0.00    +0.000 NA
ATOM     12  C   UNL     1       4.468   5.551  18.321  0.00  0.00    +0.000 A 
ATOM     13  C   UNL     1       5.444   4.598  18.054  0.00  0.00    +0.000 A 
ATOM     14  C   UNL     1       6.160   4.607  16.856  0.00  0.00    +0.000 A 
ATOM     15  C   UNL     1       5.895   5.585  15.907  0.00  0.00    +0.000 A 
ATOM     16  C   UNL     1       4.926   6.555  16.171  0.00  0.00    +0.000 A 
ATOM     17  C   UNL     1       4.212   6.560  17.362  0.00  0.00    +0.000 A 
ATOM     18  N   UNL     1       3.286   7.519  17.572  0.00  0.00    +0.000 NA
ATOM     19  H   UNL     1       0.739   7.964  19.247  0.00  0.00    +0.000 HD
ENDBRANCH   6   8
BRANCH   2  20
ATOM     20  C   UNL     1      -2.385  11.736  17.893  0.00  0.00    +0.000 A 
ATOM     21  N   UNL     1      -2.579  11.126  16.702  0.00  0.00    +0.000 NA
ATOM     22  N   UNL     1      -3.875  10.777  16.699  0.00  0.00    +0.000 N 
ATOM     23  C   UNL     1      -4.538  11.184  17.809  0.00  0.00    +0.000 A 
ATOM     24  C   UNL     1      -3.617  11.826  18.604  0.00  0.00    +0.000 A 
ATOM     25  C   UNL     1      -3.979  12.445  19.905  0.00  0.00    +0.000 C 
ATOM     26  C   UNL     1      -5.505  12.687  19.962  0.00  0.00    +0.000 C 
ATOM     27  C   UNL     1      -6.296  11.435  19.533  0.00  0.00    +0.000 C 
ATOM     28  C   UNL     1      -5.983  11.003  18.085  0.00  0.00    +0.000 C 
ATOM     29  H   UNL     1      -4.236  10.273  15.896  0.00  0.00    +0.000 HD
ENDBRANCH   2  20
TORSDOF 2
ENDMDL
MODEL 6
REMARK VINA RESULT:      -7.6      2.174      2.682
REMARK  Name = 
REMARK  2 active torsions:
REMARK  status: ('A' for Active; 'I' for Inactive)
REMARK    1  A    between atoms: C_2  and  C_3
REMARK    2  A    between atoms: C_15  and  N_16
REMARK                            x       y       z     vdW  Elec       q    Type
REMARK                         _______ _______ _______ _____ _____    ______ ____
ROOT
ATOM      1  O   UNL     1       5.195   3.909  18.135  0.00  0.00    +0.000 OA
ATOM      2  C   UNL     1       5.220   4.988  17.543  0.00  0.00    +0.000 C 
ATOM      3  N   UNL     1       4.414   6.058  17.928  0.00  0.00    +0.000 N 
ATOM      4  C   UNL     1       3.599   6.017  19.124  0.00  0.00    +0.000 C 
ATOM      5  C   UNL     1       2.227   6.469  18.650  0.00  0.00    +0.000 C 
ATOM      6  C   UNL     1       2.548   7.531  17.591  0.00  0.00    +0.000 C 
ATOM      7  C   UNL     1       3.857   7.000  16.964  0.00  0.00    +0.000 C 
ENDROOT
BRANCH   6   8
ATOM      8  N   UNL     1       2.746   8.845  18.225  0.00  0.00    +0.000 N 
ATOM      9  C   UNL     1       1.604   9.669  18.268  0.00  0.00    +0.000 A 
ATOM     10  C   UNL     1       1.685  10.932  18.853  0.00  0.00    +0.000 A 
ATOM     11  N   UNL     1       0.640  11.788  18.952  0.00  0.00    +0.000 NA
ATOM     12  C   UNL     1      -0.525  11.352  18.443  0.00  0.00    +0.000 A 
ATOM     13  C   UNL     1      -1.652  12.165  18.501  0.00  0.00    +0.000 A 
ATOM     14  C   UNL     1      -2.873  11.754  17.964  0.00  0.00    +0.000 A 
ATOM     15  C   UNL     1      -2.969  10.508  17.357  0.00  0.00    +0.000 A 
ATOM     16  C   UNL     1      -1.847   9.679  17.306  0.00  0.00    +0.000 A 
ATOM     17  C   UNL     1      -0.629  10.075  17.843  0.00  0.00    +0.000 A 
ATOM     18  N   UNL     1       0.427   9.239  17.771  0.00  0.00    +0.000 NA
ATOM     19  H   UNL     1       3.504   9.371  17.797  0.00  0.00    +0.000 HD
ENDBRANCH   6   8
BRANCH   2  20
ATOM     20  C   UNL     1       6.107   5.202  16.377  0.00  0.00    +0.000 A 
ATOM     21  N   UNL     1       7.202   5.993  16.434  0.00  0.00    +0.000 NA
ATOM     22  N   UNL     1       7.797   5.846  15.239  0.00  0.00    +0.000 N 
ATOM     23  C   UNL     1       7.103   5.043  14.396  0.00  0.00    +0.000 A 
ATOM     24  C   UNL     1       5.991   4.616  15.083  0.00  0.00    +0.000 A 
ATOM     25  C   UNL     1       4.963   3.736  14.471  0.00  0.00    +0.000 C 
ATOM     26  C   UNL     1       5.067   3.804  12.930  0.00  0.00    +0.000 C 
ATOM     27  C   UNL     1       6.522   3.629  12.449  0.00  0.00    +0.000 C 
ATOM     28  C   UNL     1       7.462   4.724  12.993  0.00  0.00    +0.000 C 
ATOM     29  H   UNL     1       8.668   6.339  15.071  0.00  0.00    +0.000 HD
ENDBRANCH   2  20
TORSDOF 2
ENDMDL
MODEL 7
REMARK VINA RESULT:      -7.5      3.038      8.857
REMARK  Name = 
REMARK  2 active torsions:
REMARK  status: ('A' for Active; 'I' for Inactive)
REMARK    1  A    between atoms: C_2  and  C_3
REMARK    2  A    between atoms: C_15  and  N_16
REMARK                            x       y       z     vdW  Elec       q    Type
REMARK                         _______ _______ _______ _____ _____    ______ ____
ROOT
ATOM      1  O   UNL     1      -1.377  11.997  21.410  0.00  0.00    +0.000 OA
ATOM      2  C   UNL     1      -1.129  11.101  20.603  0.00  0.00    +0.000 C 
ATOM      3  N   UNL     1      -0.404   9.966  20.962  0.00  0.00    +0.000 N 
ATOM      4  C   UNL     1      -0.015   9.703  22.332  0.00  0.00    +0.000 C 
ATOM      5  C   UNL     1       1.467   9.381  22.238  0.00  0.00    +0.000 C 
ATOM      6  C   UNL     1       1.583   8.619  20.912  0.00  0.00    +0.000 C 
ATOM      7  C   UNL     1       0.502   9.295  20.038  0.00  0.00    +0.000 C 
ENDROOT
BRANCH   6   8
ATOM      8  N   UNL     1       1.299   7.188  21.113  0.00  0.00    +0.000 N 
ATOM      9  C   UNL     1       1.953   6.316  20.221  0.00  0.00    +0.000 A 
ATOM     10  C   UNL     1       1.755   4.940  20.332  0.00  0.00    +0.000 A 
ATOM     11  N   UNL     1       2.348   4.023  19.529  0.00  0.00    +0.000 NA
ATOM     12  C   UNL     1       3.168   4.515  18.585  0.00  0.00    +0.000 A 
ATOM     13  C   UNL     1       3.820   3.647  17.716  0.00  0.00    +0.000 A 
ATOM     14  C   UNL     1       4.663   4.123  16.710  0.00  0.00    +0.000 A 
ATOM     15  C   UNL     1       4.856   5.491  16.569  0.00  0.00    +0.000 A 
ATOM     16  C   UNL     1       4.217   6.370  17.445  0.00  0.00    +0.000 A 
ATOM     17  C   UNL     1       3.381   5.907  18.454  0.00  0.00    +0.000 A 
ATOM     18  N   UNL     1       2.787   6.796  19.277  0.00  0.00    +0.000 NA
ATOM     19  H   UNL     1       0.303   6.984  21.089  0.00  0.00    +0.000 HD
ENDBRANCH   6   8
BRANCH   2  20
ATOM     20  C   UNL     1      -1.582  11.190  19.196  0.00  0.00    +0.000 A 
ATOM     21  N   UNL     1      -0.742  11.010  18.152  0.00  0.00    +0.000 NA
ATOM     22  N   UNL     1      -1.529  11.055  17.065  0.00  0.00    +0.000 N 
ATOM     23  C   UNL     1      -2.827  11.314  17.358  0.00  0.00    +0.000 A 
ATOM     24  C   UNL     1      -2.906  11.427  18.726  0.00  0.00    +0.000 A 
ATOM     25  C   UNL     1      -4.176  11.743  19.429  0.00  0.00    +0.000 C 
ATOM     26  C   UNL     1      -5.177  12.381  18.438  0.00  0.00    +0.000 C 
ATOM     27  C   UNL     1      -5.278  11.570  17.130  0.00  0.00    +0.000 C 
ATOM     28  C   UNL     1      -3.931  11.480  16.383  0.00  0.00    +0.000 C 
ATOM     29  H   UNL     1      -1.102  10.913  16.155  0.00  0.00    +0.000 HD
ENDBRANCH   2  20
TORSDOF 2
ENDMDL
MODEL 8
REMARK VINA RESULT:      -7.4      3.194      5.099
REMARK  Name = 
REMARK  2 active torsions:
REMARK  status: ('A' for Active; 'I' for Inactive)
REMARK    1  A    between atoms: C_2  and  C_3
REMARK    2  A    between atoms: C_15  and  N_16
REMARK                            x       y       z     vdW  Elec       q    Type
REMARK                         _______ _______ _______ _____ _____    ______ ____
ROOT
ATOM      1  O   UNL     1       3.722   7.419  17.768  0.00  0.00    +0.000 OA
ATOM      2  C   UNL     1       2.711   7.449  18.469  0.00  0.00    +0.000 C 
ATOM      3  N   UNL     1       1.845   8.541  18.469  0.00  0.00    +0.000 N 
ATOM      4  C   UNL     1       2.004   9.649  17.549  0.00  0.00    +0.000 C 
ATOM      5  C   UNL     1       1.932  10.879  18.439  0.00  0.00    +0.000 C 
ATOM      6  C   UNL     1       0.896  10.490  19.501  0.00  0.00    +0.000 C 
ATOM      7  C   UNL     1       1.133   8.972  19.666  0.00  0.00    +0.000 C 
ENDROOT
BRANCH   6   8
ATOM      8  N   UNL     1      -0.466  10.775  19.020  0.00  0.00    +0.000 N 
ATOM      9  C   UNL     1      -1.239  11.599  19.862  0.00  0.00    +0.000 A 
ATOM     10  C   UNL     1      -2.542  11.934  19.493  0.00  0.00    +0.000 A 
ATOM     11  N   UNL     1      -3.356  12.728  20.230  0.00  0.00    +0.000 NA
ATOM     12  C   UNL     1      -2.835  13.199  21.376  0.00  0.00    +0.000 A 
ATOM     13  C   UNL     1      -3.600  14.022  22.195  0.00  0.00    +0.000 A 
ATOM     14  C   UNL     1      -3.098  14.512  23.402  0.00  0.00    +0.000 A 
ATOM     15  C   UNL     1      -1.811  14.173  23.798  0.00  0.00    +0.000 A 
ATOM     16  C   UNL     1      -1.031  13.359  22.976  0.00  0.00    +0.000 A 
ATOM     17  C   UNL     1      -1.517  12.870  21.769  0.00  0.00    +0.000 A 
ATOM     18  N   UNL     1      -0.724  12.087  21.008  0.00  0.00    +0.000 NA
ATOM     19  H   UNL     1      -0.995   9.928  18.828  0.00  0.00    +0.000 HD
ENDBRANCH   6   8
BRANCH   2  20
ATOM     20  C   UNL     1       2.366   6.320  19.363  0.00  0.00    +0.000 A 
ATOM     21  N   UNL     1       2.339   6.444  20.709  0.00  0.00    +0.000 NA
ATOM     22  N   UNL     1       1.883   5.263  21.155  0.00  0.00    +0.000 N 
ATOM     23  C   UNL     1       1.670   4.365  20.162  0.00  0.00    +0.000 A 
ATOM     24  C   UNL     1       1.987   5.000  18.983  0.00  0.00    +0.000 A 
ATOM     25  C   UNL     1       1.910   4.320  17.665  0.00  0.00    +0.000 C 
ATOM     26  C   UNL     1       1.926   2.787  17.865  0.00  0.00    +0.000 C 
ATOM     27  C   UNL     1       0.918   2.344  18.947  0.00  0.00    +0.000 C 
ATOM     28  C   UNL     1       1.221   2.962  20.327  0.00  0.00    +0.000 C 
ATOM     29  H   UNL     1       1.756   5.142  22.155  0.00  0.00    +0.000 HD
ENDBRANCH   2  20
TORSDOF 2
ENDMDL
MODEL 9
REMARK VINA RESULT:      -7.0      4.500      7.415
REMARK  Name = 
REMARK  2 active torsions:
REMARK  status: ('A' for Active; 'I' for Inactive)
REMARK    1  A    between atoms: C_2  and  C_3
REMARK    2  A    between atoms: C_15  and  N_16
REMARK                            x       y       z     vdW  Elec       q    Type
REMARK                         _______ _______ _______ _____ _____    ______ ____
ROOT
ATOM      1  O   UNL     1       2.236  11.770  18.605  0.00  0.00    +0.000 OA
ATOM      2  C   UNL     1       1.260  11.179  19.068  0.00  0.00    +0.000 C 
ATOM      3  N   UNL     1      -0.028  11.705  18.983  0.00  0.00    +0.000 N 
ATOM      4  C   UNL     1      -0.321  12.907  18.231  0.00  0.00    +0.000 C 
ATOM      5  C   UNL     1      -1.129  13.758  19.197  0.00  0.00    +0.000 C 
ATOM      6  C   UNL     1      -1.966  12.728  19.965  0.00  0.00    +0.000 C 
ATOM      7  C   UNL     1      -1.022  11.506  20.031  0.00  0.00    +0.000 C 
ENDROOT
BRANCH   6   8
ATOM      8  N   UNL     1      -3.202  12.416  19.227  0.00  0.00    +0.000 N 
ATOM      9  C   UNL     1      -4.380  12.430  19.999  0.00  0.00    +0.000 A 
ATOM     10  C   UNL     1      -5.605  12.154  19.393  0.00  0.00    +0.000 A 
ATOM     11  N   UNL     1      -6.791  12.156  20.048  0.00  0.00    +0.000 NA
ATOM     12  C   UNL     1      -6.736  12.447  21.359  0.00  0.00    +0.000 A 
ATOM     13  C   UNL     1      -7.905  12.471  22.111  0.00  0.00    +0.000 A 
ATOM     14  C   UNL     1      -7.882  12.749  23.479  0.00  0.00    +0.000 A 
ATOM     15  C   UNL     1      -6.670  13.005  24.106  0.00  0.00    +0.000 A 
ATOM     16  C   UNL     1      -5.492  12.996  23.357  0.00  0.00    +0.000 A 
ATOM     17  C   UNL     1      -5.503  12.728  21.994  0.00  0.00    +0.000 A 
ATOM     18  N   UNL     1      -4.339  12.732  21.312  0.00  0.00    +0.000 NA
ATOM     19  H   UNL     1      -3.148  11.525  18.740  0.00  0.00    +0.000 HD
ENDBRANCH   6   8
BRANCH   2  20
ATOM     20  C   UNL     1       1.408   9.875  19.753  0.00  0.00    +0.000 A 
ATOM     21  N   UNL     1       1.068   9.694  21.049  0.00  0.00    +0.000 NA
ATOM     22  N   UNL     1       1.236   8.381  21.270  0.00  0.00    +0.000 N 
ATOM     23  C   UNL     1       1.725   7.719  20.192  0.00  0.00    +0.000 A 
ATOM     24  C   UNL     1       1.870   8.650  19.190  0.00  0.00    +0.000 A 
ATOM     25  C   UNL     1       2.416   8.305  17.853  0.00  0.00    +0.000 C 
ATOM     26  C   UNL     1       3.207   6.979  17.937  0.00  0.00    +0.000 C 
ATOM     27  C   UNL     1       2.408   5.886  18.676  0.00  0.00    +0.000 C 
ATOM     28  C   UNL     1       2.070   6.278  20.129  0.00  0.00    +0.000 C 
ATOM     29  H   UNL     1       1.008   8.014  22.188  0.00  0.00    +0.000 HD
ENDBRANCH   2  20
TORSDOF 2
ENDMDL
