MODEL 1
REMARK VINA RESULT:      -9.0      0.000      0.000
REMARK  Name = 
REMARK  4 active torsions:
REMARK  status: ('A' for Active; 'I' for Inactive)
REMARK    1  A    between atoms: C_1  and  C_2
REMARK    2  A    between atoms: C_4  and  S_5
REMARK    3  A    between atoms: S_5  and  C_6
REMARK    4  A    between atoms: C_6  and  C_7
REMARK                            x       y       z     vdW  Elec       q    Type
REMARK                         _______ _______ _______ _____ _____    ______ ____
ROOT
ATOM      1  C   UNL     1       7.887   7.666  18.147  0.00  0.00    +0.000 C 
ATOM      2  C   UNL     1       7.078   6.637  17.416  0.00  0.00    +0.000 A 
ATOM      3  N   UNL     1       5.988   6.129  18.045  0.00  0.00    +0.000 NA
ATOM      4  C   UNL     1       5.213   5.230  17.379  0.00  0.00    +0.000 A 
ATOM      5  C   UNL     1       5.587   4.894  16.091  0.00  0.00    +0.000 A 
ATOM      6  O   UNL     1       4.978   4.058  15.200  0.00  0.00    +0.000 OA
ATOM      7  C   UNL     1       5.738   4.067  14.067  0.00  0.00    +0.000 A 
ATOM      8  C   UNL     1       5.459   3.346  12.909  0.00  0.00    +0.000 A 
ATOM      9  C   UNL     1       6.365   3.489  11.850  0.00  0.00    +0.000 A 
ATOM     10  C   UNL     1       7.483   4.319  11.961  0.00  0.00    +0.000 A 
ATOM     11  C   UNL     1       7.736   5.040  13.143  0.00  0.00    +0.000 A 
ATOM     12  C   UNL     1       6.835   4.905  14.218  0.00  0.00    +0.000 A 
ATOM     13  C   UNL     1       6.726   5.446  15.527  0.00  0.00    +0.000 A 
ATOM     14  N   UNL     1       7.514   6.328  16.178  0.00  0.00    +0.000 NA
ENDROOT
BRANCH   4  15
ATOM     15  S   UNL     1       3.698   4.628  18.076  0.00  0.00    +0.000 S 
BRANCH  15  16
ATOM     16  C   UNL     1       3.749   5.343  19.762  0.00  0.00    +0.000 C 
BRANCH  16  17
ATOM     17  C   UNL     1       2.360   5.511  20.349  0.00  0.00    +0.000 C 
ATOM     18  O   UNL     1       1.720   4.557  20.798  0.00  0.00    +0.000 OA
ATOM     19  N   UNL     1       1.873   6.793  20.459  0.00  0.00    +0.000 N 
ATOM     20  C   UNL     1       0.761   7.111  21.358  0.00  0.00    +0.000 C 
ATOM     21  C   UNL     1       0.932   8.604  21.604  0.00  0.00    +0.000 C 
ATOM     22  C   UNL     1       1.303   8.977  20.199  0.00  0.00    +0.000 A 
ATOM     23  C   UNL     1       0.904  10.084  19.477  0.00  0.00    +0.000 A 
ATOM     24  C   UNL     1       1.228  10.114  18.124  0.00  0.00    +0.000 A 
ATOM     25  C   UNL     1       2.029   9.107  17.550  0.00  0.00    +0.000 A 
ATOM     26  C   UNL     1       2.445   7.992  18.293  0.00  0.00    +0.000 A 
ATOM     27  C   UNL     1       2.003   7.914  19.598  0.00  0.00    +0.000 A 
ENDBRANCH  16  17
ENDBRANCH  15  16
ENDBRANCH   4  15
TORSDOF 3
ENDMDL
MODEL 2
REMARK VINA RESULT:      -8.8      1.468      1.845
REMARK  Name = 
REMARK  4 active torsions:
REMARK  status: ('A' for Active; 'I' for Inactive)
REMARK    1  A    between atoms: C_1  and  C_2
REMARK    2  A    between atoms: C_4  and  S_5
REMARK    3  A    between atoms: S_5  and  C_6
REMARK    4  A    between atoms: C_6  and  C_7
REMARK                            x       y       z     vdW  Elec       q    Type
REMARK                         _______ _______ _______ _____ _____    ______ ____
ROOT
ATOM      1  C   UNL     1       8.112   7.176  18.676  0.00  0.00    +0.000 C 
ATOM      2  C   UNL     1       7.468   6.087  17.871  0.00  0.00    +0.000 A 
ATOM      3  N   UNL     1       6.667   5.209  18.525  0.00  0.00    +0.000 NA
ATOM      4  C   UNL     1       6.035   4.243  17.805  0.00  0.00    +0.000 A 
ATOM      5  C   UNL     1       6.246   4.224  16.438  0.00  0.00    +0.000 A 
ATOM      6  O   UNL     1       5.715   3.398  15.489  0.00  0.00    +0.000 OA
ATOM      7  C   UNL     1       6.235   3.790  14.291  0.00  0.00    +0.000 A 
ATOM      8  C   UNL     1       5.944   3.205  13.061  0.00  0.00    +0.000 A 
ATOM      9  C   UNL     1       6.583   3.753  11.941  0.00  0.00    +0.000 A 
ATOM     10  C   UNL     1       7.461   4.832  12.064  0.00  0.00    +0.000 A 
ATOM     11  C   UNL     1       7.732   5.406  13.321  0.00  0.00    +0.000 A 
ATOM     12  C   UNL     1       7.098   4.865  14.457  0.00  0.00    +0.000 A 
ATOM     13  C   UNL     1       7.093   5.149  15.849  0.00  0.00    +0.000 A 
ATOM     14  N   UNL     1       7.739   6.103  16.550  0.00  0.00    +0.000 NA
ENDROOT
BRANCH   4  15
ATOM     15  S   UNL     1       4.865   3.148  18.563  0.00  0.00    +0.000 S 
BRANCH  15  16
ATOM     16  C   UNL     1       3.423   3.305  17.443  0.00  0.00    +0.000 C 
BRANCH  16  17
ATOM     17  C   UNL     1       2.119   3.426  18.211  0.00  0.00    +0.000 C 
ATOM     18  O   UNL     1       1.262   2.540  18.187  0.00  0.00    +0.000 OA
ATOM     19  N   UNL     1       1.967   4.525  19.025  0.00  0.00    +0.000 N 
ATOM     20  C   UNL     1       0.970   4.546  20.098  0.00  0.00    +0.000 C 
ATOM     21  C   UNL     1       1.508   5.606  21.048  0.00  0.00    +0.000 C 
ATOM     22  C   UNL     1       1.960   6.578  19.997  0.00  0.00    +0.000 A 
ATOM     23  C   UNL     1       1.850   7.954  20.005  0.00  0.00    +0.000 A 
ATOM     24  C   UNL     1       2.171   8.625  18.829  0.00  0.00    +0.000 A 
ATOM     25  C   UNL     1       2.696   7.932  17.721  0.00  0.00    +0.000 A 
ATOM     26  C   UNL     1       2.821   6.535  17.726  0.00  0.00    +0.000 A 
ATOM     27  C   UNL     1       2.373   5.873  18.851  0.00  0.00    +0.000 A 
ENDBRANCH  16  17
ENDBRANCH  15  16
ENDBRANCH   4  15
TORSDOF 3
ENDMDL
MODEL 3
REMARK VINA RESULT:      -8.4      2.922      4.783
REMARK  Name = 
REMARK  4 active torsions:
REMARK  status: ('A' for Active; 'I' for Inactive)
REMARK    1  A    between atoms: C_1  and  C_2
REMARK    2  A    between atoms: C_4  and  S_5
REMARK    3  A    between atoms: S_5  and  C_6
REMARK    4  A    between atoms: C_6  and  C_7
REMARK                            x       y       z     vdW  Elec       q    Type
REMARK                         _______ _______ _______ _____ _____    ______ ____
ROOT
ATOM      1  C   UNL     1       1.335   2.988  21.175  0.00  0.00    +0.000 C 
ATOM      2  C   UNL     1       1.868   4.109  20.334  0.00  0.00    +0.000 A 
ATOM      3  N   UNL     1       1.550   5.377  20.698  0.00  0.00    +0.000 NA
ATOM      4  C   UNL     1       2.064   6.410  19.977  0.00  0.00    +0.000 A 
ATOM      5  C   UNL     1       2.891   6.097  18.914  0.00  0.00    +0.000 A 
ATOM      6  O   UNL     1       3.558   6.928  18.060  0.00  0.00    +0.000 OA
ATOM      7  C   UNL     1       4.240   6.131  17.187  0.00  0.00    +0.000 A 
ATOM      8  C   UNL     1       5.054   6.586  16.153  0.00  0.00    +0.000 A 
ATOM      9  C   UNL     1       5.669   5.607  15.363  0.00  0.00    +0.000 A 
ATOM     10  C   UNL     1       5.471   4.247  15.612  0.00  0.00    +0.000 A 
ATOM     11  C   UNL     1       4.646   3.816  16.668  0.00  0.00    +0.000 A 
ATOM     12  C   UNL     1       4.019   4.789  17.471  0.00  0.00    +0.000 A 
ATOM     13  C   UNL     1       3.153   4.774  18.597  0.00  0.00    +0.000 A 
ATOM     14  N   UNL     1       2.640   3.738  19.292  0.00  0.00    +0.000 NA
ENDROOT
BRANCH   4  15
ATOM     15  S   UNL     1       1.811   8.093  20.472  0.00  0.00    +0.000 S 
BRANCH  15  16
ATOM     16  C   UNL     1       0.147   8.015  21.234  0.00  0.00    +0.000 C 
BRANCH  16  17
ATOM     17  C   UNL     1      -0.222   9.314  21.925  0.00  0.00    +0.000 C 
ATOM     18  O   UNL     1      -0.460   9.367  23.134  0.00  0.00    +0.000 OA
ATOM     19  N   UNL     1      -0.182  10.464  21.170  0.00  0.00    +0.000 N 
ATOM     20  C   UNL     1      -0.112  11.786  21.798  0.00  0.00    +0.000 C 
ATOM     21  C   UNL     1       0.476  12.659  20.698  0.00  0.00    +0.000 C 
ATOM     22  C   UNL     1      -0.297  12.062  19.560  0.00  0.00    +0.000 A 
ATOM     23  C   UNL     1      -0.874  12.712  18.487  0.00  0.00    +0.000 A 
ATOM     24  C   UNL     1      -1.705  11.964  17.659  0.00  0.00    +0.000 A 
ATOM     25  C   UNL     1      -1.853  10.575  17.847  0.00  0.00    +0.000 A 
ATOM     26  C   UNL     1      -1.250   9.917  18.930  0.00  0.00    +0.000 A 
ATOM     27  C   UNL     1      -0.539  10.699  19.817  0.00  0.00    +0.000 A 
ENDBRANCH  16  17
ENDBRANCH  15  16
ENDBRANCH   4  15
TORSDOF 3
ENDMDL
MODEL 4
REMARK VINA RESULT:      -8.4      0.926      1.223
REMARK  Name = 
REMARK  4 active torsions:
REMARK  status: ('A' for Active; 'I' for Inactive)
REMARK    1  A    between atoms: C_1  and  C_2
REMARK    2  A    between atoms: C_4  and  S_5
REMARK    3  A    between atoms: S_5  and  C_6
REMARK    4  A    between atoms: C_6  and  C_7
REMARK                            x       y       z     vdW  Elec       q    Type
REMARK                         _______ _______ _______ _____ _____    ______ ____
ROOT
ATOM      1  C   UNL     1       8.103   7.888  18.058  0.00  0.00    +0.000 C 
ATOM      2  C   UNL     1       7.186   6.883  17.426  0.00  0.00    +0.000 A 
ATOM      3  N   UNL     1       6.069   6.531  18.112  0.00  0.00    +0.000 NA
ATOM      4  C   UNL     1       5.200   5.658  17.534  0.00  0.00    +0.000 A 
ATOM      5  C   UNL     1       5.512   5.187  16.272  0.00  0.00    +0.000 A 
ATOM      6  O   UNL     1       4.807   4.342  15.462  0.00  0.00    +0.000 OA
ATOM      7  C   UNL     1       5.538   4.191  14.320  0.00  0.00    +0.000 A 
ATOM      8  C   UNL     1       5.168   3.408  13.229  0.00  0.00    +0.000 A 
ATOM      9  C   UNL     1       6.058   3.382  12.148  0.00  0.00    +0.000 A 
ATOM     10  C   UNL     1       7.249   4.110  12.173  0.00  0.00    +0.000 A 
ATOM     11  C   UNL     1       7.595   4.897  13.288  0.00  0.00    +0.000 A 
ATOM     12  C   UNL     1       6.711   4.933  14.384  0.00  0.00    +0.000 A 
ATOM     13  C   UNL     1       6.683   5.584  15.647  0.00  0.00    +0.000 A 
ATOM     14  N   UNL     1       7.562   6.437  16.211  0.00  0.00    +0.000 NA
ENDROOT
BRANCH   4  15
ATOM     15  S   UNL     1       3.653   5.257  18.301  0.00  0.00    +0.000 S 
BRANCH  15  16
ATOM     16  C   UNL     1       2.967   6.919  18.655  0.00  0.00    +0.000 C 
BRANCH  16  17
ATOM     17  C   UNL     1       2.111   6.925  19.908  0.00  0.00    +0.000 C 
ATOM     18  O   UNL     1       1.993   5.927  20.623  0.00  0.00    +0.000 OA
ATOM     19  N   UNL     1       1.545   8.123  20.280  0.00  0.00    +0.000 N 
ATOM     20  C   UNL     1       1.059   8.345  21.644  0.00  0.00    +0.000 C 
ATOM     21  C   UNL     1       1.073   9.861  21.772  0.00  0.00    +0.000 C 
ATOM     22  C   UNL     1       0.554  10.163  20.397  0.00  0.00    +0.000 A 
ATOM     23  C   UNL     1      -0.357  11.130  20.022  0.00  0.00    +0.000 A 
ATOM     24  C   UNL     1      -0.825  11.092  18.713  0.00  0.00    +0.000 A 
ATOM     25  C   UNL     1      -0.300  10.173  17.783  0.00  0.00    +0.000 A 
ATOM     26  C   UNL     1       0.639   9.202  18.166  0.00  0.00    +0.000 A 
ATOM     27  C   UNL     1       0.993   9.171  19.499  0.00  0.00    +0.000 A 
ENDBRANCH  16  17
ENDBRANCH  15  16
ENDBRANCH   4  15
TORSDOF 3
ENDMDL
MODEL 5
REMARK VINA RESULT:      -8.0      2.691      4.556
REMARK  Name = 
REMARK  4 active torsions:
REMARK  status: ('A' for Active; 'I' for Inactive)
REMARK    1  A    between atoms: C_1  and  C_2
REMARK    2  A    between atoms: C_4  and  S_5
REMARK    3  A    between atoms: S_5  and  C_6
REMARK    4  A    between atoms: C_6  and  C_7
REMARK                            x       y       z     vdW  Elec       q    Type
REMARK                         _______ _______ _______ _____ _____    ______ ____
ROOT
ATOM      1  C   UNL     1       0.835   2.471  18.787  0.00  0.00    +0.000 C 
ATOM      2  C   UNL     1       1.765   3.586  18.413  0.00  0.00    +0.000 A 
ATOM      3  N   UNL     1       1.571   4.793  19.002  0.00  0.00    +0.000 NA
ATOM      4  C   UNL     1       2.434   5.804  18.712  0.00  0.00    +0.000 A 
ATOM      5  C   UNL     1       3.466   5.532  17.833  0.00  0.00    +0.000 A 
ATOM      6  O   UNL     1       4.478   6.342  17.404  0.00  0.00    +0.000 OA
ATOM      7  C   UNL     1       5.238   5.602  16.546  0.00  0.00    +0.000 A 
ATOM      8  C   UNL     1       6.377   6.058  15.888  0.00  0.00    +0.000 A 
ATOM      9  C   UNL     1       7.021   5.144  15.044  0.00  0.00    +0.000 A 
ATOM     10  C   UNL     1       6.537   3.843  14.884  0.00  0.00    +0.000 A 
ATOM     11  C   UNL     1       5.385   3.409  15.566  0.00  0.00    +0.000 A 
ATOM     12  C   UNL     1       4.726   4.318  16.417  0.00  0.00    +0.000 A 
ATOM     13  C   UNL     1       3.584   4.275  17.262  0.00  0.00    +0.000 A 
ATOM     14  N   UNL     1       2.729   3.265  17.526  0.00  0.00    +0.000 NA
ENDROOT
BRANCH   4  15
ATOM     15  S   UNL     1       2.333   7.366  19.545  0.00  0.00    +0.000 S 
BRANCH  15  16
ATOM     16  C   UNL     1       1.230   8.315  18.432  0.00  0.00    +0.000 C 
BRANCH  16  17
ATOM     17  C   UNL     1       1.460   9.811  18.547  0.00  0.00    +0.000 C 
ATOM     18  O   UNL     1       2.339  10.389  17.903  0.00  0.00    +0.000 OA
ATOM     19  N   UNL     1       0.579  10.527  19.325  0.00  0.00    +0.000 N 
ATOM     20  C   UNL     1       0.446  11.979  19.186  0.00  0.00    +0.000 C 
ATOM     21  C   UNL     1      -0.941  12.254  19.749  0.00  0.00    +0.000 C 
ATOM     22  C   UNL     1      -0.860  11.299  20.904  0.00  0.00    +0.000 A 
ATOM     23  C   UNL     1      -1.314  11.481  22.194  0.00  0.00    +0.000 A 
ATOM     24  C   UNL     1      -0.953  10.525  23.139  0.00  0.00    +0.000 A 
ATOM     25  C   UNL     1      -0.251   9.363  22.760  0.00  0.00    +0.000 A 
ATOM     26  C   UNL     1       0.193   9.176  21.442  0.00  0.00    +0.000 A 
ATOM     27  C   UNL     1      -0.059  10.197  20.549  0.00  0.00    +0.000 A 
ENDBRANCH  16  17
ENDBRANCH  15  16
ENDBRANCH   4  15
TORSDOF 3
ENDMDL
MODEL 6
REMARK VINA RESULT:      -7.9      1.396      2.281
REMARK  Name = 
REMARK  4 active torsions:
REMARK  status: ('A' for Active; 'I' for Inactive)
REMARK    1  A    between atoms: C_1  and  C_2
REMARK    2  A    between atoms: C_4  and  S_5
REMARK    3  A    between atoms: S_5  and  C_6
REMARK    4  A    between atoms: C_6  and  C_7
REMARK                            x       y       z     vdW  Elec       q    Type
REMARK                         _______ _______ _______ _____ _____    ______ ____
ROOT
ATOM      1  C   UNL     1       7.940   6.052  19.165  0.00  0.00    +0.000 C 
ATOM      2  C   UNL     1       6.953   5.515  18.172  0.00  0.00    +0.000 A 
ATOM      3  N   UNL     1       5.674   5.336  18.588  0.00  0.00    +0.000 NA
ATOM      4  C   UNL     1       4.753   4.895  17.689  0.00  0.00    +0.000 A 
ATOM      5  C   UNL     1       5.183   4.662  16.395  0.00  0.00    +0.000 A 
ATOM      6  O   UNL     1       4.471   4.257  15.303  0.00  0.00    +0.000 OA
ATOM      7  C   UNL     1       5.353   4.178  14.265  0.00  0.00    +0.000 A 
ATOM      8  C   UNL     1       5.027   3.803  12.964  0.00  0.00    +0.000 A 
ATOM      9  C   UNL     1       6.078   3.783  12.037  0.00  0.00    +0.000 A 
ATOM     10  C   UNL     1       7.379   4.127  12.411  0.00  0.00    +0.000 A 
ATOM     11  C   UNL     1       7.677   4.507  13.733  0.00  0.00    +0.000 A 
ATOM     12  C   UNL     1       6.631   4.531  14.677  0.00  0.00    +0.000 A 
ATOM     13  C   UNL     1       6.513   4.854  16.056  0.00  0.00    +0.000 A 
ATOM     14  N   UNL     1       7.442   5.276  16.938  0.00  0.00    +0.000 NA
ENDROOT
BRANCH   4  15
ATOM     15  S   UNL     1       3.037   4.771  18.115  0.00  0.00    +0.000 S 
BRANCH  15  16
ATOM     16  C   UNL     1       2.830   6.189  19.257  0.00  0.00    +0.000 C 
BRANCH  16  17
ATOM     17  C   UNL     1       2.833   7.516  18.521  0.00  0.00    +0.000 C 
ATOM     18  O   UNL     1       3.650   7.768  17.632  0.00  0.00    +0.000 OA
ATOM     19  N   UNL     1       1.818   8.399  18.810  0.00  0.00    +0.000 N 
ATOM     20  C   UNL     1       1.482   9.498  17.900  0.00  0.00    +0.000 C 
ATOM     21  C   UNL     1       0.043   9.825  18.273  0.00  0.00    +0.000 C 
ATOM     22  C   UNL     1       0.205   9.687  19.758  0.00  0.00    +0.000 A 
ATOM     23  C   UNL     1      -0.336  10.478  20.752  0.00  0.00    +0.000 A 
ATOM     24  C   UNL     1       0.113  10.264  22.051  0.00  0.00    +0.000 A 
ATOM     25  C   UNL     1       0.995   9.206  22.347  0.00  0.00    +0.000 A 
ATOM     26  C   UNL     1       1.528   8.395  21.334  0.00  0.00    +0.000 A 
ATOM     27  C   UNL     1       1.175   8.706  20.037  0.00  0.00    +0.000 A 
ENDBRANCH  16  17
ENDBRANCH  15  16
ENDBRANCH   4  15
TORSDOF 3
ENDMDL
MODEL 7
REMARK VINA RESULT:      -7.9      5.464     10.544
REMARK  Name = 
REMARK  4 active torsions:
REMARK  status: ('A' for Active; 'I' for Inactive)
REMARK    1  A    between atoms: C_1  and  C_2
REMARK    2  A    between atoms: C_4  and  S_5
REMARK    3  A    between atoms: S_5  and  C_6
REMARK    4  A    between atoms: C_6  and  C_7
REMARK                            x       y       z     vdW  Elec       q    Type
REMARK                         _______ _______ _______ _____ _____    ______ ____
ROOT
ATOM      1  C   UNL     1      -3.062  10.217  14.562  0.00  0.00    +0.000 C 
ATOM      2  C   UNL     1      -3.139  10.734  15.968  0.00  0.00    +0.000 A 
ATOM      3  N   UNL     1      -1.977  10.862  16.657  0.00  0.00    +0.000 NA
ATOM      4  C   UNL     1      -2.021  11.375  17.916  0.00  0.00    +0.000 A 
ATOM      5  C   UNL     1      -3.257  11.741  18.415  0.00  0.00    +0.000 A 
ATOM      6  O   UNL     1      -3.577  12.305  19.617  0.00  0.00    +0.000 OA
ATOM      7  C   UNL     1      -4.930  12.475  19.625  0.00  0.00    +0.000 A 
ATOM      8  C   UNL     1      -5.663  13.027  20.673  0.00  0.00    +0.000 A 
ATOM      9  C   UNL     1      -7.048  13.116  20.489  0.00  0.00    +0.000 A 
ATOM     10  C   UNL     1      -7.652  12.673  19.310  0.00  0.00    +0.000 A 
ATOM     11  C   UNL     1      -6.885  12.122  18.266  0.00  0.00    +0.000 A 
ATOM     12  C   UNL     1      -5.490  12.026  18.436  0.00  0.00    +0.000 A 
ATOM     13  C   UNL     1      -4.400  11.561  17.652  0.00  0.00    +0.000 A 
ATOM     14  N   UNL     1      -4.377  11.041  16.407  0.00  0.00    +0.000 NA
ENDROOT
BRANCH   4  15
ATOM     15  S   UNL     1      -0.536  11.706  18.827  0.00  0.00    +0.000 S 
BRANCH  15  16
ATOM     16  C   UNL     1       0.396  10.143  18.607  0.00  0.00    +0.000 C 
BRANCH  16  17
ATOM     17  C   UNL     1       0.923   9.607  19.925  0.00  0.00    +0.000 C 
ATOM     18  O   UNL     1       0.820  10.242  20.977  0.00  0.00    +0.000 OA
ATOM     19  N   UNL     1       1.435   8.330  19.926  0.00  0.00    +0.000 N 
ATOM     20  C   UNL     1       1.586   7.571  21.171  0.00  0.00    +0.000 C 
ATOM     21  C   UNL     1       1.610   6.126  20.692  0.00  0.00    +0.000 C 
ATOM     22  C   UNL     1       2.458   6.353  19.476  0.00  0.00    +0.000 A 
ATOM     23  C   UNL     1       3.475   5.558  18.986  0.00  0.00    +0.000 A 
ATOM     24  C   UNL     1       4.244   6.075  17.948  0.00  0.00    +0.000 A 
ATOM     25  C   UNL     1       3.919   7.309  17.352  0.00  0.00    +0.000 A 
ATOM     26  C   UNL     1       2.873   8.105  17.844  0.00  0.00    +0.000 A 
ATOM     27  C   UNL     1       2.206   7.637  18.957  0.00  0.00    +0.000 A 
ENDBRANCH  16  17
ENDBRANCH  15  16
ENDBRANCH   4  15
TORSDOF 3
ENDMDL
MODEL 8
REMARK VINA RESULT:      -7.9      3.023      8.403
REMARK  Name = 
REMARK  4 active torsions:
REMARK  status: ('A' for Active; 'I' for Inactive)
REMARK    1  A    between atoms: C_1  and  C_2
REMARK    2  A    between atoms: C_4  and  S_5
REMARK    3  A    between atoms: S_5  and  C_6
REMARK    4  A    between atoms: C_6  and  C_7
REMARK                            x       y       z     vdW  Elec       q    Type
REMARK                         _______ _______ _______ _____ _____    ______ ____
ROOT
ATOM      1  C   UNL     1       0.466   9.880  22.633  0.00  0.00    +0.000 C 
ATOM      2  C   UNL     1       0.294   9.799  21.145  0.00  0.00    +0.000 A 
ATOM      3  N   UNL     1       1.250   9.148  20.435  0.00  0.00    +0.000 NA
ATOM      4  C   UNL     1       1.087   9.021  19.090  0.00  0.00    +0.000 A 
ATOM      5  C   UNL     1      -0.056   9.563  18.530  0.00  0.00    +0.000 A 
ATOM      6  O   UNL     1      -0.478   9.546  17.232  0.00  0.00    +0.000 OA
ATOM      7  C   UNL     1      -1.668  10.213  17.196  0.00  0.00    +0.000 A 
ATOM      8  C   UNL     1      -2.437  10.419  16.054  0.00  0.00    +0.000 A 
ATOM      9  C   UNL     1      -3.632  11.131  16.224  0.00  0.00    +0.000 A 
ATOM     10  C   UNL     1      -4.021  11.601  17.481  0.00  0.00    +0.000 A 
ATOM     11  C   UNL     1      -3.224  11.374  18.619  0.00  0.00    +0.000 A 
ATOM     12  C   UNL     1      -2.019  10.660  18.463  0.00  0.00    +0.000 A 
ATOM     13  C   UNL     1      -0.976  10.227  19.325  0.00  0.00    +0.000 A 
ATOM     14  N   UNL     1      -0.824  10.374  20.657  0.00  0.00    +0.000 NA
ENDROOT
BRANCH   4  15
ATOM     15  S   UNL     1       2.217   8.066  18.113  0.00  0.00    +0.000 S 
BRANCH  15  16
ATOM     16  C   UNL     1       2.666   6.717  19.269  0.00  0.00    +0.000 C 
BRANCH  16  17
ATOM     17  C   UNL     1       2.681   5.364  18.583  0.00  0.00    +0.000 C 
ATOM     18  O   UNL     1       1.711   4.603  18.616  0.00  0.00    +0.000 OA
ATOM     19  N   UNL     1       3.788   5.053  17.827  0.00  0.00    +0.000 N 
ATOM     20  C   UNL     1       3.747   3.995  16.814  0.00  0.00    +0.000 C 
ATOM     21  C   UNL     1       4.891   4.365  15.882  0.00  0.00    +0.000 C 
ATOM     22  C   UNL     1       5.864   4.780  16.946  0.00  0.00    +0.000 A 
ATOM     23  C   UNL     1       7.221   4.532  17.005  0.00  0.00    +0.000 A 
ATOM     24  C   UNL     1       7.878   4.855  18.188  0.00  0.00    +0.000 A 
ATOM     25  C   UNL     1       7.201   5.513  19.234  0.00  0.00    +0.000 A 
ATOM     26  C   UNL     1       5.825   5.777  19.161  0.00  0.00    +0.000 A 
ATOM     27  C   UNL     1       5.164   5.331  18.036  0.00  0.00    +0.000 A 
ENDBRANCH  16  17
ENDBRANCH  15  16
ENDBRANCH   4  15
TORSDOF 3
ENDMDL
MODEL 9
REMARK VINA RESULT:      -7.8      3.654      8.723
REMARK  Name = 
REMARK  4 active torsions:
REMARK  status: ('A' for Active; 'I' for Inactive)
REMARK    1  A    between atoms: C_1  and  C_2
REMARK    2  A    between atoms: C_4  and  S_5
REMARK    3  A    between atoms: S_5  and  C_6
REMARK    4  A    between atoms: C_6  and  C_7
REMARK                            x       y       z     vdW  Elec       q    Type
REMARK                         _______ _______ _______ _____ _____    ______ ____
ROOT
ATOM      1  C   UNL     1       0.119  10.088  22.617  0.00  0.00    +0.000 C 
ATOM      2  C   UNL     1      -0.049  10.168  21.129  0.00  0.00    +0.000 A 
ATOM      3  N   UNL     1       0.994   9.775  20.355  0.00  0.00    +0.000 NA
ATOM      4  C   UNL     1       0.844   9.794  19.003  0.00  0.00    +0.000 A 
ATOM      5  C   UNL     1      -0.376  10.209  18.501  0.00  0.00    +0.000 A 
ATOM      6  O   UNL     1      -0.800  10.288  17.205  0.00  0.00    +0.000 OA
ATOM      7  C   UNL     1      -2.082  10.754  17.239  0.00  0.00    +0.000 A 
ATOM      8  C   UNL     1      -2.884  10.974  16.122  0.00  0.00    +0.000 A 
ATOM      9  C   UNL     1      -4.177  11.457  16.365  0.00  0.00    +0.000 A 
ATOM     10  C   UNL     1      -4.627  11.696  17.665  0.00  0.00    +0.000 A 
ATOM     11  C   UNL     1      -3.795  11.459  18.776  0.00  0.00    +0.000 A 
ATOM     12  C   UNL     1      -2.492  10.975  18.547  0.00  0.00    +0.000 A 
ATOM     13  C   UNL     1      -1.386  10.611  19.361  0.00  0.00    +0.000 A 
ATOM     14  N   UNL     1      -1.249  10.612  20.703  0.00  0.00    +0.000 NA
ENDROOT
BRANCH   4  15
ATOM     15  S   UNL     1       2.106   9.165  17.929  0.00  0.00    +0.000 S 
BRANCH  15  16
ATOM     16  C   UNL     1       2.212   7.414  18.458  0.00  0.00    +0.000 C 
BRANCH  16  17
ATOM     17  C   UNL     1       3.441   6.725  17.895  0.00  0.00    +0.000 C 
ATOM     18  O   UNL     1       4.205   7.290  17.108  0.00  0.00    +0.000 OA
ATOM     19  N   UNL     1       3.736   5.469  18.375  0.00  0.00    +0.000 N 
ATOM     20  C   UNL     1       5.074   4.892  18.228  0.00  0.00    +0.000 C 
ATOM     21  C   UNL     1       5.123   3.847  19.334  0.00  0.00    +0.000 C 
ATOM     22  C   UNL     1       3.721   3.339  19.164  0.00  0.00    +0.000 A 
ATOM     23  C   UNL     1       3.274   2.035  19.224  0.00  0.00    +0.000 A 
ATOM     24  C   UNL     1       1.957   1.794  18.844  0.00  0.00    +0.000 A 
ATOM     25  C   UNL     1       1.090   2.858  18.526  0.00  0.00    +0.000 A 
ATOM     26  C   UNL     1       1.547   4.185  18.483  0.00  0.00    +0.000 A 
ATOM     27  C   UNL     1       2.888   4.389  18.733  0.00  0.00    +0.000 A 
ENDBRANCH  16  17
ENDBRANCH  15  16
ENDBRANCH   4  15
TORSDOF 3
ENDMDL
