MODEL 1
REMARK VINA RESULT:      -8.8      0.000      0.000
REMARK  Name = 
REMARK  6 active torsions:
REMARK  status: ('A' for Active; 'I' for Inactive)
REMARK    1  A    between atoms: C_1  and  C_2
REMARK    2  A    between atoms: C_2  and  C_3
REMARK    3  A    between atoms: C_7  and  N_8
REMARK    4  A    between atoms: C_9  and  C_11
REMARK    5  A    between atoms: N_14  and  S_15
REMARK    6  A    between atoms: S_15  and  C_18
REMARK                            x       y       z     vdW  Elec       q    Type
REMARK                         _______ _______ _______ _____ _____    ______ ____
ROOT
ATOM      1  C   UNL     1       6.746   5.502  16.497  0.00  0.00    +0.000 C 
ATOM      2  C   UNL     1       6.797   5.125  17.979  0.00  0.00    +0.000 C 
ATOM      3  C   UNL     1       5.420   4.858  18.599  0.00  0.00    +0.000 C 
ATOM      4  N   UNL     1       4.447   5.952  18.296  0.00  0.00    +0.000 NA
ATOM      5  C   UNL     1       4.366   6.241  16.836  0.00  0.00    +0.000 C 
ATOM      6  C   UNL     1       5.743   6.645  16.311  0.00  0.00    +0.000 C 
ENDROOT
BRANCH   1   8
ATOM      7  N   UNL     1       6.604   4.628  14.230  0.00  0.00    +0.000 N 
ATOM      8  C   UNL     1       6.406   4.326  15.574  0.00  0.00    +0.000 C 
ATOM      9  O   UNL     1       5.999   3.264  16.028  0.00  0.00    +0.000 OA
ATOM     10  H   UNL     1       7.046   5.513  14.016  0.00  0.00    +0.000 HD
BRANCH   7  15
ATOM     11  C   UNL     1       4.592   3.117  11.493  0.00  0.00    +0.000 A 
ATOM     12  C   UNL     1       5.561   2.353  10.834  0.00  0.00    +0.000 A 
ATOM     13  C   UNL     1       6.861   2.290  11.328  0.00  0.00    +0.000 A 
ATOM     14  C   UNL     1       7.220   3.014  12.467  0.00  0.00    +0.000 A 
ATOM     15  C   UNL     1       6.289   3.826  13.111  0.00  0.00    +0.000 A 
ATOM     16  C   UNL     1       4.969   3.858  12.627  0.00  0.00    +0.000 A 
BRANCH  11  18
ATOM     17  C   UNL     1       3.027   4.016   9.734  0.00  0.00    +0.000 C 
ATOM     18  C   UNL     1       3.177   3.144  10.971  0.00  0.00    +0.000 C 
ENDBRANCH  11  18
ENDBRANCH   7  15
ENDBRANCH   1   8
BRANCH   4  19
ATOM     19  S   UNL     1       2.875   5.658  18.989  0.00  0.00    +0.000 S 
ATOM     20  O   UNL     1       2.042   5.042  17.968  0.00  0.00    +0.000 OA
ATOM     21  O   UNL     1       3.078   5.024  20.273  0.00  0.00    +0.000 OA
BRANCH  19  22
ATOM     22  C   UNL     1       2.242   7.294  19.261  0.00  0.00    +0.000 A 
ATOM     23  C   UNL     1       2.106   8.186  18.193  0.00  0.00    +0.000 A 
ATOM     24  C   UNL     1       1.475   9.416  18.409  0.00  0.00    +0.000 A 
ATOM     25  C   UNL     1       0.964   9.734  19.672  0.00  0.00    +0.000 A 
ATOM     26  C   UNL     1       1.165   8.866  20.741  0.00  0.00    +0.000 A 
ATOM     27  C   UNL     1       1.818   7.649  20.547  0.00  0.00    +0.000 A 
ATOM     28  O   UNL     1       0.748   9.144  22.012  0.00  0.00    +0.000 OA
ATOM     29  C   UNL     1      -0.375  10.020  22.018  0.00  0.00    +0.000 C 
ATOM     30  C   UNL     1      -0.265  11.194  21.052  0.00  0.00    +0.000 C 
ATOM     31  O   UNL     1       0.253  10.895  19.756  0.00  0.00    +0.000 OA
ENDBRANCH  19  22
ENDBRANCH   4  19
TORSDOF 5
ENDMDL
MODEL 2
REMARK VINA RESULT:      -8.6      1.271      1.986
REMARK  Name = 
REMARK  6 active torsions:
REMARK  status: ('A' for Active; 'I' for Inactive)
REMARK    1  A    between atoms: C_1  and  C_2
REMARK    2  A    between atoms: C_2  and  C_3
REMARK    3  A    between atoms: C_7  and  N_8
REMARK    4  A    between atoms: C_9  and  C_11
REMARK    5  A    between atoms: N_14  and  S_15
REMARK    6  A    between atoms: S_15  and  C_18
REMARK                            x       y       z     vdW  Elec       q    Type
REMARK                         _______ _______ _______ _____ _____    ______ ____
ROOT
ATOM      1  C   UNL     1       7.397   6.249  17.747  0.00  0.00    +0.000 C 
ATOM      2  C   UNL     1       7.119   5.591  19.101  0.00  0.00    +0.000 C 
ATOM      3  C   UNL     1       5.690   5.056  19.249  0.00  0.00    +0.000 C 
ATOM      4  N   UNL     1       4.667   6.075  18.860  0.00  0.00    +0.000 NA
ATOM      5  C   UNL     1       4.925   6.638  17.505  0.00  0.00    +0.000 C 
ATOM      6  C   UNL     1       6.307   7.289  17.469  0.00  0.00    +0.000 C 
ENDROOT
BRANCH   1   8
ATOM      7  N   UNL     1       7.282   5.845  15.351  0.00  0.00    +0.000 N 
ATOM      8  C   UNL     1       7.505   5.251  16.589  0.00  0.00    +0.000 C 
ATOM      9  O   UNL     1       7.752   4.069  16.794  0.00  0.00    +0.000 OA
ATOM     10  H   UNL     1       7.194   6.853  15.331  0.00  0.00    +0.000 HD
BRANCH   7  15
ATOM     11  C   UNL     1       5.933   3.709  12.622  0.00  0.00    +0.000 A 
ATOM     12  C   UNL     1       6.854   3.961  11.600  0.00  0.00    +0.000 A 
ATOM     13  C   UNL     1       7.951   4.786  11.831  0.00  0.00    +0.000 A 
ATOM     14  C   UNL     1       8.125   5.398  13.074  0.00  0.00    +0.000 A 
ATOM     15  C   UNL     1       7.194   5.209  14.092  0.00  0.00    +0.000 A 
ATOM     16  C   UNL     1       6.107   4.347  13.864  0.00  0.00    +0.000 A 
BRANCH  11  18
ATOM     17  C   UNL     1       3.918   3.217  11.190  0.00  0.00    +0.000 C 
ATOM     18  C   UNL     1       4.771   2.781  12.371  0.00  0.00    +0.000 C 
ENDBRANCH  11  18
ENDBRANCH   7  15
ENDBRANCH   1   8
BRANCH   4  19
ATOM     19  S   UNL     1       3.038   5.476  19.017  0.00  0.00    +0.000 S 
ATOM     20  O   UNL     1       2.566   5.105  17.692  0.00  0.00    +0.000 OA
ATOM     21  O   UNL     1       3.025   4.528  20.109  0.00  0.00    +0.000 OA
BRANCH  19  22
ATOM     22  C   UNL     1       2.125   6.917  19.510  0.00  0.00    +0.000 A 
ATOM     23  C   UNL     1       1.551   6.990  20.783  0.00  0.00    +0.000 A 
ATOM     24  C   UNL     1       0.960   8.189  21.196  0.00  0.00    +0.000 A 
ATOM     25  C   UNL     1       0.970   9.307  20.356  0.00  0.00    +0.000 A 
ATOM     26  C   UNL     1       1.485   9.200  19.067  0.00  0.00    +0.000 A 
ATOM     27  C   UNL     1       2.052   8.003  18.630  0.00  0.00    +0.000 A 
ATOM     28  O   UNL     1       1.469  10.235  18.173  0.00  0.00    +0.000 OA
ATOM     29  C   UNL     1       1.468  11.498  18.830  0.00  0.00    +0.000 C 
ATOM     30  C   UNL     1       0.516  11.592  20.017  0.00  0.00    +0.000 C 
ATOM     31  O   UNL     1       0.488  10.464  20.891  0.00  0.00    +0.000 OA
ENDBRANCH  19  22
ENDBRANCH   4  19
TORSDOF 5
ENDMDL
MODEL 3
REMARK VINA RESULT:      -8.5      3.818      6.660
REMARK  Name = 
REMARK  6 active torsions:
REMARK  status: ('A' for Active; 'I' for Inactive)
REMARK    1  A    between atoms: C_1  and  C_2
REMARK    2  A    between atoms: C_2  and  C_3
REMARK    3  A    between atoms: C_7  and  N_8
REMARK    4  A    between atoms: C_9  and  C_11
REMARK    5  A    between atoms: N_14  and  S_15
REMARK    6  A    between atoms: S_15  and  C_18
REMARK                            x       y       z     vdW  Elec       q    Type
REMARK                         _______ _______ _______ _____ _____    ______ ____
ROOT
ATOM      1  C   UNL     1       7.799   5.749  18.164  0.00  0.00    +0.000 C 
ATOM      2  C   UNL     1       7.226   4.832  17.081  0.00  0.00    +0.000 C 
ATOM      3  C   UNL     1       5.694   4.775  17.063  0.00  0.00    +0.000 C 
ATOM      4  N   UNL     1       5.125   4.521  18.422  0.00  0.00    +0.000 NA
ATOM      5  C   UNL     1       5.646   5.482  19.435  0.00  0.00    +0.000 C 
ATOM      6  C   UNL     1       7.169   5.380  19.511  0.00  0.00    +0.000 C 
ENDROOT
BRANCH   1   8
ATOM      7  N   UNL     1       8.576   8.033  18.484  0.00  0.00    +0.000 N 
ATOM      8  C   UNL     1       7.612   7.242  17.868  0.00  0.00    +0.000 C 
ATOM      9  O   UNL     1       6.688   7.635  17.166  0.00  0.00    +0.000 OA
ATOM     10  H   UNL     1       9.338   7.555  18.947  0.00  0.00    +0.000 HD
BRANCH   7  15
ATOM     11  C   UNL     1       9.463  11.444  19.668  0.00  0.00    +0.000 A 
ATOM     12  C   UNL     1       8.922  12.234  18.649  0.00  0.00    +0.000 A 
ATOM     13  C   UNL     1       8.213  11.645  17.605  0.00  0.00    +0.000 A 
ATOM     14  C   UNL     1       8.065  10.258  17.546  0.00  0.00    +0.000 A 
ATOM     15  C   UNL     1       8.640   9.444  18.519  0.00  0.00    +0.000 A 
ATOM     16  C   UNL     1       9.325  10.047  19.588  0.00  0.00    +0.000 A 
BRANCH  11  18
ATOM     17  C   UNL     1      10.979  13.326  20.383  0.00  0.00    +0.000 C 
ATOM     18  C   UNL     1      10.193  12.098  20.815  0.00  0.00    +0.000 C 
ENDBRANCH  11  18
ENDBRANCH   7  15
ENDBRANCH   1   8
BRANCH   4  19
ATOM     19  S   UNL     1       3.383   4.462  18.415  0.00  0.00    +0.000 S 
ATOM     20  O   UNL     1       2.951   4.113  17.070  0.00  0.00    +0.000 OA
ATOM     21  O   UNL     1       2.969   3.683  19.561  0.00  0.00    +0.000 OA
BRANCH  19  22
ATOM     22  C   UNL     1       2.922   6.155  18.687  0.00  0.00    +0.000 A 
ATOM     23  C   UNL     1       3.094   7.106  17.678  0.00  0.00    +0.000 A 
ATOM     24  C   UNL     1       2.593   8.399  17.867  0.00  0.00    +0.000 A 
ATOM     25  C   UNL     1       1.908   8.725  19.041  0.00  0.00    +0.000 A 
ATOM     26  C   UNL     1       1.803   7.788  20.066  0.00  0.00    +0.000 A 
ATOM     27  C   UNL     1       2.321   6.504  19.903  0.00  0.00    +0.000 A 
ATOM     28  O   UNL     1       1.201   8.061  21.262  0.00  0.00    +0.000 OA
ATOM     29  C   UNL     1       0.215   9.080  21.136  0.00  0.00    +0.000 C 
ATOM     30  C   UNL     1       0.644  10.272  20.288  0.00  0.00    +0.000 C 
ATOM     31  O   UNL     1       1.345   9.966  19.083  0.00  0.00    +0.000 OA
ENDBRANCH  19  22
ENDBRANCH   4  19
TORSDOF 5
ENDMDL
MODEL 4
REMARK VINA RESULT:      -8.3      0.829      1.515
REMARK  Name = 
REMARK  6 active torsions:
REMARK  status: ('A' for Active; 'I' for Inactive)
REMARK    1  A    between atoms: C_1  and  C_2
REMARK    2  A    between atoms: C_2  and  C_3
REMARK    3  A    between atoms: C_7  and  N_8
REMARK    4  A    between atoms: C_9  and  C_11
REMARK    5  A    between atoms: N_14  and  S_15
REMARK    6  A    between atoms: S_15  and  C_18
REMARK                            x       y       z     vdW  Elec       q    Type
REMARK                         _______ _______ _______ _____ _____    ______ ____
ROOT
ATOM      1  C   UNL     1       6.983   6.014  16.579  0.00  0.00    +0.000 C 
ATOM      2  C   UNL     1       7.048   5.675  18.070  0.00  0.00    +0.000 C 
ATOM      3  C   UNL     1       5.737   5.119  18.638  0.00  0.00    +0.000 C 
ATOM      4  N   UNL     1       4.562   5.968  18.270  0.00  0.00    +0.000 NA
ATOM      5  C   UNL     1       4.486   6.214  16.802  0.00  0.00    +0.000 C 
ATOM      6  C   UNL     1       5.763   6.906  16.327  0.00  0.00    +0.000 C 
ENDROOT
BRANCH   1   8
ATOM      7  N   UNL     1       6.597   5.093  14.360  0.00  0.00    +0.000 N 
ATOM      8  C   UNL     1       6.952   4.781  15.668  0.00  0.00    +0.000 C 
ATOM      9  O   UNL     1       7.212   3.667  16.105  0.00  0.00    +0.000 OA
ATOM     10  H   UNL     1       6.515   6.074  14.125  0.00  0.00    +0.000 HD
BRANCH   7  15
ATOM     11  C   UNL     1       4.747   3.233  11.725  0.00  0.00    +0.000 A 
ATOM     12  C   UNL     1       5.786   2.523  11.114  0.00  0.00    +0.000 A 
ATOM     13  C   UNL     1       7.084   2.613  11.609  0.00  0.00    +0.000 A 
ATOM     14  C   UNL     1       7.369   3.437  12.700  0.00  0.00    +0.000 A 
ATOM     15  C   UNL     1       6.363   4.197  13.293  0.00  0.00    +0.000 A 
ATOM     16  C   UNL     1       5.048   4.076  12.809  0.00  0.00    +0.000 A 
BRANCH  11  18
ATOM     17  C   UNL     1       3.112   3.877   9.919  0.00  0.00    +0.000 C 
ATOM     18  C   UNL     1       3.339   3.095  11.203  0.00  0.00    +0.000 C 
ENDBRANCH  11  18
ENDBRANCH   7  15
ENDBRANCH   1   8
BRANCH   4  19
ATOM     19  S   UNL     1       3.064   5.343  18.903  0.00  0.00    +0.000 S 
ATOM     20  O   UNL     1       2.311   4.772  17.796  0.00  0.00    +0.000 OA
ATOM     21  O   UNL     1       3.380   4.558  20.076  0.00  0.00    +0.000 OA
BRANCH  19  22
ATOM     22  C   UNL     1       2.202   6.807  19.418  0.00  0.00    +0.000 A 
ATOM     23  C   UNL     1       1.704   6.914  20.720  0.00  0.00    +0.000 A 
ATOM     24  C   UNL     1       1.155   8.131  21.142  0.00  0.00    +0.000 A 
ATOM     25  C   UNL     1       1.132   9.231  20.279  0.00  0.00    +0.000 A 
ATOM     26  C   UNL     1       1.570   9.091  18.965  0.00  0.00    +0.000 A 
ATOM     27  C   UNL     1       2.093   7.877  18.521  0.00  0.00    +0.000 A 
ATOM     28  O   UNL     1       1.516  10.107  18.052  0.00  0.00    +0.000 OA
ATOM     29  C   UNL     1       1.571  11.383  18.681  0.00  0.00    +0.000 C 
ATOM     30  C   UNL     1       0.691  11.515  19.919  0.00  0.00    +0.000 C 
ATOM     31  O   UNL     1       0.699  10.406  20.817  0.00  0.00    +0.000 OA
ENDBRANCH  19  22
ENDBRANCH   4  19
TORSDOF 5
ENDMDL
MODEL 5
REMARK VINA RESULT:      -7.8      3.913      6.858
REMARK  Name = 
REMARK  6 active torsions:
REMARK  status: ('A' for Active; 'I' for Inactive)
REMARK    1  A    between atoms: C_1  and  C_2
REMARK    2  A    between atoms: C_2  and  C_3
REMARK    3  A    between atoms: C_7  and  N_8
REMARK    4  A    between atoms: C_9  and  C_11
REMARK    5  A    between atoms: N_14  and  S_15
REMARK    6  A    between atoms: S_15  and  C_18
REMARK                            x       y       z     vdW  Elec       q    Type
REMARK                         _______ _______ _______ _____ _____    ______ ____
ROOT
ATOM      1  C   UNL     1       8.006   5.714  18.725  0.00  0.00    +0.000 C 
ATOM      2  C   UNL     1       7.870   4.593  17.692  0.00  0.00    +0.000 C 
ATOM      3  C   UNL     1       6.445   4.414  17.154  0.00  0.00    +0.000 C 
ATOM      4  N   UNL     1       5.436   4.336  18.254  0.00  0.00    +0.000 NA
ATOM      5  C   UNL     1       5.546   5.484  19.197  0.00  0.00    +0.000 C 
ATOM      6  C   UNL     1       6.944   5.516  19.812  0.00  0.00    +0.000 C 
ENDROOT
BRANCH   1   8
ATOM      7  N   UNL     1       8.662   8.055  18.827  0.00  0.00    +0.000 N 
ATOM      8  C   UNL     1       7.910   7.120  18.123  0.00  0.00    +0.000 C 
ATOM      9  O   UNL     1       7.222   7.338  17.133  0.00  0.00    +0.000 OA
ATOM     10  H   UNL     1       9.264   7.704  19.561  0.00  0.00    +0.000 HD
BRANCH   7  15
ATOM     11  C   UNL     1       9.765  11.585  19.209  0.00  0.00    +0.000 A 
ATOM     12  C   UNL     1       8.985  12.220  18.236  0.00  0.00    +0.000 A 
ATOM     13  C   UNL     1       8.054  11.493  17.499  0.00  0.00    +0.000 A 
ATOM     14  C   UNL     1       7.914  10.118  17.697  0.00  0.00    +0.000 A 
ATOM     15  C   UNL     1       8.716   9.452  18.621  0.00  0.00    +0.000 A 
ATOM     16  C   UNL     1       9.629  10.197  19.387  0.00  0.00    +0.000 A 
BRANCH  11  18
ATOM     17  C   UNL     1      12.171  11.896  19.891  0.00  0.00    +0.000 C 
ATOM     18  C   UNL     1      10.740  12.392  20.030  0.00  0.00    +0.000 C 
ENDBRANCH  11  18
ENDBRANCH   7  15
ENDBRANCH   1   8
BRANCH   4  19
ATOM     19  S   UNL     1       3.811   4.140  17.654  0.00  0.00    +0.000 S 
ATOM     20  O   UNL     1       3.836   4.347  16.214  0.00  0.00    +0.000 OA
ATOM     21  O   UNL     1       3.280   2.923  18.227  0.00  0.00    +0.000 OA
BRANCH  19  22
ATOM     22  C   UNL     1       2.951   5.521  18.364  0.00  0.00    +0.000 A 
ATOM     23  C   UNL     1       2.549   5.493  19.702  0.00  0.00    +0.000 A 
ATOM     24  C   UNL     1       2.000   6.646  20.274  0.00  0.00    +0.000 A 
ATOM     25  C   UNL     1       1.881   7.819  19.520  0.00  0.00    +0.000 A 
ATOM     26  C   UNL     1       2.223   7.813  18.171  0.00  0.00    +0.000 A 
ATOM     27  C   UNL     1       2.745   6.663  17.580  0.00  0.00    +0.000 A 
ATOM     28  O   UNL     1       2.072   8.905  17.363  0.00  0.00    +0.000 OA
ATOM     29  C   UNL     1       2.139  10.120  18.101  0.00  0.00    +0.000 C 
ATOM     30  C   UNL     1       1.351  10.110  19.407  0.00  0.00    +0.000 C 
ATOM     31  O   UNL     1       1.457   8.925  20.195  0.00  0.00    +0.000 OA
ENDBRANCH  19  22
ENDBRANCH   4  19
TORSDOF 5
ENDMDL
MODEL 6
REMARK VINA RESULT:      -7.8      4.757      7.566
REMARK  Name = 
REMARK  6 active torsions:
REMARK  status: ('A' for Active; 'I' for Inactive)
REMARK    1  A    between atoms: C_1  and  C_2
REMARK    2  A    between atoms: C_2  and  C_3
REMARK    3  A    between atoms: C_7  and  N_8
REMARK    4  A    between atoms: C_9  and  C_11
REMARK    5  A    between atoms: N_14  and  S_15
REMARK    6  A    between atoms: S_15  and  C_18
REMARK                            x       y       z     vdW  Elec       q    Type
REMARK                         _______ _______ _______ _____ _____    ______ ____
ROOT
ATOM      1  C   UNL     1       0.981  10.058  18.119  0.00  0.00    +0.000 C 
ATOM      2  C   UNL     1       1.643  11.375  18.531  0.00  0.00    +0.000 C 
ATOM      3  C   UNL     1       1.357  11.787  19.980  0.00  0.00    +0.000 C 
ATOM      4  N   UNL     1      -0.102  11.725  20.304  0.00  0.00    +0.000 NA
ATOM      5  C   UNL     1      -0.696  10.403  19.961  0.00  0.00    +0.000 C 
ATOM      6  C   UNL     1      -0.509  10.121  18.471  0.00  0.00    +0.000 C 
ENDROOT
BRANCH   1   8
ATOM      7  N   UNL     1       2.267   8.017  17.800  0.00  0.00    +0.000 N 
ATOM      8  C   UNL     1       1.634   8.820  18.743  0.00  0.00    +0.000 C 
ATOM      9  O   UNL     1       1.564   8.608  19.948  0.00  0.00    +0.000 OA
ATOM     10  H   UNL     1       2.331   8.377  16.856  0.00  0.00    +0.000 HD
BRANCH   7  15
ATOM     11  C   UNL     1       2.552   4.355  18.379  0.00  0.00    +0.000 A 
ATOM     12  C   UNL     1       3.939   4.180  18.326  0.00  0.00    +0.000 A 
ATOM     13  C   UNL     1       4.780   5.277  18.159  0.00  0.00    +0.000 A 
ATOM     14  C   UNL     1       4.247   6.559  18.010  0.00  0.00    +0.000 A 
ATOM     15  C   UNL     1       2.868   6.755  18.004  0.00  0.00    +0.000 A 
ATOM     16  C   UNL     1       2.026   5.648  18.207  0.00  0.00    +0.000 A 
BRANCH  11  18
ATOM     17  C   UNL     1       0.982   3.184  19.964  0.00  0.00    +0.000 C 
ATOM     18  C   UNL     1       1.654   3.164  18.601  0.00  0.00    +0.000 C 
ENDBRANCH  11  18
ENDBRANCH   7  15
ENDBRANCH   1   8
BRANCH   4  19
ATOM     19  S   UNL     1      -0.438  12.184  21.951  0.00  0.00    +0.000 S 
ATOM     20  O   UNL     1      -0.299  10.999  22.784  0.00  0.00    +0.000 OA
ATOM     21  O   UNL     1       0.313  13.388  22.230  0.00  0.00    +0.000 OA
BRANCH  19  22
ATOM     22  C   UNL     1      -2.165  12.592  21.910  0.00  0.00    +0.000 A 
ATOM     23  C   UNL     1      -2.825  12.757  20.688  0.00  0.00    +0.000 A 
ATOM     24  C   UNL     1      -4.213  12.938  20.682  0.00  0.00    +0.000 A 
ATOM     25  C   UNL     1      -4.931  12.927  21.882  0.00  0.00    +0.000 A 
ATOM     26  C   UNL     1      -4.254  12.829  23.095  0.00  0.00    +0.000 A 
ATOM     27  C   UNL     1      -2.868  12.677  23.118  0.00  0.00    +0.000 A 
ATOM     28  O   UNL     1      -4.888  12.875  24.304  0.00  0.00    +0.000 OA
ATOM     29  C   UNL     1      -6.235  12.423  24.211  0.00  0.00    +0.000 C 
ATOM     30  C   UNL     1      -6.999  12.960  23.006  0.00  0.00    +0.000 C 
ATOM     31  O   UNL     1      -6.289  12.981  21.769  0.00  0.00    +0.000 OA
ENDBRANCH  19  22
ENDBRANCH   4  19
TORSDOF 5
ENDMDL
MODEL 7
REMARK VINA RESULT:      -7.7      1.258      1.646
REMARK  Name = 
REMARK  6 active torsions:
REMARK  status: ('A' for Active; 'I' for Inactive)
REMARK    1  A    between atoms: C_1  and  C_2
REMARK    2  A    between atoms: C_2  and  C_3
REMARK    3  A    between atoms: C_7  and  N_8
REMARK    4  A    between atoms: C_9  and  C_11
REMARK    5  A    between atoms: N_14  and  S_15
REMARK    6  A    between atoms: S_15  and  C_18
REMARK                            x       y       z     vdW  Elec       q    Type
REMARK                         _______ _______ _______ _____ _____    ______ ____
ROOT
ATOM      1  C   UNL     1       6.976   5.061  18.121  0.00  0.00    +0.000 C 
ATOM      2  C   UNL     1       6.232   3.749  18.379  0.00  0.00    +0.000 C 
ATOM      3  C   UNL     1       4.710   3.859  18.228  0.00  0.00    +0.000 C 
ATOM      4  N   UNL     1       4.153   5.019  18.989  0.00  0.00    +0.000 NA
ATOM      5  C   UNL     1       4.851   6.293  18.656  0.00  0.00    +0.000 C 
ATOM      6  C   UNL     1       6.340   6.166  18.971  0.00  0.00    +0.000 C 
ENDROOT
BRANCH   1   8
ATOM      7  N   UNL     1       6.785   4.393  15.789  0.00  0.00    +0.000 N 
ATOM      8  C   UNL     1       7.015   5.466  16.643  0.00  0.00    +0.000 C 
ATOM      9  O   UNL     1       7.240   6.624  16.312  0.00  0.00    +0.000 OA
ATOM     10  H   UNL     1       6.510   3.516  16.213  0.00  0.00    +0.000 HD
BRANCH   7  15
ATOM     11  C   UNL     1       5.994   3.475  12.274  0.00  0.00    +0.000 A 
ATOM     12  C   UNL     1       6.843   4.336  11.571  0.00  0.00    +0.000 A 
ATOM     13  C   UNL     1       7.717   5.175  12.257  0.00  0.00    +0.000 A 
ATOM     14  C   UNL     1       7.732   5.189  13.653  0.00  0.00    +0.000 A 
ATOM     15  C   UNL     1       6.859   4.381  14.378  0.00  0.00    +0.000 A 
ATOM     16  C   UNL     1       6.003   3.512  13.680  0.00  0.00    +0.000 A 
BRANCH  11  18
ATOM     17  C   UNL     1       3.834   3.239  10.997  0.00  0.00    +0.000 C 
ATOM     18  C   UNL     1       5.081   2.542  11.518  0.00  0.00    +0.000 C 
ENDBRANCH  11  18
ENDBRANCH   7  15
ENDBRANCH   1   8
BRANCH   4  19
ATOM     19  S   UNL     1       2.425   5.159  18.820  0.00  0.00    +0.000 S 
ATOM     20  O   UNL     1       2.078   4.813  17.449  0.00  0.00    +0.000 OA
ATOM     21  O   UNL     1       1.820   4.474  19.940  0.00  0.00    +0.000 OA
BRANCH  19  22
ATOM     22  C   UNL     1       2.142   6.902  19.003  0.00  0.00    +0.000 A 
ATOM     23  C   UNL     1       2.163   7.744  17.888  0.00  0.00    +0.000 A 
ATOM     24  C   UNL     1       1.798   9.087  18.040  0.00  0.00    +0.000 A 
ATOM     25  C   UNL     1       1.394   9.570  19.288  0.00  0.00    +0.000 A 
ATOM     26  C   UNL     1       1.443   8.738  20.404  0.00  0.00    +0.000 A 
ATOM     27  C   UNL     1       1.831   7.405  20.272  0.00  0.00    +0.000 A 
ATOM     28  O   UNL     1       1.122   9.164  21.662  0.00  0.00    +0.000 OA
ATOM     29  C   UNL     1       0.200  10.249  21.632  0.00  0.00    +0.000 C 
ATOM     30  C   UNL     1       0.521  11.322  20.597  0.00  0.00    +0.000 C 
ATOM     31  O   UNL     1       0.935  10.854  19.314  0.00  0.00    +0.000 OA
ENDBRANCH  19  22
ENDBRANCH   4  19
TORSDOF 5
ENDMDL
MODEL 8
REMARK VINA RESULT:      -7.6      3.154      9.441
REMARK  Name = 
REMARK  6 active torsions:
REMARK  status: ('A' for Active; 'I' for Inactive)
REMARK    1  A    between atoms: C_1  and  C_2
REMARK    2  A    between atoms: C_2  and  C_3
REMARK    3  A    between atoms: C_7  and  N_8
REMARK    4  A    between atoms: C_9  and  C_11
REMARK    5  A    between atoms: N_14  and  S_15
REMARK    6  A    between atoms: S_15  and  C_18
REMARK                            x       y       z     vdW  Elec       q    Type
REMARK                         _______ _______ _______ _____ _____    ______ ____
ROOT
ATOM      1  C   UNL     1       1.099  10.269  19.649  0.00  0.00    +0.000 C 
ATOM      2  C   UNL     1       2.029   9.869  18.501  0.00  0.00    +0.000 C 
ATOM      3  C   UNL     1       2.113   8.355  18.269  0.00  0.00    +0.000 C 
ATOM      4  N   UNL     1       2.373   7.607  19.537  0.00  0.00    +0.000 NA
ATOM      5  C   UNL     1       1.402   7.964  20.608  0.00  0.00    +0.000 C 
ATOM      6  C   UNL     1       1.476   9.463  20.896  0.00  0.00    +0.000 C 
ENDROOT
BRANCH   1   8
ATOM      7  N   UNL     1      -0.724  10.616  18.075  0.00  0.00    +0.000 N 
ATOM      8  C   UNL     1      -0.389  10.100  19.322  0.00  0.00    +0.000 C 
ATOM      9  O   UNL     1      -1.154   9.568  20.118  0.00  0.00    +0.000 OA
ATOM     10  H   UNL     1       0.037  10.930  17.486  0.00  0.00    +0.000 HD
BRANCH   7  15
ATOM     11  C   UNL     1      -4.286  11.619  17.708  0.00  0.00    +0.000 A 
ATOM     12  C   UNL     1      -4.581  11.110  16.439  0.00  0.00    +0.000 A 
ATOM     13  C   UNL     1      -3.625  10.385  15.733  0.00  0.00    +0.000 A 
ATOM     14  C   UNL     1      -2.351  10.187  16.269  0.00  0.00    +0.000 A 
ATOM     15  C   UNL     1      -2.012  10.730  17.506  0.00  0.00    +0.000 A 
ATOM     16  C   UNL     1      -2.993  11.432  18.229  0.00  0.00    +0.000 A 
BRANCH  11  18
ATOM     17  C   UNL     1      -5.074  12.384  19.976  0.00  0.00    +0.000 C 
ATOM     18  C   UNL     1      -5.343  12.368  18.480  0.00  0.00    +0.000 C 
ENDBRANCH  11  18
ENDBRANCH   7  15
ENDBRANCH   1   8
BRANCH   4  19
ATOM     19  S   UNL     1       2.463   5.884  19.287  0.00  0.00    +0.000 S 
ATOM     20  O   UNL     1       2.559   5.246  20.591  0.00  0.00    +0.000 OA
ATOM     21  O   UNL     1       1.420   5.525  18.353  0.00  0.00    +0.000 OA
BRANCH  19  22
ATOM     22  C   UNL     1       4.034   5.675  18.488  0.00  0.00    +0.000 A 
ATOM     23  C   UNL     1       5.154   5.274  19.222  0.00  0.00    +0.000 A 
ATOM     24  C   UNL     1       6.344   4.981  18.546  0.00  0.00    +0.000 A 
ATOM     25  C   UNL     1       6.400   5.063  17.151  0.00  0.00    +0.000 A 
ATOM     26  C   UNL     1       5.298   5.527  16.438  0.00  0.00    +0.000 A 
ATOM     27  C   UNL     1       4.115   5.851  17.101  0.00  0.00    +0.000 A 
ATOM     28  O   UNL     1       5.308   5.691  15.081  0.00  0.00    +0.000 OA
ATOM     29  C   UNL     1       6.236   4.814  14.451  0.00  0.00    +0.000 C 
ATOM     30  C   UNL     1       7.588   4.721  15.148  0.00  0.00    +0.000 C 
ATOM     31  O   UNL     1       7.558   4.635  16.571  0.00  0.00    +0.000 OA
ENDBRANCH  19  22
ENDBRANCH   4  19
TORSDOF 5
ENDMDL
MODEL 9
REMARK VINA RESULT:      -7.6      3.509      6.243
REMARK  Name = 
REMARK  6 active torsions:
REMARK  status: ('A' for Active; 'I' for Inactive)
REMARK    1  A    between atoms: C_1  and  C_2
REMARK    2  A    between atoms: C_2  and  C_3
REMARK    3  A    between atoms: C_7  and  N_8
REMARK    4  A    between atoms: C_9  and  C_11
REMARK    5  A    between atoms: N_14  and  S_15
REMARK    6  A    between atoms: S_15  and  C_18
REMARK                            x       y       z     vdW  Elec       q    Type
REMARK                         _______ _______ _______ _____ _____    ______ ____
ROOT
ATOM      1  C   UNL     1       7.027   6.090  16.762  0.00  0.00    +0.000 C 
ATOM      2  C   UNL     1       5.725   6.624  16.160  0.00  0.00    +0.000 C 
ATOM      3  C   UNL     1       4.527   6.560  17.114  0.00  0.00    +0.000 C 
ATOM      4  N   UNL     1       4.384   5.211  17.744  0.00  0.00    +0.000 NA
ATOM      5  C   UNL     1       5.648   4.757  18.388  0.00  0.00    +0.000 C 
ATOM      6  C   UNL     1       6.767   4.699  17.349  0.00  0.00    +0.000 C 
ENDROOT
BRANCH   1   8
ATOM      7  N   UNL     1       7.710   8.340  17.389  0.00  0.00    +0.000 N 
ATOM      8  C   UNL     1       7.643   7.018  17.816  0.00  0.00    +0.000 C 
ATOM      9  O   UNL     1       8.027   6.581  18.894  0.00  0.00    +0.000 OA
ATOM     10  H   UNL     1       7.256   8.566  16.514  0.00  0.00    +0.000 HD
BRANCH   7  15
ATOM     11  C   UNL     1       8.705  11.848  18.116  0.00  0.00    +0.000 A 
ATOM     12  C   UNL     1       9.388  11.691  19.326  0.00  0.00    +0.000 A 
ATOM     13  C   UNL     1       9.571  10.423  19.870  0.00  0.00    +0.000 A 
ATOM     14  C   UNL     1       9.046   9.298  19.231  0.00  0.00    +0.000 A 
ATOM     15  C   UNL     1       8.315   9.431  18.052  0.00  0.00    +0.000 A 
ATOM     16  C   UNL     1       8.163  10.711  17.491  0.00  0.00    +0.000 A 
BRANCH  11  18
ATOM     17  C   UNL     1       8.464  14.315  18.573  0.00  0.00    +0.000 C 
ATOM     18  C   UNL     1       8.549  13.224  17.517  0.00  0.00    +0.000 C 
ENDBRANCH  11  18
ENDBRANCH   7  15
ENDBRANCH   1   8
BRANCH   4  19
ATOM     19  S   UNL     1       3.029   5.128  18.838  0.00  0.00    +0.000 S 
ATOM     20  O   UNL     1       1.974   4.365  18.188  0.00  0.00    +0.000 OA
ATOM     21  O   UNL     1       3.540   4.743  20.135  0.00  0.00    +0.000 OA
BRANCH  19  22
ATOM     22  C   UNL     1       2.477   6.813  18.924  0.00  0.00    +0.000 A 
ATOM     23  C   UNL     1       2.314   7.565  17.757  0.00  0.00    +0.000 A 
ATOM     24  C   UNL     1       1.744   8.840  17.842  0.00  0.00    +0.000 A 
ATOM     25  C   UNL     1       1.321   9.342  19.076  0.00  0.00    +0.000 A 
ATOM     26  C   UNL     1       1.550   8.611  20.238  0.00  0.00    +0.000 A 
ATOM     27  C   UNL     1       2.143   7.350  20.173  0.00  0.00    +0.000 A 
ATOM     28  O   UNL     1       1.219   9.070  21.482  0.00  0.00    +0.000 OA
ATOM     29  C   UNL     1       0.133   9.991  21.431  0.00  0.00    +0.000 C 
ATOM     30  C   UNL     1       0.232  11.023  20.314  0.00  0.00    +0.000 C 
ATOM     31  O   UNL     1       0.662  10.536  19.044  0.00  0.00    +0.000 OA
ENDBRANCH  19  22
ENDBRANCH   4  19
TORSDOF 5
ENDMDL
