MODEL 1
REMARK VINA RESULT:      -9.2      0.000      0.000
REMARK  Name = 
REMARK  7 active torsions:
REMARK  status: ('A' for Active; 'I' for Inactive)
REMARK    1  A    between atoms: C_1  and  N_2
REMARK    2  A    between atoms: C_6  and  C_7
REMARK    3  A    between atoms: C_7  and  C_8
REMARK    4  A    between atoms: C_8  and  C_9
REMARK    5  A    between atoms: C_13  and  N_14
REMARK    6  A    between atoms: C_15  and  C_17
REMARK    7  A    between atoms: C_19  and  C_20
REMARK                            x       y       z     vdW  Elec       q    Type
REMARK                         _______ _______ _______ _____ _____    ______ ____
ROOT
ATOM      1  C   UNL     1       4.614   5.043  17.304  0.00  0.00    +0.000 A 
ATOM      2  C   UNL     1       3.785   3.905  17.204  0.00  0.00    +0.000 A 
ATOM      3  C   UNL     1       2.460   3.919  17.625  0.00  0.00    +0.000 A 
ATOM      4  C   UNL     1       1.921   5.075  18.180  0.00  0.00    +0.000 A 
ATOM      5  C   UNL     1       2.699   6.223  18.306  0.00  0.00    +0.000 A 
ATOM      6  C   UNL     1       4.017   6.207  17.834  0.00  0.00    +0.000 A 
ENDROOT
BRANCH   1   7
ATOM      7  C   UNL     1       6.156   5.002  16.841  0.00  0.00    +0.000 C 
ATOM      8  C   UNL     1       6.916   6.371  16.705  0.00  0.00    +0.000 C 
ATOM      9  C   UNL     1       7.521   6.160  18.098  0.00  0.00    +0.000 C 
ATOM     10  C   UNL     1       7.192   4.668  17.985  0.00  0.00    +0.000 C 
BRANCH   7  11
ATOM     11  C   UNL     1       6.320   4.038  15.644  0.00  0.00    +0.000 C 
BRANCH  11  17
ATOM     12  C   UNL     1       5.717   3.363  12.597  0.00  0.00    +0.000 C 
ATOM     13  N   UNL     1       6.680   4.298  13.117  0.00  0.00    +0.000 N 
ATOM     14  C   UNL     1       7.563   5.009  12.359  0.00  0.00    +0.000 A 
ATOM     15  N   UNL     1       8.296   5.765  13.135  0.00  0.00    +0.000 NA
ATOM     16  N   UNL     1       7.904   5.537  14.431  0.00  0.00    +0.000 NA
ATOM     17  C   UNL     1       6.937   4.641  14.422  0.00  0.00    +0.000 A 
ENDBRANCH  11  17
ENDBRANCH   7  11
ENDBRANCH   1   7
BRANCH   5  18
ATOM     18  N   UNL     1       2.240   7.404  18.916  0.00  0.00    +0.000 N 
ATOM     19  C   UNL     1       1.979   8.603  18.288  0.00  0.00    +0.000 C 
ATOM     20  O   UNL     1       2.167   8.872  17.106  0.00  0.00    +0.000 OA
ATOM     21  H   UNL     1       1.934   7.354  19.886  0.00  0.00    +0.000 HD
BRANCH  19  22
ATOM     22  C   UNL     1       1.360   9.639  19.158  0.00  0.00    +0.000 A 
ATOM     23  C   UNL     1       1.127  10.895  18.634  0.00  0.00    +0.000 A 
ATOM     24  C   UNL     1       0.521  11.805  19.474  0.00  0.00    +0.000 A 
ATOM     25  N   UNL     1       0.193  11.474  20.755  0.00  0.00    +0.000 NA
ATOM     26  C   UNL     1       0.468  10.224  21.161  0.00  0.00    +0.000 A 
ATOM     27  N   UNL     1       1.037   9.268  20.422  0.00  0.00    +0.000 NA
BRANCH  24  28
ATOM     28  C   UNL     1       0.210  13.202  18.960  0.00  0.00    +0.000 C 
ATOM     29  F   UNL     1      -0.237  14.047  19.941  0.00  0.00    +0.000 F 
ATOM     30  F   UNL     1       1.297  13.821  18.418  0.00  0.00    +0.000 F 
ATOM     31  F   UNL     1      -0.758  13.216  18.000  0.00  0.00    +0.000 F 
ENDBRANCH  24  28
ENDBRANCH  19  22
ENDBRANCH   5  18
TORSDOF 6
ENDMDL
MODEL 2
REMARK VINA RESULT:      -9.2      2.316      3.664
REMARK  Name = 
REMARK  7 active torsions:
REMARK  status: ('A' for Active; 'I' for Inactive)
REMARK    1  A    between atoms: C_1  and  N_2
REMARK    2  A    between atoms: C_6  and  C_7
REMARK    3  A    between atoms: C_7  and  C_8
REMARK    4  A    between atoms: C_8  and  C_9
REMARK    5  A    between atoms: C_13  and  N_14
REMARK    6  A    between atoms: C_15  and  C_17
REMARK    7  A    between atoms: C_19  and  C_20
REMARK                            x       y       z     vdW  Elec       q    Type
REMARK                         _______ _______ _______ _____ _____    ______ ____
ROOT
ATOM      1  C   UNL     1       4.208   4.597  16.997  0.00  0.00    +0.000 A 
ATOM      2  C   UNL     1       3.367   3.468  17.099  0.00  0.00    +0.000 A 
ATOM      3  C   UNL     1       2.145   3.518  17.759  0.00  0.00    +0.000 A 
ATOM      4  C   UNL     1       1.727   4.703  18.358  0.00  0.00    +0.000 A 
ATOM      5  C   UNL     1       2.524   5.843  18.290  0.00  0.00    +0.000 A 
ATOM      6  C   UNL     1       3.730   5.789  17.581  0.00  0.00    +0.000 A 
ENDROOT
BRANCH   1   7
ATOM      7  C   UNL     1       5.636   4.515  16.255  0.00  0.00    +0.000 C 
ATOM      8  C   UNL     1       5.817   3.428  15.134  0.00  0.00    +0.000 C 
ATOM      9  C   UNL     1       5.535   4.496  14.070  0.00  0.00    +0.000 C 
ATOM     10  C   UNL     1       5.859   5.576  15.108  0.00  0.00    +0.000 C 
BRANCH   7  11
ATOM     11  C   UNL     1       6.774   4.577  17.299  0.00  0.00    +0.000 C 
BRANCH  11  17
ATOM     12  C   UNL     1       8.085   5.743  19.951  0.00  0.00    +0.000 C 
ATOM     13  N   UNL     1       7.885   6.420  18.695  0.00  0.00    +0.000 N 
ATOM     14  C   UNL     1       8.172   7.734  18.466  0.00  0.00    +0.000 A 
ATOM     15  N   UNL     1       7.875   8.035  17.228  0.00  0.00    +0.000 NA
ATOM     16  N   UNL     1       7.367   6.907  16.634  0.00  0.00    +0.000 NA
ATOM     17  C   UNL     1       7.360   5.934  17.523  0.00  0.00    +0.000 A 
ENDBRANCH  11  17
ENDBRANCH   7  11
ENDBRANCH   1   7
BRANCH   5  18
ATOM     18  N   UNL     1       2.196   7.053  18.927  0.00  0.00    +0.000 N 
ATOM     19  C   UNL     1       1.996   8.272  18.317  0.00  0.00    +0.000 C 
ATOM     20  O   UNL     1       2.138   8.533  17.125  0.00  0.00    +0.000 OA
ATOM     21  H   UNL     1       1.942   7.022  19.913  0.00  0.00    +0.000 HD
BRANCH  19  22
ATOM     22  C   UNL     1       1.512   9.350  19.222  0.00  0.00    +0.000 A 
ATOM     23  C   UNL     1       0.976   9.000  20.445  0.00  0.00    +0.000 A 
ATOM     24  C   UNL     1       0.575  10.039  21.257  0.00  0.00    +0.000 A 
ATOM     25  N   UNL     1       0.690  11.336  20.851  0.00  0.00    +0.000 NA
ATOM     26  C   UNL     1       1.224  11.561  19.640  0.00  0.00    +0.000 A 
ATOM     27  N   UNL     1       1.655  10.626  18.788  0.00  0.00    +0.000 NA
BRANCH  24  28
ATOM     28  C   UNL     1      -0.003   9.734  22.629  0.00  0.00    +0.000 C 
ATOM     29  F   UNL     1       0.954   9.406  23.553  0.00  0.00    +0.000 F 
ATOM     30  F   UNL     1      -0.677  10.790  23.167  0.00  0.00    +0.000 F 
ATOM     31  F   UNL     1      -0.875   8.686  22.622  0.00  0.00    +0.000 F 
ENDBRANCH  24  28
ENDBRANCH  19  22
ENDBRANCH   5  18
TORSDOF 6
ENDMDL
MODEL 3
REMARK VINA RESULT:      -9.2      0.995      1.351
REMARK  Name = 
REMARK  7 active torsions:
REMARK  status: ('A' for Active; 'I' for Inactive)
REMARK    1  A    between atoms: C_1  and  N_2
REMARK    2  A    between atoms: C_6  and  C_7
REMARK    3  A    between atoms: C_7  and  C_8
REMARK    4  A    between atoms: C_8  and  C_9
REMARK    5  A    between atoms: C_13  and  N_14
REMARK    6  A    between atoms: C_15  and  C_17
REMARK    7  A    between atoms: C_19  and  C_20
REMARK                            x       y       z     vdW  Elec       q    Type
REMARK                         _______ _______ _______ _____ _____    ______ ____
ROOT
ATOM      1  C   UNL     1       4.612   4.835  17.392  0.00  0.00    +0.000 A 
ATOM      2  C   UNL     1       3.806   3.701  17.155  0.00  0.00    +0.000 A 
ATOM      3  C   UNL     1       2.514   3.598  17.660  0.00  0.00    +0.000 A 
ATOM      4  C   UNL     1       1.988   4.626  18.437  0.00  0.00    +0.000 A 
ATOM      5  C   UNL     1       2.746   5.763  18.703  0.00  0.00    +0.000 A 
ATOM      6  C   UNL     1       4.028   5.872  18.149  0.00  0.00    +0.000 A 
ENDROOT
BRANCH   1   7
ATOM      7  C   UNL     1       6.119   4.927  16.828  0.00  0.00    +0.000 C 
ATOM      8  C   UNL     1       6.754   6.356  16.666  0.00  0.00    +0.000 C 
ATOM      9  C   UNL     1       7.467   6.178  18.012  0.00  0.00    +0.000 C 
ATOM     10  C   UNL     1       7.252   4.665  17.895  0.00  0.00    +0.000 C 
BRANCH   7  11
ATOM     11  C   UNL     1       6.279   3.995  15.605  0.00  0.00    +0.000 C 
BRANCH  11  17
ATOM     12  C   UNL     1       5.736   3.373  12.535  0.00  0.00    +0.000 C 
ATOM     13  N   UNL     1       6.685   4.302  13.091  0.00  0.00    +0.000 N 
ATOM     14  C   UNL     1       7.579   5.031  12.362  0.00  0.00    +0.000 A 
ATOM     15  N   UNL     1       8.294   5.775  13.166  0.00  0.00    +0.000 NA
ATOM     16  N   UNL     1       7.878   5.521  14.449  0.00  0.00    +0.000 NA
ATOM     17  C   UNL     1       6.916   4.622  14.406  0.00  0.00    +0.000 A 
ENDBRANCH  11  17
ENDBRANCH   7  11
ENDBRANCH   1   7
BRANCH   5  18
ATOM     18  N   UNL     1       2.304   6.809  19.533  0.00  0.00    +0.000 N 
ATOM     19  C   UNL     1       1.926   8.071  19.130  0.00  0.00    +0.000 C 
ATOM     20  O   UNL     1       1.976   8.527  17.991  0.00  0.00    +0.000 OA
ATOM     21  H   UNL     1       2.105   6.594  20.509  0.00  0.00    +0.000 HD
BRANCH  19  22
ATOM     22  C   UNL     1       1.358   8.925  20.208  0.00  0.00    +0.000 A 
ATOM     23  C   UNL     1       0.753  10.117  19.863  0.00  0.00    +0.000 A 
ATOM     24  C   UNL     1       0.215  10.852  20.899  0.00  0.00    +0.000 A 
ATOM     25  N   UNL     1       0.301  10.420  22.189  0.00  0.00    +0.000 NA
ATOM     26  C   UNL     1       0.915   9.246  22.410  0.00  0.00    +0.000 A 
ATOM     27  N   UNL     1       1.453   8.456  21.477  0.00  0.00    +0.000 NA
BRANCH  24  28
ATOM     28  C   UNL     1      -0.489  12.164  20.595  0.00  0.00    +0.000 C 
ATOM     29  F   UNL     1      -0.039  12.761  19.446  0.00  0.00    +0.000 F 
ATOM     30  F   UNL     1      -1.833  12.016  20.421  0.00  0.00    +0.000 F 
ATOM     31  F   UNL     1      -0.330  13.098  21.575  0.00  0.00    +0.000 F 
ENDBRANCH  24  28
ENDBRANCH  19  22
ENDBRANCH   5  18
TORSDOF 6
ENDMDL
MODEL 4
REMARK VINA RESULT:      -9.1      1.250      1.331
REMARK  Name = 
REMARK  7 active torsions:
REMARK  status: ('A' for Active; 'I' for Inactive)
REMARK    1  A    between atoms: C_1  and  N_2
REMARK    2  A    between atoms: C_6  and  C_7
REMARK    3  A    between atoms: C_7  and  C_8
REMARK    4  A    between atoms: C_8  and  C_9
REMARK    5  A    between atoms: C_13  and  N_14
REMARK    6  A    between atoms: C_15  and  C_17
REMARK    7  A    between atoms: C_19  and  C_20
REMARK                            x       y       z     vdW  Elec       q    Type
REMARK                         _______ _______ _______ _____ _____    ______ ____
ROOT
ATOM      1  C   UNL     1       4.651   4.843  17.187  0.00  0.00    +0.000 A 
ATOM      2  C   UNL     1       3.876   3.675  17.025  0.00  0.00    +0.000 A 
ATOM      3  C   UNL     1       2.546   3.613  17.426  0.00  0.00    +0.000 A 
ATOM      4  C   UNL     1       1.948   4.719  18.022  0.00  0.00    +0.000 A 
ATOM      5  C   UNL     1       2.673   5.893  18.209  0.00  0.00    +0.000 A 
ATOM      6  C   UNL     1       3.997   5.955  17.757  0.00  0.00    +0.000 A 
ENDROOT
BRANCH   1   7
ATOM      7  C   UNL     1       6.201   4.890  16.746  0.00  0.00    +0.000 C 
ATOM      8  C   UNL     1       6.888   6.300  16.638  0.00  0.00    +0.000 C 
ATOM      9  C   UNL     1       7.484   6.103  18.037  0.00  0.00    +0.000 C 
ATOM     10  C   UNL     1       7.236   4.597  17.901  0.00  0.00    +0.000 C 
BRANCH   7  11
ATOM     11  C   UNL     1       6.432   3.953  15.539  0.00  0.00    +0.000 C 
BRANCH  11  17
ATOM     12  C   UNL     1       5.792   3.347  12.484  0.00  0.00    +0.000 C 
ATOM     13  N   UNL     1       6.735   4.297  13.015  0.00  0.00    +0.000 N 
ATOM     14  C   UNL     1       7.581   5.057  12.262  0.00  0.00    +0.000 A 
ATOM     15  N   UNL     1       8.304   5.813  13.046  0.00  0.00    +0.000 NA
ATOM     16  N   UNL     1       7.944   5.535  14.341  0.00  0.00    +0.000 NA
ATOM     17  C   UNL     1       7.006   4.610  14.324  0.00  0.00    +0.000 A 
ENDBRANCH  11  17
ENDBRANCH   7  11
ENDBRANCH   1   7
BRANCH   5  18
ATOM     18  N   UNL     1       2.154   7.026  18.863  0.00  0.00    +0.000 N 
ATOM     19  C   UNL     1       1.692   7.082  20.160  0.00  0.00    +0.000 C 
ATOM     20  O   UNL     1       1.584   6.146  20.946  0.00  0.00    +0.000 OA
ATOM     21  H   UNL     1       2.247   7.929  18.402  0.00  0.00    +0.000 HD
BRANCH  19  22
ATOM     22  C   UNL     1       1.340   8.448  20.636  0.00  0.00    +0.000 A 
ATOM     23  C   UNL     1       1.105   9.438  19.703  0.00  0.00    +0.000 A 
ATOM     24  C   UNL     1       0.751  10.674  20.199  0.00  0.00    +0.000 A 
ATOM     25  N   UNL     1       0.660  10.896  21.541  0.00  0.00    +0.000 NA
ATOM     26  C   UNL     1       0.913   9.861  22.359  0.00  0.00    +0.000 A 
ATOM     27  N   UNL     1       1.248   8.625  21.977  0.00  0.00    +0.000 NA
BRANCH  24  28
ATOM     28  C   UNL     1       0.453  11.808  19.232  0.00  0.00    +0.000 C 
ATOM     29  F   UNL     1       0.030  12.950  19.859  0.00  0.00    +0.000 F 
ATOM     30  F   UNL     1       1.541  12.180  18.500  0.00  0.00    +0.000 F 
ATOM     31  F   UNL     1      -0.527  11.503  18.334  0.00  0.00    +0.000 F 
ENDBRANCH  24  28
ENDBRANCH  19  22
ENDBRANCH   5  18
TORSDOF 6
ENDMDL
MODEL 5
REMARK VINA RESULT:      -8.9      1.075      1.223
REMARK  Name = 
REMARK  7 active torsions:
REMARK  status: ('A' for Active; 'I' for Inactive)
REMARK    1  A    between atoms: C_1  and  N_2
REMARK    2  A    between atoms: C_6  and  C_7
REMARK    3  A    between atoms: C_7  and  C_8
REMARK    4  A    between atoms: C_8  and  C_9
REMARK    5  A    between atoms: C_13  and  N_14
REMARK    6  A    between atoms: C_15  and  C_17
REMARK    7  A    between atoms: C_19  and  C_20
REMARK                            x       y       z     vdW  Elec       q    Type
REMARK                         _______ _______ _______ _____ _____    ______ ____
ROOT
ATOM      1  C   UNL     1       4.675   5.060  17.443  0.00  0.00    +0.000 A 
ATOM      2  C   UNL     1       3.957   3.850  17.337  0.00  0.00    +0.000 A 
ATOM      3  C   UNL     1       2.616   3.755  17.695  0.00  0.00    +0.000 A 
ATOM      4  C   UNL     1       1.950   4.871  18.190  0.00  0.00    +0.000 A 
ATOM      5  C   UNL     1       2.616   6.088  18.319  0.00  0.00    +0.000 A 
ATOM      6  C   UNL     1       3.952   6.178  17.910  0.00  0.00    +0.000 A 
ENDROOT
BRANCH   1   7
ATOM      7  C   UNL     1       6.236   5.146  17.054  0.00  0.00    +0.000 C 
ATOM      8  C   UNL     1       6.858   6.574  16.838  0.00  0.00    +0.000 C 
ATOM      9  C   UNL     1       7.408   6.537  18.270  0.00  0.00    +0.000 C 
ATOM     10  C   UNL     1       7.238   5.015  18.266  0.00  0.00    +0.000 C 
BRANCH   7  11
ATOM     11  C   UNL     1       6.560   4.116  15.949  0.00  0.00    +0.000 C 
BRANCH  11  17
ATOM     12  C   UNL     1       5.583   3.468  12.994  0.00  0.00    +0.000 C 
ATOM     13  N   UNL     1       6.635   4.365  13.397  0.00  0.00    +0.000 N 
ATOM     14  C   UNL     1       7.451   5.043  12.539  0.00  0.00    +0.000 A 
ATOM     15  N   UNL     1       8.296   5.769  13.223  0.00  0.00    +0.000 NA
ATOM     16  N   UNL     1       8.048   5.554  14.556  0.00  0.00    +0.000 NA
ATOM     17  C   UNL     1       7.054   4.696  14.662  0.00  0.00    +0.000 A 
ENDBRANCH  11  17
ENDBRANCH   7  11
ENDBRANCH   1   7
BRANCH   5  18
ATOM     18  N   UNL     1       2.025   7.238  18.873  0.00  0.00    +0.000 N 
ATOM     19  C   UNL     1       1.929   8.477  18.278  0.00  0.00    +0.000 C 
ATOM     20  O   UNL     1       2.402   8.814  17.196  0.00  0.00    +0.000 OA
ATOM     21  H   UNL     1       1.489   7.134  19.733  0.00  0.00    +0.000 HD
BRANCH  19  22
ATOM     22  C   UNL     1       1.118   9.469  19.034  0.00  0.00    +0.000 A 
ATOM     23  C   UNL     1       0.034  10.055  18.411  0.00  0.00    +0.000 A 
ATOM     24  C   UNL     1      -0.701  10.942  19.169  0.00  0.00    +0.000 A 
ATOM     25  N   UNL     1      -0.352  11.227  20.456  0.00  0.00    +0.000 NA
ATOM     26  C   UNL     1       0.723  10.601  20.961  0.00  0.00    +0.000 A 
ATOM     27  N   UNL     1       1.489   9.718  20.314  0.00  0.00    +0.000 NA
BRANCH  24  28
ATOM     28  C   UNL     1      -1.923  11.609  18.560  0.00  0.00    +0.000 C 
ATOM     29  F   UNL     1      -2.496  12.537  19.390  0.00  0.00    +0.000 F 
ATOM     30  F   UNL     1      -1.642  12.280  17.408  0.00  0.00    +0.000 F 
ATOM     31  F   UNL     1      -2.919  10.728  18.258  0.00  0.00    +0.000 F 
ENDBRANCH  24  28
ENDBRANCH  19  22
ENDBRANCH   5  18
TORSDOF 6
ENDMDL
MODEL 6
REMARK VINA RESULT:      -8.9      4.254      9.116
REMARK  Name = 
REMARK  7 active torsions:
REMARK  status: ('A' for Active; 'I' for Inactive)
REMARK    1  A    between atoms: C_1  and  N_2
REMARK    2  A    between atoms: C_6  and  C_7
REMARK    3  A    between atoms: C_7  and  C_8
REMARK    4  A    between atoms: C_8  and  C_9
REMARK    5  A    between atoms: C_13  and  N_14
REMARK    6  A    between atoms: C_15  and  C_17
REMARK    7  A    between atoms: C_19  and  C_20
REMARK                            x       y       z     vdW  Elec       q    Type
REMARK                         _______ _______ _______ _____ _____    ______ ____
ROOT
ATOM      1  C   UNL     1      -0.391  10.160  20.263  0.00  0.00    +0.000 A 
ATOM      2  C   UNL     1      -0.444  10.309  21.665  0.00  0.00    +0.000 A 
ATOM      3  C   UNL     1       0.403   9.603  22.513  0.00  0.00    +0.000 A 
ATOM      4  C   UNL     1       1.325   8.706  21.983  0.00  0.00    +0.000 A 
ATOM      5  C   UNL     1       1.413   8.519  20.606  0.00  0.00    +0.000 A 
ATOM      6  C   UNL     1       0.586   9.272  19.763  0.00  0.00    +0.000 A 
ENDROOT
BRANCH   1   7
ATOM      7  C   UNL     1      -1.400  10.961  19.295  0.00  0.00    +0.000 C 
ATOM      8  C   UNL     1      -2.081  12.259  19.862  0.00  0.00    +0.000 C 
ATOM      9  C   UNL     1      -1.020  13.110  19.153  0.00  0.00    +0.000 C 
ATOM     10  C   UNL     1      -0.707  11.916  18.246  0.00  0.00    +0.000 C 
BRANCH   7  11
ATOM     11  C   UNL     1      -2.358   9.969  18.597  0.00  0.00    +0.000 C 
BRANCH  11  17
ATOM     12  C   UNL     1      -4.786  11.740  17.563  0.00  0.00    +0.000 C 
ATOM     13  N   UNL     1      -3.798  11.053  16.772  0.00  0.00    +0.000 N 
ATOM     14  C   UNL     1      -3.794  10.995  15.410  0.00  0.00    +0.000 A 
ATOM     15  N   UNL     1      -2.766  10.296  15.005  0.00  0.00    +0.000 NA
ATOM     16  N   UNL     1      -2.087   9.869  16.119  0.00  0.00    +0.000 NA
ATOM     17  C   UNL     1      -2.717  10.315  17.188  0.00  0.00    +0.000 A 
ENDBRANCH  11  17
ENDBRANCH   7  11
ENDBRANCH   1   7
BRANCH   5  18
ATOM     18  N   UNL     1       2.274   7.583  20.007  0.00  0.00    +0.000 N 
ATOM     19  C   UNL     1       2.169   6.210  20.077  0.00  0.00    +0.000 C 
ATOM     20  O   UNL     1       1.353   5.566  20.729  0.00  0.00    +0.000 OA
ATOM     21  H   UNL     1       2.964   7.925  19.341  0.00  0.00    +0.000 HD
BRANCH  19  22
ATOM     22  C   UNL     1       3.133   5.468  19.220  0.00  0.00    +0.000 A 
ATOM     23  C   UNL     1       3.698   6.114  18.139  0.00  0.00    +0.000 A 
ATOM     24  C   UNL     1       4.609   5.390  17.401  0.00  0.00    +0.000 A 
ATOM     25  N   UNL     1       4.910   4.099  17.722  0.00  0.00    +0.000 NA
ATOM     26  C   UNL     1       4.299   3.568  18.793  0.00  0.00    +0.000 A 
ATOM     27  N   UNL     1       3.415   4.191  19.579  0.00  0.00    +0.000 NA
BRANCH  24  28
ATOM     28  C   UNL     1       5.291   6.043  16.210  0.00  0.00    +0.000 C 
ATOM     29  F   UNL     1       4.595   7.113  15.714  0.00  0.00    +0.000 F 
ATOM     30  F   UNL     1       6.531   6.525  16.509  0.00  0.00    +0.000 F 
ATOM     31  F   UNL     1       5.454   5.195  15.155  0.00  0.00    +0.000 F 
ENDBRANCH  24  28
ENDBRANCH  19  22
ENDBRANCH   5  18
TORSDOF 6
ENDMDL
MODEL 7
REMARK VINA RESULT:      -8.8      1.648      2.058
REMARK  Name = 
REMARK  7 active torsions:
REMARK  status: ('A' for Active; 'I' for Inactive)
REMARK    1  A    between atoms: C_1  and  N_2
REMARK    2  A    between atoms: C_6  and  C_7
REMARK    3  A    between atoms: C_7  and  C_8
REMARK    4  A    between atoms: C_8  and  C_9
REMARK    5  A    between atoms: C_13  and  N_14
REMARK    6  A    between atoms: C_15  and  C_17
REMARK    7  A    between atoms: C_19  and  C_20
REMARK                            x       y       z     vdW  Elec       q    Type
REMARK                         _______ _______ _______ _____ _____    ______ ____
ROOT
ATOM      1  C   UNL     1       4.652   5.030  17.495  0.00  0.00    +0.000 A 
ATOM      2  C   UNL     1       4.018   3.806  17.796  0.00  0.00    +0.000 A 
ATOM      3  C   UNL     1       2.729   3.753  18.317  0.00  0.00    +0.000 A 
ATOM      4  C   UNL     1       2.035   4.932  18.571  0.00  0.00    +0.000 A 
ATOM      5  C   UNL     1       2.620   6.165  18.296  0.00  0.00    +0.000 A 
ATOM      6  C   UNL     1       3.899   6.200  17.728  0.00  0.00    +0.000 A 
ENDROOT
BRANCH   1   7
ATOM      7  C   UNL     1       6.158   5.076  16.922  0.00  0.00    +0.000 C 
ATOM      8  C   UNL     1       6.816   6.488  16.707  0.00  0.00    +0.000 C 
ATOM      9  C   UNL     1       7.532   6.345  18.056  0.00  0.00    +0.000 C 
ATOM     10  C   UNL     1       7.291   4.833  17.992  0.00  0.00    +0.000 C 
BRANCH   7  11
ATOM     11  C   UNL     1       6.297   4.101  15.731  0.00  0.00    +0.000 C 
BRANCH  11  17
ATOM     12  C   UNL     1       5.704   3.407  12.686  0.00  0.00    +0.000 C 
ATOM     13  N   UNL     1       6.684   4.325  13.205  0.00  0.00    +0.000 N 
ATOM     14  C   UNL     1       7.590   5.006  12.447  0.00  0.00    +0.000 A 
ATOM     15  N   UNL     1       8.334   5.753  13.222  0.00  0.00    +0.000 NA
ATOM     16  N   UNL     1       7.926   5.547  14.516  0.00  0.00    +0.000 NA
ATOM     17  C   UNL     1       6.938   4.675  14.508  0.00  0.00    +0.000 A 
ENDBRANCH  11  17
ENDBRANCH   7  11
ENDBRANCH   1   7
BRANCH   5  18
ATOM     18  N   UNL     1       2.003   7.395  18.588  0.00  0.00    +0.000 N 
ATOM     19  C   UNL     1       1.615   7.842  19.833  0.00  0.00    +0.000 C 
ATOM     20  O   UNL     1       1.673   7.221  20.890  0.00  0.00    +0.000 OA
ATOM     21  H   UNL     1       1.954   8.094  17.849  0.00  0.00    +0.000 HD
BRANCH  19  22
ATOM     22  C   UNL     1       1.125   9.246  19.865  0.00  0.00    +0.000 A 
ATOM     23  C   UNL     1       0.386   9.668  20.953  0.00  0.00    +0.000 A 
ATOM     24  C   UNL     1      -0.014  10.987  20.945  0.00  0.00    +0.000 A 
ATOM     25  N   UNL     1       0.295  11.812  19.906  0.00  0.00    +0.000 NA
ATOM     26  C   UNL     1       1.016  11.296  18.898  0.00  0.00    +0.000 A 
ATOM     27  N   UNL     1       1.462  10.039  18.818  0.00  0.00    +0.000 NA
BRANCH  24  28
ATOM     28  C   UNL     1      -0.810  11.531  22.120  0.00  0.00    +0.000 C 
ATOM     29  F   UNL     1      -0.276  12.678  22.645  0.00  0.00    +0.000 F 
ATOM     30  F   UNL     1      -2.094  11.849  21.789  0.00  0.00    +0.000 F 
ATOM     31  F   UNL     1      -0.889  10.658  23.165  0.00  0.00    +0.000 F 
ENDBRANCH  24  28
ENDBRANCH  19  22
ENDBRANCH   5  18
TORSDOF 6
ENDMDL
MODEL 8
REMARK VINA RESULT:      -8.7      4.764     10.213
REMARK  Name = 
REMARK  7 active torsions:
REMARK  status: ('A' for Active; 'I' for Inactive)
REMARK    1  A    between atoms: C_1  and  N_2
REMARK    2  A    between atoms: C_6  and  C_7
REMARK    3  A    between atoms: C_7  and  C_8
REMARK    4  A    between atoms: C_8  and  C_9
REMARK    5  A    between atoms: C_13  and  N_14
REMARK    6  A    between atoms: C_15  and  C_17
REMARK    7  A    between atoms: C_19  and  C_20
REMARK                            x       y       z     vdW  Elec       q    Type
REMARK                         _______ _______ _______ _____ _____    ______ ____
ROOT
ATOM      1  C   UNL     1      -1.443  10.722  17.819  0.00  0.00    +0.000 A 
ATOM      2  C   UNL     1      -1.138  11.906  18.524  0.00  0.00    +0.000 A 
ATOM      3  C   UNL     1       0.104  12.111  19.116  0.00  0.00    +0.000 A 
ATOM      4  C   UNL     1       1.082  11.125  19.035  0.00  0.00    +0.000 A 
ATOM      5  C   UNL     1       0.828   9.937  18.355  0.00  0.00    +0.000 A 
ATOM      6  C   UNL     1      -0.411   9.765  17.725  0.00  0.00    +0.000 A 
ENDROOT
BRANCH   1   7
ATOM      7  C   UNL     1      -2.898  10.486  17.166  0.00  0.00    +0.000 C 
ATOM      8  C   UNL     1      -3.364  11.478  16.040  0.00  0.00    +0.000 C 
ATOM      9  C   UNL     1      -2.927  10.460  14.979  0.00  0.00    +0.000 C 
ATOM     10  C   UNL     1      -2.960   9.368  16.053  0.00  0.00    +0.000 C 
BRANCH   7  11
ATOM     11  C   UNL     1      -3.937  10.221  18.280  0.00  0.00    +0.000 C 
BRANCH  11  17
ATOM     12  C   UNL     1      -4.071  12.767  20.180  0.00  0.00    +0.000 C 
ATOM     13  N   UNL     1      -5.070  12.309  19.249  0.00  0.00    +0.000 N 
ATOM     14  C   UNL     1      -6.300  12.875  19.087  0.00  0.00    +0.000 A 
ATOM     15  N   UNL     1      -6.963  12.223  18.167  0.00  0.00    +0.000 NA
ATOM     16  N   UNL     1      -6.165  11.197  17.726  0.00  0.00    +0.000 NA
ATOM     17  C   UNL     1      -5.026  11.240  18.389  0.00  0.00    +0.000 A 
ENDBRANCH  11  17
ENDBRANCH   7  11
ENDBRANCH   1   7
BRANCH   5  18
ATOM     18  N   UNL     1       1.745   8.873  18.289  0.00  0.00    +0.000 N 
ATOM     19  C   UNL     1       2.024   7.970  19.292  0.00  0.00    +0.000 C 
ATOM     20  O   UNL     1       1.579   7.977  20.436  0.00  0.00    +0.000 OA
ATOM     21  H   UNL     1       2.149   8.644  17.383  0.00  0.00    +0.000 HD
BRANCH  19  22
ATOM     22  C   UNL     1       2.928   6.856  18.893  0.00  0.00    +0.000 A 
ATOM     23  C   UNL     1       3.592   6.939  17.685  0.00  0.00    +0.000 A 
ATOM     24  C   UNL     1       4.440   5.896  17.382  0.00  0.00    +0.000 A 
ATOM     25  N   UNL     1       4.592   4.839  18.230  0.00  0.00    +0.000 NA
ATOM     26  C   UNL     1       3.895   4.861  19.378  0.00  0.00    +0.000 A 
ATOM     27  N   UNL     1       3.060   5.829  19.768  0.00  0.00    +0.000 NA
BRANCH  24  28
ATOM     28  C   UNL     1       5.225   5.927  16.080  0.00  0.00    +0.000 C 
ATOM     29  F   UNL     1       4.869   6.970  15.265  0.00  0.00    +0.000 F 
ATOM     30  F   UNL     1       6.567   6.062  16.273  0.00  0.00    +0.000 F 
ATOM     31  F   UNL     1       5.056   4.804  15.326  0.00  0.00    +0.000 F 
ENDBRANCH  24  28
ENDBRANCH  19  22
ENDBRANCH   5  18
TORSDOF 6
ENDMDL
MODEL 9
REMARK VINA RESULT:      -8.7      1.465      2.946
REMARK  Name = 
REMARK  7 active torsions:
REMARK  status: ('A' for Active; 'I' for Inactive)
REMARK    1  A    between atoms: C_1  and  N_2
REMARK    2  A    between atoms: C_6  and  C_7
REMARK    3  A    between atoms: C_7  and  C_8
REMARK    4  A    between atoms: C_8  and  C_9
REMARK    5  A    between atoms: C_13  and  N_14
REMARK    6  A    between atoms: C_15  and  C_17
REMARK    7  A    between atoms: C_19  and  C_20
REMARK                            x       y       z     vdW  Elec       q    Type
REMARK                         _______ _______ _______ _____ _____    ______ ____
ROOT
ATOM      1  C   UNL     1       4.293   4.506  17.020  0.00  0.00    +0.000 A 
ATOM      2  C   UNL     1       3.516   3.352  17.254  0.00  0.00    +0.000 A 
ATOM      3  C   UNL     1       2.326   3.399  17.973  0.00  0.00    +0.000 A 
ATOM      4  C   UNL     1       1.880   4.607  18.499  0.00  0.00    +0.000 A 
ATOM      5  C   UNL     1       2.615   5.774  18.300  0.00  0.00    +0.000 A 
ATOM      6  C   UNL     1       3.786   5.718  17.535  0.00  0.00    +0.000 A 
ENDROOT
BRANCH   1   7
ATOM      7  C   UNL     1       5.685   4.430  16.212  0.00  0.00    +0.000 C 
ATOM      8  C   UNL     1       5.822   3.337  15.091  0.00  0.00    +0.000 C 
ATOM      9  C   UNL     1       5.481   4.396  14.035  0.00  0.00    +0.000 C 
ATOM     10  C   UNL     1       5.845   5.485  15.049  0.00  0.00    +0.000 C 
BRANCH   7  11
ATOM     11  C   UNL     1       6.871   4.508  17.201  0.00  0.00    +0.000 C 
BRANCH  11  17
ATOM     12  C   UNL     1       8.010   5.707  19.916  0.00  0.00    +0.000 C 
ATOM     13  N   UNL     1       7.849   6.382  18.654  0.00  0.00    +0.000 N 
ATOM     14  C   UNL     1       8.101   7.706  18.441  0.00  0.00    +0.000 A 
ATOM     15  N   UNL     1       7.855   8.002  17.191  0.00  0.00    +0.000 NA
ATOM     16  N   UNL     1       7.416   6.859  16.570  0.00  0.00    +0.000 NA
ATOM     17  C   UNL     1       7.399   5.883  17.456  0.00  0.00    +0.000 A 
ENDBRANCH  11  17
ENDBRANCH   7  11
ENDBRANCH   1   7
BRANCH   5  18
ATOM     18  N   UNL     1       2.259   7.015  18.858  0.00  0.00    +0.000 N 
ATOM     19  C   UNL     1       2.163   8.216  18.189  0.00  0.00    +0.000 C 
ATOM     20  O   UNL     1       2.437   8.428  17.011  0.00  0.00    +0.000 OA
ATOM     21  H   UNL     1       1.902   7.027  19.811  0.00  0.00    +0.000 HD
BRANCH  19  22
ATOM     22  C   UNL     1       1.619   9.339  19.000  0.00  0.00    +0.000 A 
ATOM     23  C   UNL     1       1.585  10.603  18.448  0.00  0.00    +0.000 A 
ATOM     24  C   UNL     1       1.041  11.598  19.231  0.00  0.00    +0.000 A 
ATOM     25  N   UNL     1       0.583  11.336  20.489  0.00  0.00    +0.000 NA
ATOM     26  C   UNL     1       0.669  10.069  20.927  0.00  0.00    +0.000 A 
ATOM     27  N   UNL     1       1.164   9.035  20.241  0.00  0.00    +0.000 NA
BRANCH  24  28
ATOM     28  C   UNL     1       0.946  13.012  18.682  0.00  0.00    +0.000 C 
ATOM     29  F   UNL     1       1.920  13.296  17.761  0.00  0.00    +0.000 F 
ATOM     30  F   UNL     1      -0.235  13.255  18.044  0.00  0.00    +0.000 F 
ATOM     31  F   UNL     1       1.066  13.971  19.644  0.00  0.00    +0.000 F 
ENDBRANCH  24  28
ENDBRANCH  19  22
ENDBRANCH   5  18
TORSDOF 6
ENDMDL
