MODEL 1
REMARK VINA RESULT:      -8.1      0.000      0.000
REMARK  Name = 
REMARK  9 active torsions:
REMARK  status: ('A' for Active; 'I' for Inactive)
REMARK    1  A    between atoms: C_1  and  C_2
REMARK    2  A    between atoms: C_2  and  C_3
REMARK    3  A    between atoms: C_7  and  S_8
REMARK    4  A    between atoms: S_8  and  N_11
REMARK    5  A    between atoms: N_11  and  C_12
REMARK    6  A    between atoms: C_12  and  C_13
REMARK    7  A    between atoms: C_12  and  C_20
REMARK    8  A    between atoms: C_13  and  C_14
REMARK    9  A    between atoms: C_20  and  O_22
REMARK                            x       y       z     vdW  Elec       q    Type
REMARK                         _______ _______ _______ _____ _____    ______ ____
ROOT
ATOM      1  S   UNL     1       2.276   4.986  19.931  0.00  0.00    +0.000 S 
ATOM      2  O   UNL     1       2.407   4.814  21.360  0.00  0.00    +0.000 OA
ATOM      3  O   UNL     1       1.239   4.327  19.175  0.00  0.00    +0.000 OA
ENDROOT
BRANCH   1  10
ATOM      4  C   UNL     1      -1.079  11.236  19.551  0.00  0.00    +0.000 C 
ATOM      5  C   UNL     1       0.389  10.974  19.901  0.00  0.00    +0.000 C 
ATOM      6  C   UNL     1       1.063  12.260  20.378  0.00  0.00    +0.000 C 
ATOM      7  C   UNL     1       0.510   9.854  20.961  0.00  0.00    +0.000 C 
ATOM      8  C   UNL     1       1.256   8.836  20.193  0.00  0.00    +0.000 A 
ATOM      9  C   UNL     1       1.595   7.552  20.572  0.00  0.00    +0.000 A 
ATOM     10  C   UNL     1       2.167   6.729  19.597  0.00  0.00    +0.000 A 
ATOM     11  C   UNL     1       2.497   7.216  18.318  0.00  0.00    +0.000 A 
ATOM     12  C   UNL     1       2.174   8.527  17.975  0.00  0.00    +0.000 A 
ATOM     13  C   UNL     1       1.530   9.303  18.920  0.00  0.00    +0.000 A 
ATOM     14  O   UNL     1       1.065  10.563  18.677  0.00  0.00    +0.000 OA
ENDBRANCH   1  10
BRANCH   1  15
ATOM     15  N   UNL     1       3.724   4.582  19.219  0.00  0.00    +0.000 NA
ATOM     16  H   UNL     1       4.546   4.675  19.827  0.00  0.00    +0.000 HD
BRANCH  15  17
ATOM     17  C   UNL     1       3.860   3.583  18.124  0.00  0.00    +0.000 C 
BRANCH  17  18
ATOM     18  C   UNL     1       4.072   2.210  18.789  0.00  0.00    +0.000 C 
ATOM     19  O   UNL     1       3.473   1.200  18.432  0.00  0.00    +0.000 OA
BRANCH  18  20
ATOM     20  O   UNL     1       5.047   2.148  19.723  0.00  0.00    +0.000 OA
ATOM     21  H   UNL     1       5.877   1.712  19.462  0.00  0.00    +0.000 HD
ENDBRANCH  18  20
ENDBRANCH  17  18
BRANCH  17  22
ATOM     22  C   UNL     1       4.913   3.946  17.069  0.00  0.00    +0.000 C 
BRANCH  22  23
ATOM     23  C   UNL     1       5.917   5.040  17.342  0.00  0.00    +0.000 A 
ATOM     24  C   UNL     1       5.826   6.336  16.823  0.00  0.00    +0.000 A 
ATOM     25  C   UNL     1       6.710   7.331  17.243  0.00  0.00    +0.000 A 
ATOM     26  C   UNL     1       7.719   7.036  18.156  0.00  0.00    +0.000 A 
ATOM     27  C   UNL     1       7.880   5.732  18.610  0.00  0.00    +0.000 A 
ATOM     28  C   UNL     1       6.993   4.739  18.196  0.00  0.00    +0.000 A 
ENDBRANCH  22  23
ENDBRANCH  17  22
ENDBRANCH  15  17
ENDBRANCH   1  15
TORSDOF 7
ENDMDL
MODEL 2
REMARK VINA RESULT:      -8.0      0.454      1.192
REMARK  Name = 
REMARK  9 active torsions:
REMARK  status: ('A' for Active; 'I' for Inactive)
REMARK    1  A    between atoms: C_1  and  C_2
REMARK    2  A    between atoms: C_2  and  C_3
REMARK    3  A    between atoms: C_7  and  S_8
REMARK    4  A    between atoms: S_8  and  N_11
REMARK    5  A    between atoms: N_11  and  C_12
REMARK    6  A    between atoms: C_12  and  C_13
REMARK    7  A    between atoms: C_12  and  C_20
REMARK    8  A    between atoms: C_13  and  C_14
REMARK    9  A    between atoms: C_20  and  O_22
REMARK                            x       y       z     vdW  Elec       q    Type
REMARK                         _______ _______ _______ _____ _____    ______ ____
ROOT
ATOM      1  S   UNL     1       2.144   4.678  20.211  0.00  0.00    +0.000 S 
ATOM      2  O   UNL     1       2.134   4.513  21.647  0.00  0.00    +0.000 OA
ATOM      3  O   UNL     1       1.170   4.038  19.362  0.00  0.00    +0.000 OA
ENDROOT
BRANCH   1  10
ATOM      4  C   UNL     1      -0.969  11.043  19.695  0.00  0.00    +0.000 C 
ATOM      5  C   UNL     1       0.479  10.731  20.085  0.00  0.00    +0.000 C 
ATOM      6  C   UNL     1       1.187  11.995  20.570  0.00  0.00    +0.000 C 
ATOM      7  C   UNL     1       0.532   9.617  21.157  0.00  0.00    +0.000 C 
ATOM      8  C   UNL     1       1.259   8.566  20.416  0.00  0.00    +0.000 A 
ATOM      9  C   UNL     1       1.541   7.273  20.815  0.00  0.00    +0.000 A 
ATOM     10  C   UNL     1       2.108   6.421  19.861  0.00  0.00    +0.000 A 
ATOM     11  C   UNL     1       2.488   6.885  18.588  0.00  0.00    +0.000 A 
ATOM     12  C   UNL     1       2.223   8.204  18.226  0.00  0.00    +0.000 A 
ATOM     13  C   UNL     1       1.583   9.010  19.147  0.00  0.00    +0.000 A 
ATOM     14  O   UNL     1       1.170  10.284  18.883  0.00  0.00    +0.000 OA
ENDBRANCH   1  10
BRANCH   1  15
ATOM     15  N   UNL     1       3.645   4.237  19.644  0.00  0.00    +0.000 NA
ATOM     16  H   UNL     1       4.401   4.287  20.336  0.00  0.00    +0.000 HD
BRANCH  15  17
ATOM     17  C   UNL     1       3.860   3.259  18.543  0.00  0.00    +0.000 C 
BRANCH  17  18
ATOM     18  C   UNL     1       4.396   1.966  19.188  0.00  0.00    +0.000 C 
ATOM     19  O   UNL     1       4.854   1.933  20.326  0.00  0.00    +0.000 OA
BRANCH  18  20
ATOM     20  O   UNL     1       4.229   0.833  18.470  0.00  0.00    +0.000 OA
ATOM     21  H   UNL     1       5.014   0.270  18.351  0.00  0.00    +0.000 HD
ENDBRANCH  18  20
ENDBRANCH  17  18
BRANCH  17  22
ATOM     22  C   UNL     1       4.716   3.792  17.387  0.00  0.00    +0.000 C 
BRANCH  22  23
ATOM     23  C   UNL     1       5.661   4.948  17.611  0.00  0.00    +0.000 A 
ATOM     24  C   UNL     1       6.758   4.907  18.477  0.00  0.00    +0.000 A 
ATOM     25  C   UNL     1       7.670   5.964  18.515  0.00  0.00    +0.000 A 
ATOM     26  C   UNL     1       7.476   7.090  17.718  0.00  0.00    +0.000 A 
ATOM     27  C   UNL     1       6.341   7.185  16.921  0.00  0.00    +0.000 A 
ATOM     28  C   UNL     1       5.433   6.126  16.877  0.00  0.00    +0.000 A 
ENDBRANCH  22  23
ENDBRANCH  17  22
ENDBRANCH  15  17
ENDBRANCH   1  15
TORSDOF 7
ENDMDL
MODEL 3
REMARK VINA RESULT:      -7.7      2.691      4.264
REMARK  Name = 
REMARK  9 active torsions:
REMARK  status: ('A' for Active; 'I' for Inactive)
REMARK    1  A    between atoms: C_1  and  C_2
REMARK    2  A    between atoms: C_2  and  C_3
REMARK    3  A    between atoms: C_7  and  S_8
REMARK    4  A    between atoms: S_8  and  N_11
REMARK    5  A    between atoms: N_11  and  C_12
REMARK    6  A    between atoms: C_12  and  C_13
REMARK    7  A    between atoms: C_12  and  C_20
REMARK    8  A    between atoms: C_13  and  C_14
REMARK    9  A    between atoms: C_20  and  O_22
REMARK                            x       y       z     vdW  Elec       q    Type
REMARK                         _______ _______ _______ _____ _____    ______ ____
ROOT
ATOM      1  S   UNL     1       5.214   6.726  17.087  0.00  0.00    +0.000 S 
ATOM      2  O   UNL     1       4.875   6.328  15.738  0.00  0.00    +0.000 OA
ATOM      3  O   UNL     1       6.203   7.739  17.358  0.00  0.00    +0.000 OA
ENDROOT
BRANCH   1  10
ATOM      4  C   UNL     1       0.930  11.258  20.489  0.00  0.00    +0.000 C 
ATOM      5  C   UNL     1       0.538  10.126  19.534  0.00  0.00    +0.000 C 
ATOM      6  C   UNL     1      -0.955  10.190  19.213  0.00  0.00    +0.000 C 
ATOM      7  C   UNL     1       1.388  10.176  18.243  0.00  0.00    +0.000 C 
ATOM      8  C   UNL     1       2.098   8.884  18.338  0.00  0.00    +0.000 A 
ATOM      9  C   UNL     1       3.085   8.384  17.512  0.00  0.00    +0.000 A 
ATOM     10  C   UNL     1       3.711   7.199  17.912  0.00  0.00    +0.000 A 
ATOM     11  C   UNL     1       3.278   6.477  19.040  0.00  0.00    +0.000 A 
ATOM     12  C   UNL     1       2.256   6.989  19.835  0.00  0.00    +0.000 A 
ATOM     13  C   UNL     1       1.706   8.205  19.478  0.00  0.00    +0.000 A 
ATOM     14  O   UNL     1       0.775   8.866  20.226  0.00  0.00    +0.000 OA
ENDBRANCH   1  10
BRANCH   1  15
ATOM     15  N   UNL     1       5.667   5.368  17.934  0.00  0.00    +0.000 NA
ATOM     16  H   UNL     1       5.481   5.405  18.943  0.00  0.00    +0.000 HD
BRANCH  15  17
ATOM     17  C   UNL     1       5.704   3.999  17.350  0.00  0.00    +0.000 C 
BRANCH  17  18
ATOM     18  C   UNL     1       6.658   4.051  16.141  0.00  0.00    +0.000 C 
ATOM     19  O   UNL     1       7.815   4.454  16.226  0.00  0.00    +0.000 OA
BRANCH  18  20
ATOM     20  O   UNL     1       6.188   3.517  14.992  0.00  0.00    +0.000 OA
ATOM     21  H   UNL     1       6.390   2.578  14.831  0.00  0.00    +0.000 HD
ENDBRANCH  18  20
ENDBRANCH  17  18
BRANCH  17  22
ATOM     22  C   UNL     1       4.322   3.410  17.041  0.00  0.00    +0.000 C 
BRANCH  22  23
ATOM     23  C   UNL     1       3.358   3.106  18.163  0.00  0.00    +0.000 A 
ATOM     24  C   UNL     1       3.748   2.795  19.470  0.00  0.00    +0.000 A 
ATOM     25  C   UNL     1       2.795   2.675  20.484  0.00  0.00    +0.000 A 
ATOM     26  C   UNL     1       1.441   2.823  20.198  0.00  0.00    +0.000 A 
ATOM     27  C   UNL     1       1.031   3.040  18.887  0.00  0.00    +0.000 A 
ATOM     28  C   UNL     1       1.983   3.168  17.875  0.00  0.00    +0.000 A 
ENDBRANCH  22  23
ENDBRANCH  17  22
ENDBRANCH  15  17
ENDBRANCH   1  15
TORSDOF 7
ENDMDL
MODEL 4
REMARK VINA RESULT:      -7.7      2.414      4.034
REMARK  Name = 
REMARK  9 active torsions:
REMARK  status: ('A' for Active; 'I' for Inactive)
REMARK    1  A    between atoms: C_1  and  C_2
REMARK    2  A    between atoms: C_2  and  C_3
REMARK    3  A    between atoms: C_7  and  S_8
REMARK    4  A    between atoms: S_8  and  N_11
REMARK    5  A    between atoms: N_11  and  C_12
REMARK    6  A    between atoms: C_12  and  C_13
REMARK    7  A    between atoms: C_12  and  C_20
REMARK    8  A    between atoms: C_13  and  C_14
REMARK    9  A    between atoms: C_20  and  O_22
REMARK                            x       y       z     vdW  Elec       q    Type
REMARK                         _______ _______ _______ _____ _____    ______ ____
ROOT
ATOM      1  S   UNL     1       4.355   6.403  17.570  0.00  0.00    +0.000 S 
ATOM      2  O   UNL     1       3.803   5.452  16.630  0.00  0.00    +0.000 OA
ATOM      3  O   UNL     1       5.281   7.430  17.162  0.00  0.00    +0.000 OA
ENDROOT
BRANCH   1  10
ATOM      4  C   UNL     1       0.988  11.930  20.499  0.00  0.00    +0.000 C 
ATOM      5  C   UNL     1       0.375  10.738  19.757  0.00  0.00    +0.000 C 
ATOM      6  C   UNL     1      -1.119  10.963  19.526  0.00  0.00    +0.000 C 
ATOM      7  C   UNL     1       1.113  10.483  18.421  0.00  0.00    +0.000 C 
ATOM      8  C   UNL     1       1.657   9.132  18.670  0.00  0.00    +0.000 A 
ATOM      9  C   UNL     1       2.499   8.385  17.869  0.00  0.00    +0.000 A 
ATOM     10  C   UNL     1       3.000   7.194  18.406  0.00  0.00    +0.000 A 
ATOM     11  C   UNL     1       2.574   6.710  19.657  0.00  0.00    +0.000 A 
ATOM     12  C   UNL     1       1.696   7.469  20.428  0.00  0.00    +0.000 A 
ATOM     13  C   UNL     1       1.278   8.685  19.923  0.00  0.00    +0.000 A 
ATOM     14  O   UNL     1       0.507   9.571  20.619  0.00  0.00    +0.000 OA
ENDBRANCH   1  10
BRANCH   1  15
ATOM     15  N   UNL     1       5.082   5.556  18.804  0.00  0.00    +0.000 NA
ATOM     16  H   UNL     1       4.742   5.785  19.745  0.00  0.00    +0.000 HD
BRANCH  15  17
ATOM     17  C   UNL     1       5.644   4.186  18.651  0.00  0.00    +0.000 C 
BRANCH  17  18
ATOM     18  C   UNL     1       6.669   4.244  17.503  0.00  0.00    +0.000 C 
ATOM     19  O   UNL     1       7.811   4.668  17.654  0.00  0.00    +0.000 OA
BRANCH  18  20
ATOM     20  O   UNL     1       6.280   3.693  16.332  0.00  0.00    +0.000 OA
ATOM     21  H   UNL     1       6.985   3.382  15.738  0.00  0.00    +0.000 HD
ENDBRANCH  18  20
ENDBRANCH  17  18
BRANCH  17  22
ATOM     22  C   UNL     1       4.585   3.086  18.500  0.00  0.00    +0.000 C 
BRANCH  22  23
ATOM     23  C   UNL     1       3.326   3.124  19.334  0.00  0.00    +0.000 A 
ATOM     24  C   UNL     1       2.040   3.276  18.805  0.00  0.00    +0.000 A 
ATOM     25  C   UNL     1       0.917   3.150  19.626  0.00  0.00    +0.000 A 
ATOM     26  C   UNL     1       1.066   2.910  20.989  0.00  0.00    +0.000 A 
ATOM     27  C   UNL     1       2.339   2.849  21.546  0.00  0.00    +0.000 A 
ATOM     28  C   UNL     1       3.461   2.968  20.725  0.00  0.00    +0.000 A 
ENDBRANCH  22  23
ENDBRANCH  17  22
ENDBRANCH  15  17
ENDBRANCH   1  15
TORSDOF 7
ENDMDL
MODEL 5
REMARK VINA RESULT:      -7.6      2.527      3.462
REMARK  Name = 
REMARK  9 active torsions:
REMARK  status: ('A' for Active; 'I' for Inactive)
REMARK    1  A    between atoms: C_1  and  C_2
REMARK    2  A    between atoms: C_2  and  C_3
REMARK    3  A    between atoms: C_7  and  S_8
REMARK    4  A    between atoms: S_8  and  N_11
REMARK    5  A    between atoms: N_11  and  C_12
REMARK    6  A    between atoms: C_12  and  C_13
REMARK    7  A    between atoms: C_12  and  C_20
REMARK    8  A    between atoms: C_13  and  C_14
REMARK    9  A    between atoms: C_20  and  O_22
REMARK                            x       y       z     vdW  Elec       q    Type
REMARK                         _______ _______ _______ _____ _____    ______ ____
ROOT
ATOM      1  S   UNL     1       3.500   5.032  18.747  0.00  0.00    +0.000 S 
ATOM      2  O   UNL     1       3.976   4.462  19.989  0.00  0.00    +0.000 OA
ATOM      3  O   UNL     1       2.803   4.241  17.763  0.00  0.00    +0.000 OA
ENDROOT
BRANCH   1  10
ATOM      4  C   UNL     1       1.995  11.964  19.120  0.00  0.00    +0.000 C 
ATOM      5  C   UNL     1       1.028  10.801  18.878  0.00  0.00    +0.000 C 
ATOM      6  C   UNL     1      -0.359  11.327  18.510  0.00  0.00    +0.000 C 
ATOM      7  C   UNL     1       1.572   9.852  17.784  0.00  0.00    +0.000 C 
ATOM      8  C   UNL     1       1.740   8.610  18.566  0.00  0.00    +0.000 A 
ATOM      9  C   UNL     1       2.287   7.408  18.161  0.00  0.00    +0.000 A 
ATOM     10  C   UNL     1       2.477   6.431  19.144  0.00  0.00    +0.000 A 
ATOM     11  C   UNL     1       2.023   6.610  20.465  0.00  0.00    +0.000 A 
ATOM     12  C   UNL     1       1.444   7.822  20.836  0.00  0.00    +0.000 A 
ATOM     13  C   UNL     1       1.342   8.810  19.876  0.00  0.00    +0.000 A 
ATOM     14  O   UNL     1       0.894  10.074  20.133  0.00  0.00    +0.000 OA
ENDBRANCH   1  10
BRANCH   1  15
ATOM     15  N   UNL     1       4.787   5.746  17.972  0.00  0.00    +0.000 NA
ATOM     16  H   UNL     1       5.220   6.525  18.480  0.00  0.00    +0.000 HD
BRANCH  15  17
ATOM     17  C   UNL     1       5.688   5.030  17.028  0.00  0.00    +0.000 C 
BRANCH  17  18
ATOM     18  C   UNL     1       6.973   4.686  17.805  0.00  0.00    +0.000 C 
ATOM     19  O   UNL     1       8.016   4.352  17.248  0.00  0.00    +0.000 OA
BRANCH  18  20
ATOM     20  O   UNL     1       6.928   4.880  19.141  0.00  0.00    +0.000 OA
ATOM     21  H   UNL     1       6.840   4.086  19.697  0.00  0.00    +0.000 HD
ENDBRANCH  18  20
ENDBRANCH  17  18
BRANCH  17  22
ATOM     22  C   UNL     1       5.926   5.768  15.704  0.00  0.00    +0.000 C 
BRANCH  22  23
ATOM     23  C   UNL     1       6.257   4.993  14.451  0.00  0.00    +0.000 A 
ATOM     24  C   UNL     1       5.455   3.977  13.922  0.00  0.00    +0.000 A 
ATOM     25  C   UNL     1       5.753   3.413  12.681  0.00  0.00    +0.000 A 
ATOM     26  C   UNL     1       6.876   3.828  11.971  0.00  0.00    +0.000 A 
ATOM     27  C   UNL     1       7.735   4.771  12.525  0.00  0.00    +0.000 A 
ATOM     28  C   UNL     1       7.433   5.340  13.763  0.00  0.00    +0.000 A 
ENDBRANCH  22  23
ENDBRANCH  17  22
ENDBRANCH  15  17
ENDBRANCH   1  15
TORSDOF 7
ENDMDL
MODEL 6
REMARK VINA RESULT:      -7.6      0.879      1.517
REMARK  Name = 
REMARK  9 active torsions:
REMARK  status: ('A' for Active; 'I' for Inactive)
REMARK    1  A    between atoms: C_1  and  C_2
REMARK    2  A    between atoms: C_2  and  C_3
REMARK    3  A    between atoms: C_7  and  S_8
REMARK    4  A    between atoms: S_8  and  N_11
REMARK    5  A    between atoms: N_11  and  C_12
REMARK    6  A    between atoms: C_12  and  C_13
REMARK    7  A    between atoms: C_12  and  C_20
REMARK    8  A    between atoms: C_13  and  C_14
REMARK    9  A    between atoms: C_20  and  O_22
REMARK                            x       y       z     vdW  Elec       q    Type
REMARK                         _______ _______ _______ _____ _____    ______ ____
ROOT
ATOM      1  S   UNL     1       2.060   4.715  20.358  0.00  0.00    +0.000 S 
ATOM      2  O   UNL     1       2.337   4.608  21.773  0.00  0.00    +0.000 OA
ATOM      3  O   UNL     1       0.891   4.116  19.762  0.00  0.00    +0.000 OA
ENDROOT
BRANCH   1  10
ATOM      4  C   UNL     1      -0.931  11.087  19.400  0.00  0.00    +0.000 C 
ATOM      5  C   UNL     1       0.492  10.775  19.875  0.00  0.00    +0.000 C 
ATOM      6  C   UNL     1       1.193  12.051  20.337  0.00  0.00    +0.000 C 
ATOM      7  C   UNL     1       0.475   9.711  20.998  0.00  0.00    +0.000 C 
ATOM      8  C   UNL     1       1.223   8.618  20.343  0.00  0.00    +0.000 A 
ATOM      9  C   UNL     1       1.466   7.342  20.813  0.00  0.00    +0.000 A 
ATOM     10  C   UNL     1       2.066   6.440  19.928  0.00  0.00    +0.000 A 
ATOM     11  C   UNL     1       2.515   6.839  18.655  0.00  0.00    +0.000 A 
ATOM     12  C   UNL     1       2.287   8.143  18.221  0.00  0.00    +0.000 A 
ATOM     13  C   UNL     1       1.615   9.000  19.072  0.00  0.00    +0.000 A 
ATOM     14  O   UNL     1       1.234  10.265  18.730  0.00  0.00    +0.000 OA
ENDBRANCH   1  10
BRANCH   1  15
ATOM     15  N   UNL     1       3.378   4.139  19.522  0.00  0.00    +0.000 NA
ATOM     16  H   UNL     1       4.281   4.275  19.990  0.00  0.00    +0.000 HD
BRANCH  15  17
ATOM     17  C   UNL     1       3.324   2.990  18.578  0.00  0.00    +0.000 C 
BRANCH  17  18
ATOM     18  C   UNL     1       4.254   1.898  19.142  0.00  0.00    +0.000 C 
ATOM     19  O   UNL     1       4.870   2.032  20.195  0.00  0.00    +0.000 OA
BRANCH  18  20
ATOM     20  O   UNL     1       4.269   0.727  18.469  0.00  0.00    +0.000 OA
ATOM     21  H   UNL     1       5.016   0.128  18.647  0.00  0.00    +0.000 HD
ENDBRANCH  18  20
ENDBRANCH  17  18
BRANCH  17  22
ATOM     22  C   UNL     1       3.600   3.363  17.116  0.00  0.00    +0.000 C 
BRANCH  22  23
ATOM     23  C   UNL     1       4.854   4.120  16.748  0.00  0.00    +0.000 A 
ATOM     24  C   UNL     1       5.602   4.883  17.650  0.00  0.00    +0.000 A 
ATOM     25  C   UNL     1       6.830   5.428  17.269  0.00  0.00    +0.000 A 
ATOM     26  C   UNL     1       7.306   5.252  15.972  0.00  0.00    +0.000 A 
ATOM     27  C   UNL     1       6.530   4.575  15.037  0.00  0.00    +0.000 A 
ATOM     28  C   UNL     1       5.307   4.024  15.420  0.00  0.00    +0.000 A 
ENDBRANCH  22  23
ENDBRANCH  17  22
ENDBRANCH  15  17
ENDBRANCH   1  15
TORSDOF 7
ENDMDL
MODEL 7
REMARK VINA RESULT:      -7.6      1.608      1.960
REMARK  Name = 
REMARK  9 active torsions:
REMARK  status: ('A' for Active; 'I' for Inactive)
REMARK    1  A    between atoms: C_1  and  C_2
REMARK    2  A    between atoms: C_2  and  C_3
REMARK    3  A    between atoms: C_7  and  S_8
REMARK    4  A    between atoms: S_8  and  N_11
REMARK    5  A    between atoms: N_11  and  C_12
REMARK    6  A    between atoms: C_12  and  C_13
REMARK    7  A    between atoms: C_12  and  C_20
REMARK    8  A    between atoms: C_13  and  C_14
REMARK    9  A    between atoms: C_20  and  O_22
REMARK                            x       y       z     vdW  Elec       q    Type
REMARK                         _______ _______ _______ _____ _____    ______ ____
ROOT
ATOM      1  S   UNL     1       2.480   5.495  19.736  0.00  0.00    +0.000 S 
ATOM      2  O   UNL     1       3.908   5.285  19.822  0.00  0.00    +0.000 OA
ATOM      3  O   UNL     1       1.580   5.057  20.774  0.00  0.00    +0.000 OA
ENDROOT
BRANCH   1  10
ATOM      4  C   UNL     1      -1.478  11.393  19.601  0.00  0.00    +0.000 C 
ATOM      5  C   UNL     1       0.012  11.264  19.937  0.00  0.00    +0.000 C 
ATOM      6  C   UNL     1       0.558  12.592  20.460  0.00  0.00    +0.000 C 
ATOM      7  C   UNL     1       0.250  10.123  20.954  0.00  0.00    +0.000 C 
ATOM      8  C   UNL     1       1.087   9.213  20.146  0.00  0.00    +0.000 A 
ATOM      9  C   UNL     1       1.554   7.956  20.476  0.00  0.00    +0.000 A 
ATOM     10  C   UNL     1       2.197   7.230  19.468  0.00  0.00    +0.000 A 
ATOM     11  C   UNL     1       2.469   7.794  18.207  0.00  0.00    +0.000 A 
ATOM     12  C   UNL     1       2.016   9.079  17.915  0.00  0.00    +0.000 A 
ATOM     13  C   UNL     1       1.305   9.751  18.890  0.00  0.00    +0.000 A 
ATOM     14  O   UNL     1       0.716  10.967  18.696  0.00  0.00    +0.000 OA
ENDBRANCH   1  10
BRANCH   1  15
ATOM     15  N   UNL     1       1.938   4.827  18.312  0.00  0.00    +0.000 NA
ATOM     16  H   UNL     1       1.584   5.502  17.624  0.00  0.00    +0.000 HD
BRANCH  15  17
ATOM     17  C   UNL     1       2.463   3.558  17.738  0.00  0.00    +0.000 C 
BRANCH  17  18
ATOM     18  C   UNL     1       1.778   2.403  18.494  0.00  0.00    +0.000 C 
ATOM     19  O   UNL     1       0.611   2.457  18.870  0.00  0.00    +0.000 OA
BRANCH  18  20
ATOM     20  O   UNL     1       2.501   1.270  18.624  0.00  0.00    +0.000 OA
ATOM     21  H   UNL     1       2.029   0.484  18.954  0.00  0.00    +0.000 HD
ENDBRANCH  18  20
ENDBRANCH  17  18
BRANCH  17  22
ATOM     22  C   UNL     1       3.994   3.472  17.701  0.00  0.00    +0.000 C 
BRANCH  22  23
ATOM     23  C   UNL     1       4.769   4.168  16.608  0.00  0.00    +0.000 A 
ATOM     24  C   UNL     1       4.836   5.556  16.457  0.00  0.00    +0.000 A 
ATOM     25  C   UNL     1       5.694   6.125  15.513  0.00  0.00    +0.000 A 
ATOM     26  C   UNL     1       6.464   5.315  14.683  0.00  0.00    +0.000 A 
ATOM     27  C   UNL     1       6.339   3.932  14.758  0.00  0.00    +0.000 A 
ATOM     28  C   UNL     1       5.488   3.363  15.706  0.00  0.00    +0.000 A 
ENDBRANCH  22  23
ENDBRANCH  17  22
ENDBRANCH  15  17
ENDBRANCH   1  15
TORSDOF 7
ENDMDL
MODEL 8
REMARK VINA RESULT:      -7.5      2.644      4.305
REMARK  Name = 
REMARK  9 active torsions:
REMARK  status: ('A' for Active; 'I' for Inactive)
REMARK    1  A    between atoms: C_1  and  C_2
REMARK    2  A    between atoms: C_2  and  C_3
REMARK    3  A    between atoms: C_7  and  S_8
REMARK    4  A    between atoms: S_8  and  N_11
REMARK    5  A    between atoms: N_11  and  C_12
REMARK    6  A    between atoms: C_12  and  C_13
REMARK    7  A    between atoms: C_12  and  C_20
REMARK    8  A    between atoms: C_13  and  C_14
REMARK    9  A    between atoms: C_20  and  O_22
REMARK                            x       y       z     vdW  Elec       q    Type
REMARK                         _______ _______ _______ _____ _____    ______ ____
ROOT
ATOM      1  S   UNL     1       4.980   6.704  17.023  0.00  0.00    +0.000 S 
ATOM      2  O   UNL     1       4.710   6.775  15.604  0.00  0.00    +0.000 OA
ATOM      3  O   UNL     1       6.112   7.368  17.620  0.00  0.00    +0.000 OA
ENDROOT
BRANCH   1  10
ATOM      4  C   UNL     1       0.956  11.427  20.482  0.00  0.00    +0.000 C 
ATOM      5  C   UNL     1       0.497  10.296  19.556  0.00  0.00    +0.000 C 
ATOM      6  C   UNL     1      -1.002  10.408  19.278  0.00  0.00    +0.000 C 
ATOM      7  C   UNL     1       1.309  10.300  18.239  0.00  0.00    +0.000 C 
ATOM      8  C   UNL     1       1.977   8.985  18.333  0.00  0.00    +0.000 A 
ATOM      9  C   UNL     1       2.922   8.440  17.486  0.00  0.00    +0.000 A 
ATOM     10  C   UNL     1       3.519   7.239  17.885  0.00  0.00    +0.000 A 
ATOM     11  C   UNL     1       3.096   6.549  19.036  0.00  0.00    +0.000 A 
ATOM     12  C   UNL     1       2.115   7.107  19.853  0.00  0.00    +0.000 A 
ATOM     13  C   UNL     1       1.596   8.336  19.494  0.00  0.00    +0.000 A 
ATOM     14  O   UNL     1       0.712   9.039  20.260  0.00  0.00    +0.000 OA
ENDBRANCH   1  10
BRANCH   1  15
ATOM     15  N   UNL     1       5.075   5.100  17.458  0.00  0.00    +0.000 NA
ATOM     16  H   UNL     1       5.329   4.460  16.698  0.00  0.00    +0.000 HD
BRANCH  15  17
ATOM     17  C   UNL     1       5.436   4.632  18.824  0.00  0.00    +0.000 C 
BRANCH  17  18
ATOM     18  C   UNL     1       6.966   4.756  18.954  0.00  0.00    +0.000 C 
ATOM     19  O   UNL     1       7.741   4.333  18.101  0.00  0.00    +0.000 OA
BRANCH  18  20
ATOM     20  O   UNL     1       7.416   5.463  20.014  0.00  0.00    +0.000 OA
ATOM     21  H   UNL     1       6.742   5.859  20.595  0.00  0.00    +0.000 HD
ENDBRANCH  18  20
ENDBRANCH  17  18
BRANCH  17  22
ATOM     22  C   UNL     1       4.880   3.248  19.181  0.00  0.00    +0.000 C 
BRANCH  22  23
ATOM     23  C   UNL     1       3.412   3.076  19.494  0.00  0.00    +0.000 A 
ATOM     24  C   UNL     1       2.863   3.199  20.774  0.00  0.00    +0.000 A 
ATOM     25  C   UNL     1       1.479   3.175  20.956  0.00  0.00    +0.000 A 
ATOM     26  C   UNL     1       0.629   2.989  19.870  0.00  0.00    +0.000 A 
ATOM     27  C   UNL     1       1.163   2.773  18.604  0.00  0.00    +0.000 A 
ATOM     28  C   UNL     1       2.545   2.804  18.420  0.00  0.00    +0.000 A 
ENDBRANCH  22  23
ENDBRANCH  17  22
ENDBRANCH  15  17
ENDBRANCH   1  15
TORSDOF 7
ENDMDL
MODEL 9
REMARK VINA RESULT:      -7.5      0.806      1.085
REMARK  Name = 
REMARK  9 active torsions:
REMARK  status: ('A' for Active; 'I' for Inactive)
REMARK    1  A    between atoms: C_1  and  C_2
REMARK    2  A    between atoms: C_2  and  C_3
REMARK    3  A    between atoms: C_7  and  S_8
REMARK    4  A    between atoms: S_8  and  N_11
REMARK    5  A    between atoms: N_11  and  C_12
REMARK    6  A    between atoms: C_12  and  C_13
REMARK    7  A    between atoms: C_12  and  C_20
REMARK    8  A    between atoms: C_13  and  C_14
REMARK    9  A    between atoms: C_20  and  O_22
REMARK                            x       y       z     vdW  Elec       q    Type
REMARK                         _______ _______ _______ _____ _____    ______ ____
ROOT
ATOM      1  S   UNL     1       2.262   5.267  19.680  0.00  0.00    +0.000 S 
ATOM      2  O   UNL     1       1.720   4.980  20.990  0.00  0.00    +0.000 OA
ATOM      3  O   UNL     1       1.775   4.610  18.492  0.00  0.00    +0.000 OA
ENDROOT
BRANCH   1  10
ATOM      4  C   UNL     1      -1.098  11.526  19.563  0.00  0.00    +0.000 C 
ATOM      5  C   UNL     1       0.373  11.251  19.893  0.00  0.00    +0.000 C 
ATOM      6  C   UNL     1       1.049  12.518  20.416  0.00  0.00    +0.000 C 
ATOM      7  C   UNL     1       0.501  10.091  20.909  0.00  0.00    +0.000 C 
ATOM      8  C   UNL     1       1.243   9.104  20.097  0.00  0.00    +0.000 A 
ATOM      9  C   UNL     1       1.584   7.807  20.425  0.00  0.00    +0.000 A 
ATOM     10  C   UNL     1       2.150   7.022  19.415  0.00  0.00    +0.000 A 
ATOM     11  C   UNL     1       2.472   7.558  18.153  0.00  0.00    +0.000 A 
ATOM     12  C   UNL     1       2.146   8.881  17.863  0.00  0.00    +0.000 A 
ATOM     13  C   UNL     1       1.508   9.619  18.841  0.00  0.00    +0.000 A 
ATOM     14  O   UNL     1       1.041  10.887  18.650  0.00  0.00    +0.000 OA
ENDBRANCH   1  10
BRANCH   1  15
ATOM     15  N   UNL     1       3.907   5.023  19.729  0.00  0.00    +0.000 NA
ATOM     16  H   UNL     1       4.370   5.363  20.579  0.00  0.00    +0.000 HD
BRANCH  15  17
ATOM     17  C   UNL     1       4.599   3.900  19.040  0.00  0.00    +0.000 C 
BRANCH  17  18
ATOM     18  C   UNL     1       4.262   2.615  19.820  0.00  0.00    +0.000 C 
ATOM     19  O   UNL     1       5.104   1.982  20.451  0.00  0.00    +0.000 OA
BRANCH  18  20
ATOM     20  O   UNL     1       2.955   2.278  19.870  0.00  0.00    +0.000 OA
ATOM     21  H   UNL     1       2.680   1.693  20.599  0.00  0.00    +0.000 HD
ENDBRANCH  18  20
ENDBRANCH  17  18
BRANCH  17  22
ATOM     22  C   UNL     1       6.099   4.130  18.815  0.00  0.00    +0.000 C 
BRANCH  22  23
ATOM     23  C   UNL     1       6.592   5.448  18.268  0.00  0.00    +0.000 A 
ATOM     24  C   UNL     1       5.962   6.155  17.239  0.00  0.00    +0.000 A 
ATOM     25  C   UNL     1       6.394   7.437  16.893  0.00  0.00    +0.000 A 
ATOM     26  C   UNL     1       7.483   8.012  17.542  0.00  0.00    +0.000 A 
ATOM     27  C   UNL     1       8.177   7.285  18.503  0.00  0.00    +0.000 A 
ATOM     28  C   UNL     1       7.742   6.007  18.854  0.00  0.00    +0.000 A 
ENDBRANCH  22  23
ENDBRANCH  17  22
ENDBRANCH  15  17
ENDBRANCH   1  15
TORSDOF 7
ENDMDL
