MODEL 1
REMARK VINA RESULT:      -8.6      0.000      0.000
REMARK  Name = 
REMARK  8 active torsions:
REMARK  status: ('A' for Active; 'I' for Inactive)
REMARK    1  A    between atoms: C_2  and  C_3
REMARK    2  A    between atoms: C_3  and  S_4
REMARK    3  A    between atoms: S_4  and  C_5
REMARK    4  A    between atoms: N_10  and  C_11
REMARK    5  A    between atoms: C_11  and  C_12
REMARK    6  A    between atoms: N_18  and  C_19
REMARK    7  A    between atoms: C_22  and  S_23
REMARK    8  A    between atoms: S_23  and  N_26
REMARK                            x       y       z     vdW  Elec       q    Type
REMARK                         _______ _______ _______ _____ _____    ______ ____
ROOT
ATOM      1  O   UNL     1      -0.759   7.950  21.747  0.00  0.00    +0.000 OA
ATOM      2  C   UNL     1       0.283   8.551  21.992  0.00  0.00    +0.000 C 
ATOM      3  N   UNL     1       1.537   8.231  21.482  0.00  0.00    +0.000 N 
ATOM      4  H   UNL     1       2.336   8.675  21.920  0.00  0.00    +0.000 HD
ENDROOT
BRANCH   3   5
ATOM      5  C   UNL     1       1.816   7.149  20.605  0.00  0.00    +0.000 A 
ATOM      6  C   UNL     1       1.678   5.809  20.981  0.00  0.00    +0.000 A 
ATOM      7  C   UNL     1       2.077   4.771  20.128  0.00  0.00    +0.000 A 
ATOM      8  C   UNL     1       2.585   5.067  18.864  0.00  0.00    +0.000 A 
ATOM      9  C   UNL     1       2.688   6.398  18.450  0.00  0.00    +0.000 A 
ATOM     10  C   UNL     1       2.285   7.433  19.314  0.00  0.00    +0.000 A 
BRANCH   8  11
ATOM     11  S   UNL     1       3.263   3.744  17.862  0.00  0.00    +0.000 S 
ATOM     12  O   UNL     1       3.671   2.691  18.765  0.00  0.00    +0.000 OA
ATOM     13  O   UNL     1       2.306   3.483  16.797  0.00  0.00    +0.000 OA
BRANCH  11  14
ATOM     14  N   UNL     1       4.669   4.415  17.150  0.00  0.00    +0.000 NA
ATOM     15  C   UNL     1       5.855   4.492  18.040  0.00  0.00    +0.000 C 
ATOM     16  C   UNL     1       6.999   5.260  17.389  0.00  0.00    +0.000 C 
ATOM     17  C   UNL     1       7.338   4.675  16.026  0.00  0.00    +0.000 C 
ATOM     18  C   UNL     1       6.105   4.732  15.136  0.00  0.00    +0.000 C 
ATOM     19  C   UNL     1       4.936   3.975  15.757  0.00  0.00    +0.000 C 
ENDBRANCH  11  14
ENDBRANCH   8  11
ENDBRANCH   3   5
BRANCH   2  20
ATOM     20  C   UNL     1       0.258   9.758  22.930  0.00  0.00    +0.000 C 
BRANCH  20  21
ATOM     21  S   UNL     1      -0.950  11.005  22.353  0.00  0.00    +0.000 S 
BRANCH  21  22
ATOM     22  C   UNL     1       0.052  11.865  21.244  0.00  0.00    +0.000 A 
ATOM     23  N   UNL     1       0.686  12.953  21.581  0.00  0.00    +0.000 NA
ATOM     24  N   UNL     1       1.353  13.297  20.446  0.00  0.00    +0.000 N 
ATOM     25  C   UNL     1       1.102  12.378  19.435  0.00  0.00    +0.000 A 
ATOM     26  O   UNL     1       1.564  12.423  18.308  0.00  0.00    +0.000 OA
ATOM     27  N   UNL     1       0.255  11.447  19.973  0.00  0.00    +0.000 N 
ATOM     28  H   UNL     1       1.959  14.102  20.370  0.00  0.00    +0.000 HD
BRANCH  27  29
ATOM     29  C   UNL     1      -0.226  10.301  19.223  0.00  0.00    +0.000 C 
BRANCH  29  30
ATOM     30  C   UNL     1      -1.457  10.623  18.408  0.00  0.00    +0.000 A 
ATOM     31  C   UNL     1      -2.435  11.502  18.900  0.00  0.00    +0.000 A 
ATOM     32  C   UNL     1      -3.611  11.729  18.183  0.00  0.00    +0.000 A 
ATOM     33  C   UNL     1      -3.819  11.089  16.963  0.00  0.00    +0.000 A 
ATOM     34  C   UNL     1      -2.841  10.241  16.449  0.00  0.00    +0.000 A 
ATOM     35  C   UNL     1      -1.665  10.011  17.165  0.00  0.00    +0.000 A 
ENDBRANCH  29  30
ENDBRANCH  27  29
ENDBRANCH  21  22
ENDBRANCH  20  21
ENDBRANCH   2  20
TORSDOF 8
ENDMDL
MODEL 2
REMARK VINA RESULT:      -8.6      2.092      9.151
REMARK  Name = 
REMARK  8 active torsions:
REMARK  status: ('A' for Active; 'I' for Inactive)
REMARK    1  A    between atoms: C_2  and  C_3
REMARK    2  A    between atoms: C_3  and  S_4
REMARK    3  A    between atoms: S_4  and  C_5
REMARK    4  A    between atoms: N_10  and  C_11
REMARK    5  A    between atoms: C_11  and  C_12
REMARK    6  A    between atoms: N_18  and  C_19
REMARK    7  A    between atoms: C_22  and  S_23
REMARK    8  A    between atoms: S_23  and  N_26
REMARK                            x       y       z     vdW  Elec       q    Type
REMARK                         _______ _______ _______ _____ _____    ______ ____
ROOT
ATOM      1  O   UNL     1       1.199   4.921  18.231  0.00  0.00    +0.000 OA
ATOM      2  C   UNL     1       2.267   4.921  18.835  0.00  0.00    +0.000 C 
ATOM      3  N   UNL     1       2.825   6.017  19.486  0.00  0.00    +0.000 N 
ATOM      4  H   UNL     1       3.795   5.939  19.766  0.00  0.00    +0.000 HD
ENDROOT
BRANCH   3   5
ATOM      5  C   UNL     1       2.251   7.315  19.547  0.00  0.00    +0.000 A 
ATOM      6  C   UNL     1       1.582   7.801  20.674  0.00  0.00    +0.000 A 
ATOM      7  C   UNL     1       0.928   9.040  20.652  0.00  0.00    +0.000 A 
ATOM      8  C   UNL     1       0.969   9.828  19.502  0.00  0.00    +0.000 A 
ATOM      9  C   UNL     1       1.672   9.382  18.379  0.00  0.00    +0.000 A 
ATOM     10  C   UNL     1       2.326   8.137  18.412  0.00  0.00    +0.000 A 
BRANCH   8  11
ATOM     11  S   UNL     1      -0.025  11.317  19.426  0.00  0.00    +0.000 S 
ATOM     12  O   UNL     1      -0.330  11.698  20.787  0.00  0.00    +0.000 OA
ATOM     13  O   UNL     1       0.655  12.239  18.529  0.00  0.00    +0.000 OA
BRANCH  11  14
ATOM     14  N   UNL     1      -1.482  10.828  18.668  0.00  0.00    +0.000 NA
ATOM     15  C   UNL     1      -2.587  11.818  18.719  0.00  0.00    +0.000 C 
ATOM     16  C   UNL     1      -3.890  11.236  18.185  0.00  0.00    +0.000 C 
ATOM     17  C   UNL     1      -3.695  10.661  16.789  0.00  0.00    +0.000 C 
ATOM     18  C   UNL     1      -2.628   9.579  16.838  0.00  0.00    +0.000 C 
ATOM     19  C   UNL     1      -1.307  10.124  17.371  0.00  0.00    +0.000 C 
ENDBRANCH  11  14
ENDBRANCH   8  11
ENDBRANCH   3   5
BRANCH   2  20
ATOM     20  C   UNL     1       3.097   3.640  18.907  0.00  0.00    +0.000 C 
BRANCH  20  21
ATOM     21  S   UNL     1       4.025   3.379  17.351  0.00  0.00    +0.000 S 
BRANCH  21  22
ATOM     22  C   UNL     1       5.444   4.285  17.723  0.00  0.00    +0.000 A 
ATOM     23  N   UNL     1       6.154   4.056  18.791  0.00  0.00    +0.000 NA
ATOM     24  N   UNL     1       7.167   4.960  18.699  0.00  0.00    +0.000 N 
ATOM     25  C   UNL     1       7.039   5.721  17.545  0.00  0.00    +0.000 A 
ATOM     26  O   UNL     1       7.799   6.607  17.193  0.00  0.00    +0.000 OA
ATOM     27  N   UNL     1       5.913   5.265  16.915  0.00  0.00    +0.000 N 
ATOM     28  H   UNL     1       7.913   5.042  19.376  0.00  0.00    +0.000 HD
BRANCH  27  29
ATOM     29  C   UNL     1       5.450   5.805  15.649  0.00  0.00    +0.000 C 
BRANCH  29  30
ATOM     30  C   UNL     1       6.021   5.063  14.464  0.00  0.00    +0.000 A 
ATOM     31  C   UNL     1       7.274   5.411  13.934  0.00  0.00    +0.000 A 
ATOM     32  C   UNL     1       7.760   4.781  12.787  0.00  0.00    +0.000 A 
ATOM     33  C   UNL     1       7.004   3.791  12.161  0.00  0.00    +0.000 A 
ATOM     34  C   UNL     1       5.775   3.415  12.698  0.00  0.00    +0.000 A 
ATOM     35  C   UNL     1       5.287   4.044  13.844  0.00  0.00    +0.000 A 
ENDBRANCH  29  30
ENDBRANCH  27  29
ENDBRANCH  21  22
ENDBRANCH  20  21
ENDBRANCH   2  20
TORSDOF 8
ENDMDL
MODEL 3
REMARK VINA RESULT:      -8.4      2.583      9.088
REMARK  Name = 
REMARK  8 active torsions:
REMARK  status: ('A' for Active; 'I' for Inactive)
REMARK    1  A    between atoms: C_2  and  C_3
REMARK    2  A    between atoms: C_3  and  S_4
REMARK    3  A    between atoms: S_4  and  C_5
REMARK    4  A    between atoms: N_10  and  C_11
REMARK    5  A    between atoms: C_11  and  C_12
REMARK    6  A    between atoms: N_18  and  C_19
REMARK    7  A    between atoms: C_22  and  S_23
REMARK    8  A    between atoms: S_23  and  N_26
REMARK                            x       y       z     vdW  Elec       q    Type
REMARK                         _______ _______ _______ _____ _____    ______ ____
ROOT
ATOM      1  O   UNL     1       1.655   4.816  18.141  0.00  0.00    +0.000 OA
ATOM      2  C   UNL     1       2.601   4.856  18.923  0.00  0.00    +0.000 C 
ATOM      3  N   UNL     1       2.913   5.926  19.756  0.00  0.00    +0.000 N 
ATOM      4  H   UNL     1       3.825   5.913  20.196  0.00  0.00    +0.000 HD
ENDROOT
BRANCH   3   5
ATOM      5  C   UNL     1       2.193   7.149  19.827  0.00  0.00    +0.000 A 
ATOM      6  C   UNL     1       2.177   8.085  18.789  0.00  0.00    +0.000 A 
ATOM      7  C   UNL     1       1.554   9.331  18.945  0.00  0.00    +0.000 A 
ATOM      8  C   UNL     1       0.902   9.638  20.138  0.00  0.00    +0.000 A 
ATOM      9  C   UNL     1       0.866   8.698  21.172  0.00  0.00    +0.000 A 
ATOM     10  C   UNL     1       1.494   7.450  21.006  0.00  0.00    +0.000 A 
BRANCH   8  11
ATOM     11  S   UNL     1       0.275  11.298  20.390  0.00  0.00    +0.000 S 
ATOM     12  O   UNL     1      -0.852  11.469  19.499  0.00  0.00    +0.000 OA
ATOM     13  O   UNL     1       0.125  11.484  21.825  0.00  0.00    +0.000 OA
BRANCH  11  14
ATOM     14  N   UNL     1       1.539  12.325  19.857  0.00  0.00    +0.000 NA
ATOM     15  C   UNL     1       1.450  12.758  18.440  0.00  0.00    +0.000 C 
ATOM     16  C   UNL     1       2.697  13.515  18.003  0.00  0.00    +0.000 C 
ATOM     17  C   UNL     1       2.985  14.676  18.943  0.00  0.00    +0.000 C 
ATOM     18  C   UNL     1       3.173  14.142  20.355  0.00  0.00    +0.000 C 
ATOM     19  C   UNL     1       1.943  13.375  20.828  0.00  0.00    +0.000 C 
ENDBRANCH  11  14
ENDBRANCH   8  11
ENDBRANCH   3   5
BRANCH   2  20
ATOM     20  C   UNL     1       3.548   3.661  19.029  0.00  0.00    +0.000 C 
BRANCH  20  21
ATOM     21  S   UNL     1       4.415   3.378  17.443  0.00  0.00    +0.000 S 
BRANCH  21  22
ATOM     22  C   UNL     1       5.741   4.459  17.659  0.00  0.00    +0.000 A 
ATOM     23  N   UNL     1       6.538   4.384  18.687  0.00  0.00    +0.000 NA
ATOM     24  N   UNL     1       7.432   5.387  18.470  0.00  0.00    +0.000 N 
ATOM     25  C   UNL     1       7.145   6.048  17.283  0.00  0.00    +0.000 A 
ATOM     26  O   UNL     1       7.775   6.987  16.826  0.00  0.00    +0.000 OA
ATOM     27  N   UNL     1       6.042   5.429  16.763  0.00  0.00    +0.000 N 
ATOM     28  H   UNL     1       8.204   5.597  19.087  0.00  0.00    +0.000 HD
BRANCH  27  29
ATOM     29  C   UNL     1       5.442   5.826  15.501  0.00  0.00    +0.000 C 
BRANCH  29  30
ATOM     30  C   UNL     1       6.002   5.054  14.329  0.00  0.00    +0.000 A 
ATOM     31  C   UNL     1       7.246   5.393  13.775  0.00  0.00    +0.000 A 
ATOM     32  C   UNL     1       7.720   4.734  12.639  0.00  0.00    +0.000 A 
ATOM     33  C   UNL     1       6.961   3.725  12.050  0.00  0.00    +0.000 A 
ATOM     34  C   UNL     1       5.740   3.359  12.611  0.00  0.00    +0.000 A 
ATOM     35  C   UNL     1       5.264   4.017  13.746  0.00  0.00    +0.000 A 
ENDBRANCH  29  30
ENDBRANCH  27  29
ENDBRANCH  21  22
ENDBRANCH  20  21
ENDBRANCH   2  20
TORSDOF 8
ENDMDL
MODEL 4
REMARK VINA RESULT:      -8.3      2.055      9.035
REMARK  Name = 
REMARK  8 active torsions:
REMARK  status: ('A' for Active; 'I' for Inactive)
REMARK    1  A    between atoms: C_2  and  C_3
REMARK    2  A    between atoms: C_3  and  S_4
REMARK    3  A    between atoms: S_4  and  C_5
REMARK    4  A    between atoms: N_10  and  C_11
REMARK    5  A    between atoms: C_11  and  C_12
REMARK    6  A    between atoms: N_18  and  C_19
REMARK    7  A    between atoms: C_22  and  S_23
REMARK    8  A    between atoms: S_23  and  N_26
REMARK                            x       y       z     vdW  Elec       q    Type
REMARK                         _______ _______ _______ _____ _____    ______ ____
ROOT
ATOM      1  O   UNL     1       1.983   5.559  17.712  0.00  0.00    +0.000 OA
ATOM      2  C   UNL     1       2.447   5.358  18.831  0.00  0.00    +0.000 C 
ATOM      3  N   UNL     1       2.508   6.293  19.859  0.00  0.00    +0.000 N 
ATOM      4  H   UNL     1       3.094   6.064  20.652  0.00  0.00    +0.000 HD
ENDROOT
BRANCH   3   5
ATOM      5  C   UNL     1       2.052   7.636  19.775  0.00  0.00    +0.000 A 
ATOM      6  C   UNL     1       1.352   8.269  20.807  0.00  0.00    +0.000 A 
ATOM      7  C   UNL     1       0.816   9.553  20.640  0.00  0.00    +0.000 A 
ATOM      8  C   UNL     1       1.010  10.236  19.440  0.00  0.00    +0.000 A 
ATOM      9  C   UNL     1       1.746   9.641  18.412  0.00  0.00    +0.000 A 
ATOM     10  C   UNL     1       2.281   8.351  18.590  0.00  0.00    +0.000 A 
BRANCH   8  11
ATOM     11  S   UNL     1       0.163  11.793  19.173  0.00  0.00    +0.000 S 
ATOM     12  O   UNL     1      -0.240  12.288  20.471  0.00  0.00    +0.000 OA
ATOM     13  O   UNL     1       1.007  12.594  18.300  0.00  0.00    +0.000 OA
BRANCH  11  14
ATOM     14  N   UNL     1      -1.249  11.374  18.298  0.00  0.00    +0.000 NA
ATOM     15  C   UNL     1      -1.215  10.044  17.638  0.00  0.00    +0.000 C 
ATOM     16  C   UNL     1      -2.427   9.829  16.741  0.00  0.00    +0.000 C 
ATOM     17  C   UNL     1      -3.719  10.058  17.510  0.00  0.00    +0.000 C 
ATOM     18  C   UNL     1      -3.730  11.475  18.062  0.00  0.00    +0.000 C 
ATOM     19  C   UNL     1      -2.528  11.729  18.965  0.00  0.00    +0.000 C 
ENDBRANCH  11  14
ENDBRANCH   8  11
ENDBRANCH   3   5
BRANCH   2  20
ATOM     20  C   UNL     1       3.023   3.985  19.176  0.00  0.00    +0.000 C 
BRANCH  20  21
ATOM     21  S   UNL     1       4.164   3.412  17.865  0.00  0.00    +0.000 S 
BRANCH  21  22
ATOM     22  C   UNL     1       5.491   4.469  18.175  0.00  0.00    +0.000 A 
ATOM     23  N   UNL     1       6.249   4.343  19.227  0.00  0.00    +0.000 NA
ATOM     24  N   UNL     1       7.159   5.345  19.086  0.00  0.00    +0.000 N 
ATOM     25  C   UNL     1       6.922   6.058  17.918  0.00  0.00    +0.000 A 
ATOM     26  O   UNL     1       7.576   7.009  17.524  0.00  0.00    +0.000 OA
ATOM     27  N   UNL     1       5.833   5.472  17.332  0.00  0.00    +0.000 N 
ATOM     28  H   UNL     1       7.909   5.521  19.738  0.00  0.00    +0.000 HD
BRANCH  27  29
ATOM     29  C   UNL     1       5.283   5.928  16.067  0.00  0.00    +0.000 C 
BRANCH  29  30
ATOM     30  C   UNL     1       5.853   5.175  14.887  0.00  0.00    +0.000 A 
ATOM     31  C   UNL     1       7.124   5.489  14.381  0.00  0.00    +0.000 A 
ATOM     32  C   UNL     1       7.610   4.851  13.238  0.00  0.00    +0.000 A 
ATOM     33  C   UNL     1       6.836   3.887  12.595  0.00  0.00    +0.000 A 
ATOM     34  C   UNL     1       5.588   3.544  13.109  0.00  0.00    +0.000 A 
ATOM     35  C   UNL     1       5.099   4.181  14.250  0.00  0.00    +0.000 A 
ENDBRANCH  29  30
ENDBRANCH  27  29
ENDBRANCH  21  22
ENDBRANCH  20  21
ENDBRANCH   2  20
TORSDOF 8
ENDMDL
MODEL 5
REMARK VINA RESULT:      -8.2      2.508      3.616
REMARK  Name = 
REMARK  8 active torsions:
REMARK  status: ('A' for Active; 'I' for Inactive)
REMARK    1  A    between atoms: C_2  and  C_3
REMARK    2  A    between atoms: C_3  and  S_4
REMARK    3  A    between atoms: S_4  and  C_5
REMARK    4  A    between atoms: N_10  and  C_11
REMARK    5  A    between atoms: C_11  and  C_12
REMARK    6  A    between atoms: N_18  and  C_19
REMARK    7  A    between atoms: C_22  and  S_23
REMARK    8  A    between atoms: S_23  and  N_26
REMARK                            x       y       z     vdW  Elec       q    Type
REMARK                         _______ _______ _______ _____ _____    ______ ____
ROOT
ATOM      1  O   UNL     1      -1.430  10.261  18.214  0.00  0.00    +0.000 OA
ATOM      2  C   UNL     1      -0.685  11.130  18.658  0.00  0.00    +0.000 C 
ATOM      3  N   UNL     1       0.635  10.934  19.054  0.00  0.00    +0.000 N 
ATOM      4  H   UNL     1       1.067  11.677  19.588  0.00  0.00    +0.000 HD
ENDROOT
BRANCH   3   5
ATOM      5  C   UNL     1       1.328   9.694  19.018  0.00  0.00    +0.000 A 
ATOM      6  C   UNL     1       2.003   9.232  17.884  0.00  0.00    +0.000 A 
ATOM      7  C   UNL     1       2.572   7.952  17.851  0.00  0.00    +0.000 A 
ATOM      8  C   UNL     1       2.503   7.130  18.975  0.00  0.00    +0.000 A 
ATOM      9  C   UNL     1       1.873   7.591  20.134  0.00  0.00    +0.000 A 
ATOM     10  C   UNL     1       1.305   8.878  20.158  0.00  0.00    +0.000 A 
BRANCH   8  11
ATOM     11  S   UNL     1       3.068   5.433  18.855  0.00  0.00    +0.000 S 
ATOM     12  O   UNL     1       3.174   4.921  20.203  0.00  0.00    +0.000 OA
ATOM     13  O   UNL     1       2.224   4.772  17.871  0.00  0.00    +0.000 OA
BRANCH  11  14
ATOM     14  N   UNL     1       4.647   5.547  18.200  0.00  0.00    +0.000 NA
ATOM     15  C   UNL     1       5.749   5.221  19.140  0.00  0.00    +0.000 C 
ATOM     16  C   UNL     1       7.114   5.520  18.533  0.00  0.00    +0.000 C 
ATOM     17  C   UNL     1       7.276   4.821  17.192  0.00  0.00    +0.000 C 
ATOM     18  C   UNL     1       6.178   5.288  16.248  0.00  0.00    +0.000 C 
ATOM     19  C   UNL     1       4.794   5.007  16.823  0.00  0.00    +0.000 C 
ENDBRANCH  11  14
ENDBRANCH   8  11
ENDBRANCH   3   5
BRANCH   2  20
ATOM     20  C   UNL     1      -1.198  12.561  18.814  0.00  0.00    +0.000 C 
BRANCH  20  21
ATOM     21  S   UNL     1      -0.327  13.418  20.176  0.00  0.00    +0.000 S 
BRANCH  21  22
ATOM     22  C   UNL     1      -0.975  12.540  21.511  0.00  0.00    +0.000 A 
ATOM     23  N   UNL     1      -0.304  11.602  22.117  0.00  0.00    +0.000 NA
ATOM     24  N   UNL     1      -1.152  11.185  23.096  0.00  0.00    +0.000 N 
ATOM     25  C   UNL     1      -2.337  11.908  23.055  0.00  0.00    +0.000 A 
ATOM     26  O   UNL     1      -3.283  11.759  23.810  0.00  0.00    +0.000 OA
ATOM     27  N   UNL     1      -2.205  12.792  22.019  0.00  0.00    +0.000 N 
ATOM     28  H   UNL     1      -0.929  10.461  23.764  0.00  0.00    +0.000 HD
BRANCH  27  29
ATOM     29  C   UNL     1      -3.241  13.746  21.666  0.00  0.00    +0.000 C 
BRANCH  29  30
ATOM     30  C   UNL     1      -4.455  13.081  21.062  0.00  0.00    +0.000 A 
ATOM     31  C   UNL     1      -5.656  12.988  21.783  0.00  0.00    +0.000 A 
ATOM     32  C   UNL     1      -6.749  12.297  21.255  0.00  0.00    +0.000 A 
ATOM     33  C   UNL     1      -6.656  11.700  20.000  0.00  0.00    +0.000 A 
ATOM     34  C   UNL     1      -5.481  11.815  19.262  0.00  0.00    +0.000 A 
ATOM     35  C   UNL     1      -4.387  12.504  19.788  0.00  0.00    +0.000 A 
ENDBRANCH  29  30
ENDBRANCH  27  29
ENDBRANCH  21  22
ENDBRANCH  20  21
ENDBRANCH   2  20
TORSDOF 8
ENDMDL
MODEL 6
REMARK VINA RESULT:      -8.0      1.859      2.377
REMARK  Name = 
REMARK  8 active torsions:
REMARK  status: ('A' for Active; 'I' for Inactive)
REMARK    1  A    between atoms: C_2  and  C_3
REMARK    2  A    between atoms: C_3  and  S_4
REMARK    3  A    between atoms: S_4  and  C_5
REMARK    4  A    between atoms: N_10  and  C_11
REMARK    5  A    between atoms: C_11  and  C_12
REMARK    6  A    between atoms: N_18  and  C_19
REMARK    7  A    between atoms: C_22  and  S_23
REMARK    8  A    between atoms: S_23  and  N_26
REMARK                            x       y       z     vdW  Elec       q    Type
REMARK                         _______ _______ _______ _____ _____    ______ ____
ROOT
ATOM      1  O   UNL     1       1.065   9.636  19.805  0.00  0.00    +0.000 OA
ATOM      2  C   UNL     1       1.028   9.211  20.955  0.00  0.00    +0.000 C 
ATOM      3  N   UNL     1       1.336   7.911  21.344  0.00  0.00    +0.000 N 
ATOM      4  H   UNL     1       1.069   7.638  22.282  0.00  0.00    +0.000 HD
ENDROOT
BRANCH   3   5
ATOM      5  C   UNL     1       1.732   6.864  20.469  0.00  0.00    +0.000 A 
ATOM      6  C   UNL     1       1.561   5.510  20.774  0.00  0.00    +0.000 A 
ATOM      7  C   UNL     1       2.072   4.508  19.939  0.00  0.00    +0.000 A 
ATOM      8  C   UNL     1       2.734   4.854  18.762  0.00  0.00    +0.000 A 
ATOM      9  C   UNL     1       2.876   6.201  18.415  0.00  0.00    +0.000 A 
ATOM     10  C   UNL     1       2.358   7.200  19.260  0.00  0.00    +0.000 A 
BRANCH   8  11
ATOM     11  S   UNL     1       3.544   3.573  17.804  0.00  0.00    +0.000 S 
ATOM     12  O   UNL     1       4.130   2.643  18.744  0.00  0.00    +0.000 OA
ATOM     13  O   UNL     1       2.588   3.119  16.805  0.00  0.00    +0.000 OA
BRANCH  11  14
ATOM     14  N   UNL     1       4.814   4.381  16.986  0.00  0.00    +0.000 NA
ATOM     15  C   UNL     1       6.077   4.518  17.755  0.00  0.00    +0.000 C 
ATOM     16  C   UNL     1       7.085   5.399  17.028  0.00  0.00    +0.000 C 
ATOM     17  C   UNL     1       7.324   4.895  15.612  0.00  0.00    +0.000 C 
ATOM     18  C   UNL     1       6.006   4.887  14.854  0.00  0.00    +0.000 C 
ATOM     19  C   UNL     1       4.968   4.016  15.554  0.00  0.00    +0.000 C 
ENDBRANCH  11  14
ENDBRANCH   8  11
ENDBRANCH   3   5
BRANCH   2  20
ATOM     20  C   UNL     1       0.612  10.142  22.094  0.00  0.00    +0.000 C 
BRANCH  20  21
ATOM     21  S   UNL     1       0.237  11.816  21.460  0.00  0.00    +0.000 S 
BRANCH  21  22
ATOM     22  C   UNL     1      -1.377  11.976  22.045  0.00  0.00    +0.000 A 
ATOM     23  N   UNL     1      -1.708  11.658  23.264  0.00  0.00    +0.000 NA
ATOM     24  N   UNL     1      -3.038  11.940  23.316  0.00  0.00    +0.000 N 
ATOM     25  C   UNL     1      -3.479  12.441  22.098  0.00  0.00    +0.000 A 
ATOM     26  O   UNL     1      -4.621  12.784  21.846  0.00  0.00    +0.000 OA
ATOM     27  N   UNL     1      -2.382  12.463  21.280  0.00  0.00    +0.000 N 
ATOM     28  H   UNL     1      -3.609  11.815  24.140  0.00  0.00    +0.000 HD
BRANCH  27  29
ATOM     29  C   UNL     1      -2.435  12.947  19.912  0.00  0.00    +0.000 C 
BRANCH  29  30
ATOM     30  C   UNL     1      -2.721  11.843  18.922  0.00  0.00    +0.000 A 
ATOM     31  C   UNL     1      -1.681  11.046  18.416  0.00  0.00    +0.000 A 
ATOM     32  C   UNL     1      -1.937  10.084  17.436  0.00  0.00    +0.000 A 
ATOM     33  C   UNL     1      -3.233   9.902  16.958  0.00  0.00    +0.000 A 
ATOM     34  C   UNL     1      -4.276  10.664  17.477  0.00  0.00    +0.000 A 
ATOM     35  C   UNL     1      -4.023  11.627  18.456  0.00  0.00    +0.000 A 
ENDBRANCH  29  30
ENDBRANCH  27  29
ENDBRANCH  21  22
ENDBRANCH  20  21
ENDBRANCH   2  20
TORSDOF 8
ENDMDL
MODEL 7
REMARK VINA RESULT:      -8.0      1.940      3.133
REMARK  Name = 
REMARK  8 active torsions:
REMARK  status: ('A' for Active; 'I' for Inactive)
REMARK    1  A    between atoms: C_2  and  C_3
REMARK    2  A    between atoms: C_3  and  S_4
REMARK    3  A    between atoms: S_4  and  C_5
REMARK    4  A    between atoms: N_10  and  C_11
REMARK    5  A    between atoms: C_11  and  C_12
REMARK    6  A    between atoms: N_18  and  C_19
REMARK    7  A    between atoms: C_22  and  S_23
REMARK    8  A    between atoms: S_23  and  N_26
REMARK                            x       y       z     vdW  Elec       q    Type
REMARK                         _______ _______ _______ _____ _____    ______ ____
ROOT
ATOM      1  O   UNL     1      -0.602   7.906  21.541  0.00  0.00    +0.000 OA
ATOM      2  C   UNL     1       0.421   8.585  21.561  0.00  0.00    +0.000 C 
ATOM      3  N   UNL     1       1.632   8.235  20.974  0.00  0.00    +0.000 N 
ATOM      4  H   UNL     1       2.443   8.781  21.238  0.00  0.00    +0.000 HD
ENDROOT
BRANCH   3   5
ATOM      5  C   UNL     1       1.883   7.030  20.265  0.00  0.00    +0.000 A 
ATOM      6  C   UNL     1       1.831   5.768  20.864  0.00  0.00    +0.000 A 
ATOM      7  C   UNL     1       2.202   4.614  20.160  0.00  0.00    +0.000 A 
ATOM      8  C   UNL     1       2.596   4.710  18.826  0.00  0.00    +0.000 A 
ATOM      9  C   UNL     1       2.610   5.956  18.194  0.00  0.00    +0.000 A 
ATOM     10  C   UNL     1       2.236   7.109  18.910  0.00  0.00    +0.000 A 
BRANCH   8  11
ATOM     11  S   UNL     1       3.244   3.258  17.999  0.00  0.00    +0.000 S 
ATOM     12  O   UNL     1       3.382   2.222  19.000  0.00  0.00    +0.000 OA
ATOM     13  O   UNL     1       2.428   3.043  16.814  0.00  0.00    +0.000 OA
BRANCH  11  14
ATOM     14  N   UNL     1       4.811   3.716  17.482  0.00  0.00    +0.000 NA
ATOM     15  C   UNL     1       4.902   4.191  16.078  0.00  0.00    +0.000 C 
ATOM     16  C   UNL     1       6.348   4.405  15.648  0.00  0.00    +0.000 C 
ATOM     17  C   UNL     1       7.070   5.330  16.617  0.00  0.00    +0.000 C 
ATOM     18  C   UNL     1       7.030   4.725  18.012  0.00  0.00    +0.000 C 
ATOM     19  C   UNL     1       5.596   4.493  18.476  0.00  0.00    +0.000 C 
ENDBRANCH  11  14
ENDBRANCH   8  11
ENDBRANCH   3   5
BRANCH   2  20
ATOM     20  C   UNL     1       0.420   9.933  22.282  0.00  0.00    +0.000 C 
BRANCH  20  21
ATOM     21  S   UNL     1      -0.483  11.190  21.306  0.00  0.00    +0.000 S 
BRANCH  21  22
ATOM     22  C   UNL     1       0.488  11.181  19.881  0.00  0.00    +0.000 A 
ATOM     23  N   UNL     1       0.350  10.278  18.952  0.00  0.00    +0.000 NA
ATOM     24  N   UNL     1       1.277  10.633  18.022  0.00  0.00    +0.000 N 
ATOM     25  C   UNL     1       1.959  11.774  18.424  0.00  0.00    +0.000 A 
ATOM     26  O   UNL     1       2.844  12.328  17.795  0.00  0.00    +0.000 OA
ATOM     27  N   UNL     1       1.430  12.122  19.637  0.00  0.00    +0.000 N 
ATOM     28  H   UNL     1       1.425  10.137  17.154  0.00  0.00    +0.000 HD
BRANCH  27  29
ATOM     29  C   UNL     1       1.874  13.289  20.379  0.00  0.00    +0.000 C 
BRANCH  29  30
ATOM     30  C   UNL     1       1.352  14.579  19.791  0.00  0.00    +0.000 A 
ATOM     31  C   UNL     1      -0.020  14.874  19.812  0.00  0.00    +0.000 A 
ATOM     32  C   UNL     1      -0.508  16.025  19.191  0.00  0.00    +0.000 A 
ATOM     33  C   UNL     1       0.369  16.898  18.551  0.00  0.00    +0.000 A 
ATOM     34  C   UNL     1       1.736  16.632  18.553  0.00  0.00    +0.000 A 
ATOM     35  C   UNL     1       2.226  15.481  19.172  0.00  0.00    +0.000 A 
ENDBRANCH  29  30
ENDBRANCH  27  29
ENDBRANCH  21  22
ENDBRANCH  20  21
ENDBRANCH   2  20
TORSDOF 8
ENDMDL
MODEL 8
REMARK VINA RESULT:      -8.0      2.601      3.358
REMARK  Name = 
REMARK  8 active torsions:
REMARK  status: ('A' for Active; 'I' for Inactive)
REMARK    1  A    between atoms: C_2  and  C_3
REMARK    2  A    between atoms: C_3  and  S_4
REMARK    3  A    between atoms: S_4  and  C_5
REMARK    4  A    between atoms: N_10  and  C_11
REMARK    5  A    between atoms: C_11  and  C_12
REMARK    6  A    between atoms: N_18  and  C_19
REMARK    7  A    between atoms: C_22  and  S_23
REMARK    8  A    between atoms: S_23  and  N_26
REMARK                            x       y       z     vdW  Elec       q    Type
REMARK                         _______ _______ _______ _____ _____    ______ ____
ROOT
ATOM      1  O   UNL     1      -0.844   9.675  19.721  0.00  0.00    +0.000 OA
ATOM      2  C   UNL     1       0.063  10.055  20.455  0.00  0.00    +0.000 C 
ATOM      3  N   UNL     1       1.242   9.360  20.707  0.00  0.00    +0.000 N 
ATOM      4  H   UNL     1       1.807   9.683  21.483  0.00  0.00    +0.000 HD
ENDROOT
BRANCH   3   5
ATOM      5  C   UNL     1       1.580   8.092  20.163  0.00  0.00    +0.000 A 
ATOM      6  C   UNL     1       1.413   6.894  20.862  0.00  0.00    +0.000 A 
ATOM      7  C   UNL     1       1.869   5.677  20.336  0.00  0.00    +0.000 A 
ATOM      8  C   UNL     1       2.468   5.644  19.078  0.00  0.00    +0.000 A 
ATOM      9  C   UNL     1       2.603   6.824  18.342  0.00  0.00    +0.000 A 
ATOM     10  C   UNL     1       2.141   8.041  18.878  0.00  0.00    +0.000 A 
BRANCH   8  11
ATOM     11  S   UNL     1       3.212   4.118  18.503  0.00  0.00    +0.000 S 
ATOM     12  O   UNL     1       3.523   3.327  19.673  0.00  0.00    +0.000 OA
ATOM     13  O   UNL     1       2.350   3.591  17.456  0.00  0.00    +0.000 OA
BRANCH  11  14
ATOM     14  N   UNL     1       4.685   4.602  17.775  0.00  0.00    +0.000 NA
ATOM     15  C   UNL     1       5.844   4.706  18.697  0.00  0.00    +0.000 C 
ATOM     16  C   UNL     1       7.061   5.310  18.008  0.00  0.00    +0.000 C 
ATOM     17  C   UNL     1       7.402   4.543  16.739  0.00  0.00    +0.000 C 
ATOM     18  C   UNL     1       6.207   4.574  15.798  0.00  0.00    +0.000 C 
ATOM     19  C   UNL     1       4.966   3.978  16.456  0.00  0.00    +0.000 C 
ENDBRANCH  11  14
ENDBRANCH   8  11
ENDBRANCH   3   5
BRANCH   2  20
ATOM     20  C   UNL     1      -0.062  11.394  21.182  0.00  0.00    +0.000 C 
BRANCH  20  21
ATOM     21  S   UNL     1      -1.471  12.360  20.527  0.00  0.00    +0.000 S 
BRANCH  21  22
ATOM     22  C   UNL     1      -2.461  12.393  21.938  0.00  0.00    +0.000 A 
ATOM     23  N   UNL     1      -2.037  11.966  23.094  0.00  0.00    +0.000 NA
ATOM     24  N   UNL     1      -3.098  12.175  23.919  0.00  0.00    +0.000 N 
ATOM     25  C   UNL     1      -4.155  12.744  23.221  0.00  0.00    +0.000 A 
ATOM     26  O   UNL     1      -5.236  13.047  23.696  0.00  0.00    +0.000 OA
ATOM     27  N   UNL     1      -3.723  12.884  21.930  0.00  0.00    +0.000 N 
ATOM     28  H   UNL     1      -3.097  11.960  24.906  0.00  0.00    +0.000 HD
BRANCH  27  29
ATOM     29  C   UNL     1      -4.547  13.467  20.886  0.00  0.00    +0.000 C 
BRANCH  29  30
ATOM     30  C   UNL     1      -5.326  12.424  20.119  0.00  0.00    +0.000 A 
ATOM     31  C   UNL     1      -4.923  12.028  18.834  0.00  0.00    +0.000 A 
ATOM     32  C   UNL     1      -5.693  11.129  18.094  0.00  0.00    +0.000 A 
ATOM     33  C   UNL     1      -6.869  10.610  18.631  0.00  0.00    +0.000 A 
ATOM     34  C   UNL     1      -7.261  10.971  19.918  0.00  0.00    +0.000 A 
ATOM     35  C   UNL     1      -6.493  11.871  20.660  0.00  0.00    +0.000 A 
ENDBRANCH  29  30
ENDBRANCH  27  29
ENDBRANCH  21  22
ENDBRANCH  20  21
ENDBRANCH   2  20
TORSDOF 8
ENDMDL
MODEL 9
REMARK VINA RESULT:      -8.0      2.995      4.369
REMARK  Name = 
REMARK  8 active torsions:
REMARK  status: ('A' for Active; 'I' for Inactive)
REMARK    1  A    between atoms: C_2  and  C_3
REMARK    2  A    between atoms: C_3  and  S_4
REMARK    3  A    between atoms: S_4  and  C_5
REMARK    4  A    between atoms: N_10  and  C_11
REMARK    5  A    between atoms: C_11  and  C_12
REMARK    6  A    between atoms: N_18  and  C_19
REMARK    7  A    between atoms: C_22  and  S_23
REMARK    8  A    between atoms: S_23  and  N_26
REMARK                            x       y       z     vdW  Elec       q    Type
REMARK                         _______ _______ _______ _____ _____    ______ ____
ROOT
ATOM      1  O   UNL     1       1.140  10.692  21.980  0.00  0.00    +0.000 OA
ATOM      2  C   UNL     1       0.642  11.158  20.960  0.00  0.00    +0.000 C 
ATOM      3  N   UNL     1       0.680  10.567  19.701  0.00  0.00    +0.000 N 
ATOM      4  H   UNL     1       0.414  11.147  18.915  0.00  0.00    +0.000 HD
ENDROOT
BRANCH   3   5
ATOM      5  C   UNL     1       1.313   9.333  19.392  0.00  0.00    +0.000 A 
ATOM      6  C   UNL     1       1.444   8.293  20.316  0.00  0.00    +0.000 A 
ATOM      7  C   UNL     1       2.179   7.139  20.011  0.00  0.00    +0.000 A 
ATOM      8  C   UNL     1       2.763   6.999  18.753  0.00  0.00    +0.000 A 
ATOM      9  C   UNL     1       2.605   8.008  17.798  0.00  0.00    +0.000 A 
ATOM     10  C   UNL     1       1.865   9.162  18.114  0.00  0.00    +0.000 A 
BRANCH   8  11
ATOM     11  S   UNL     1       3.852   5.610  18.443  0.00  0.00    +0.000 S 
ATOM     12  O   UNL     1       4.067   5.546  17.014  0.00  0.00    +0.000 OA
ATOM     13  O   UNL     1       4.974   5.735  19.360  0.00  0.00    +0.000 OA
BRANCH  11  14
ATOM     14  N   UNL     1       2.943   4.234  18.909  0.00  0.00    +0.000 NA
ATOM     15  C   UNL     1       2.933   3.945  20.366  0.00  0.00    +0.000 C 
ATOM     16  C   UNL     1       2.258   2.614  20.671  0.00  0.00    +0.000 C 
ATOM     17  C   UNL     1       0.864   2.562  20.064  0.00  0.00    +0.000 C 
ATOM     18  C   UNL     1       0.965   2.756  18.559  0.00  0.00    +0.000 C 
ATOM     19  C   UNL     1       1.640   4.079  18.213  0.00  0.00    +0.000 C 
ENDBRANCH  11  14
ENDBRANCH   8  11
ENDBRANCH   3   5
BRANCH   2  20
ATOM     20  C   UNL     1      -0.091  12.499  21.019  0.00  0.00    +0.000 C 
BRANCH  20  21
ATOM     21  S   UNL     1      -1.783  12.345  20.342  0.00  0.00    +0.000 S 
BRANCH  21  22
ATOM     22  C   UNL     1      -2.678  12.445  21.813  0.00  0.00    +0.000 A 
ATOM     23  N   UNL     1      -2.187  12.046  22.952  0.00  0.00    +0.000 NA
ATOM     24  N   UNL     1      -3.188  12.306  23.838  0.00  0.00    +0.000 N 
ATOM     25  C   UNL     1      -4.276  12.876  23.191  0.00  0.00    +0.000 A 
ATOM     26  O   UNL     1      -5.317  13.219  23.725  0.00  0.00    +0.000 OA
ATOM     27  N   UNL     1      -3.926  12.965  21.870  0.00  0.00    +0.000 N 
ATOM     28  H   UNL     1      -3.125  12.121  24.829  0.00  0.00    +0.000 HD
BRANCH  27  29
ATOM     29  C   UNL     1      -4.805  13.534  20.864  0.00  0.00    +0.000 C 
BRANCH  29  30
ATOM     30  C   UNL     1      -5.562  12.475  20.097  0.00  0.00    +0.000 A 
ATOM     31  C   UNL     1      -6.621  11.774  20.696  0.00  0.00    +0.000 A 
ATOM     32  C   UNL     1      -7.261  10.737  20.014  0.00  0.00    +0.000 A 
ATOM     33  C   UNL     1      -6.857  10.396  18.725  0.00  0.00    +0.000 A 
ATOM     34  C   UNL     1      -5.830  11.107  18.109  0.00  0.00    +0.000 A 
ATOM     35  C   UNL     1      -5.188  12.143  18.789  0.00  0.00    +0.000 A 
ENDBRANCH  29  30
ENDBRANCH  27  29
ENDBRANCH  21  22
ENDBRANCH  20  21
ENDBRANCH   2  20
TORSDOF 8
ENDMDL
