MODEL 1
REMARK VINA RESULT:      -9.3      0.000      0.000
REMARK  Name = 
REMARK  7 active torsions:
REMARK  status: ('A' for Active; 'I' for Inactive)
REMARK    1  A    between atoms: C_1  and  C_2
REMARK    2  A    between atoms: C_4  and  O_5
REMARK    3  A    between atoms: O_5  and  C_6
REMARK    4  A    between atoms: C_9  and  N_10
REMARK    5  A    between atoms: C_11  and  C_13
REMARK    6  A    between atoms: C_13  and  C_14
REMARK    7  A    between atoms: C_14  and  N_15
REMARK                            x       y       z     vdW  Elec       q    Type
REMARK                         _______ _______ _______ _____ _____    ______ ____
ROOT
ATOM      1  N   UNL     1       3.460   6.279  18.422  0.00  0.00    +0.000 N 
ATOM      2  C   UNL     1       4.689   6.346  17.784  0.00  0.00    +0.000 C 
ATOM      3  O   UNL     1       5.239   7.382  17.419  0.00  0.00    +0.000 OA
ATOM      4  H   UNL     1       3.266   5.450  18.974  0.00  0.00    +0.000 HD
ENDROOT
BRANCH   1   8
ATOM      5  C   UNL     1       0.892   9.522  19.184  0.00  0.00    +0.000 A 
ATOM      6  C   UNL     1       1.474   9.381  17.921  0.00  0.00    +0.000 A 
ATOM      7  C   UNL     1       2.346   8.322  17.664  0.00  0.00    +0.000 A 
ATOM      8  C   UNL     1       2.645   7.401  18.669  0.00  0.00    +0.000 A 
ATOM      9  C   UNL     1       2.091   7.564  19.943  0.00  0.00    +0.000 A 
ATOM     10  C   UNL     1       1.243   8.645  20.211  0.00  0.00    +0.000 A 
BRANCH   5  11
ATOM     11  O   UNL     1       0.002  10.528  19.474  0.00  0.00    +0.000 OA
BRANCH  11  15
ATOM     12  C   UNL     1      -3.484  10.962  15.947  0.00  0.00    +0.000 C 
ATOM     13  C   UNL     1      -2.442  11.113  16.987  0.00  0.00    +0.000 A 
ATOM     14  C   UNL     1      -1.941  10.230  17.917  0.00  0.00    +0.000 A 
ATOM     15  C   UNL     1      -0.894  10.935  18.546  0.00  0.00    +0.000 A 
ATOM     16  N   UNL     1      -0.802  12.197  18.128  0.00  0.00    +0.000 NA
ATOM     17  N   UNL     1      -1.746  12.279  17.174  0.00  0.00    +0.000 N 
ATOM     18  H   UNL     1      -1.848  13.156  16.674  0.00  0.00    +0.000 HD
ENDBRANCH  11  15
ENDBRANCH   5  11
ENDBRANCH   1   8
BRANCH   2  19
ATOM     19  C   UNL     1       5.329   4.992  17.570  0.00  0.00    +0.000 C 
BRANCH  19  20
ATOM     20  C   UNL     1       5.240   4.152  18.848  0.00  0.00    +0.000 C 
BRANCH  20  21
ATOM     21  N   UNL     1       4.363   2.961  18.646  0.00  0.00    +0.000 N 
ATOM     22  N   UNL     1       4.056   2.761  17.307  0.00  0.00    +0.000 NA
ATOM     23  C   UNL     1       2.882   3.101  16.884  0.00  0.00    +0.000 A 
ATOM     24  C   UNL     1       1.842   3.668  17.777  0.00  0.00    +0.000 A 
ATOM     25  O   UNL     1       0.899   4.278  17.303  0.00  0.00    +0.000 OA
ATOM     26  C   UNL     1       2.007   3.380  19.201  0.00  0.00    +0.000 A 
ATOM     27  C   UNL     1       0.935   3.457  20.092  0.00  0.00    +0.000 A 
ATOM     28  C   UNL     1       1.128   3.029  21.402  0.00  0.00    +0.000 A 
ATOM     29  C   UNL     1       2.378   2.546  21.800  0.00  0.00    +0.000 A 
ATOM     30  C   UNL     1       3.456   2.532  20.902  0.00  0.00    +0.000 A 
ATOM     31  C   UNL     1       3.284   2.963  19.582  0.00  0.00    +0.000 A 
ENDBRANCH  20  21
ENDBRANCH  19  20
ENDBRANCH   2  19
TORSDOF 6
ENDMDL
MODEL 2
REMARK VINA RESULT:      -8.7      1.837      4.079
REMARK  Name = 
REMARK  7 active torsions:
REMARK  status: ('A' for Active; 'I' for Inactive)
REMARK    1  A    between atoms: C_1  and  C_2
REMARK    2  A    between atoms: C_4  and  O_5
REMARK    3  A    between atoms: O_5  and  C_6
REMARK    4  A    between atoms: C_9  and  N_10
REMARK    5  A    between atoms: C_11  and  C_13
REMARK    6  A    between atoms: C_13  and  C_14
REMARK    7  A    between atoms: C_14  and  N_15
REMARK                            x       y       z     vdW  Elec       q    Type
REMARK                         _______ _______ _______ _____ _____    ______ ____
ROOT
ATOM      1  N   UNL     1       3.310   6.238  19.078  0.00  0.00    +0.000 N 
ATOM      2  C   UNL     1       2.965   5.069  18.417  0.00  0.00    +0.000 C 
ATOM      3  O   UNL     1       1.903   4.876  17.831  0.00  0.00    +0.000 OA
ATOM      4  H   UNL     1       4.298   6.419  19.218  0.00  0.00    +0.000 HD
ENDROOT
BRANCH   1   8
ATOM      5  C   UNL     1       0.860   9.633  19.485  0.00  0.00    +0.000 A 
ATOM      6  C   UNL     1       1.016   8.757  20.563  0.00  0.00    +0.000 A 
ATOM      7  C   UNL     1       1.807   7.615  20.432  0.00  0.00    +0.000 A 
ATOM      8  C   UNL     1       2.444   7.339  19.221  0.00  0.00    +0.000 A 
ATOM      9  C   UNL     1       2.258   8.197  18.132  0.00  0.00    +0.000 A 
ATOM     10  C   UNL     1       1.437   9.324  18.253  0.00  0.00    +0.000 A 
BRANCH   5  11
ATOM     11  O   UNL     1       0.118  10.786  19.577  0.00  0.00    +0.000 OA
BRANCH  11  15
ATOM     12  C   UNL     1      -3.465  10.803  16.121  0.00  0.00    +0.000 C 
ATOM     13  C   UNL     1      -2.396  11.075  17.107  0.00  0.00    +0.000 A 
ATOM     14  C   UNL     1      -1.866  10.307  18.120  0.00  0.00    +0.000 A 
ATOM     15  C   UNL     1      -0.804  11.081  18.633  0.00  0.00    +0.000 A 
ATOM     16  N   UNL     1      -0.728  12.286  18.068  0.00  0.00    +0.000 NA
ATOM     17  N   UNL     1      -1.698  12.255  17.137  0.00  0.00    +0.000 N 
ATOM     18  H   UNL     1      -1.818  13.068  16.541  0.00  0.00    +0.000 HD
ENDBRANCH  11  15
ENDBRANCH   5  11
ENDBRANCH   1   8
BRANCH   2  19
ATOM     19  C   UNL     1       4.043   4.009  18.470  0.00  0.00    +0.000 C 
BRANCH  19  20
ATOM     20  C   UNL     1       5.222   4.488  19.323  0.00  0.00    +0.000 C 
BRANCH  20  21
ATOM     21  N   UNL     1       6.501   4.416  18.557  0.00  0.00    +0.000 N 
ATOM     22  N   UNL     1       7.515   5.143  19.167  0.00  0.00    +0.000 NA
ATOM     23  C   UNL     1       7.838   6.292  18.670  0.00  0.00    +0.000 A 
ATOM     24  C   UNL     1       7.188   6.852  17.459  0.00  0.00    +0.000 A 
ATOM     25  O   UNL     1       7.268   8.046  17.223  0.00  0.00    +0.000 OA
ATOM     26  C   UNL     1       6.540   5.878  16.583  0.00  0.00    +0.000 A 
ATOM     27  C   UNL     1       6.276   6.162  15.242  0.00  0.00    +0.000 A 
ATOM     28  C   UNL     1       5.791   5.142  14.429  0.00  0.00    +0.000 A 
ATOM     29  C   UNL     1       5.570   3.871  14.965  0.00  0.00    +0.000 A 
ATOM     30  C   UNL     1       5.789   3.623  16.329  0.00  0.00    +0.000 A 
ATOM     31  C   UNL     1       6.270   4.638  17.164  0.00  0.00    +0.000 A 
ENDBRANCH  20  21
ENDBRANCH  19  20
ENDBRANCH   2  19
TORSDOF 6
ENDMDL
MODEL 3
REMARK VINA RESULT:      -8.7      5.544      9.493
REMARK  Name = 
REMARK  7 active torsions:
REMARK  status: ('A' for Active; 'I' for Inactive)
REMARK    1  A    between atoms: C_1  and  C_2
REMARK    2  A    between atoms: C_4  and  O_5
REMARK    3  A    between atoms: O_5  and  C_6
REMARK    4  A    between atoms: C_9  and  N_10
REMARK    5  A    between atoms: C_11  and  C_13
REMARK    6  A    between atoms: C_13  and  C_14
REMARK    7  A    between atoms: C_14  and  N_15
REMARK                            x       y       z     vdW  Elec       q    Type
REMARK                         _______ _______ _______ _____ _____    ______ ____
ROOT
ATOM      1  N   UNL     1       6.936   7.698  16.831  0.00  0.00    +0.000 N 
ATOM      2  C   UNL     1       7.893   8.039  17.773  0.00  0.00    +0.000 C 
ATOM      3  O   UNL     1       8.249   7.326  18.708  0.00  0.00    +0.000 OA
ATOM      4  H   UNL     1       6.967   8.181  15.939  0.00  0.00    +0.000 HD
ENDROOT
BRANCH   1   8
ATOM      5  C   UNL     1       4.701   4.147  17.128  0.00  0.00    +0.000 A 
ATOM      6  C   UNL     1       6.011   4.102  16.643  0.00  0.00    +0.000 A 
ATOM      7  C   UNL     1       6.754   5.278  16.517  0.00  0.00    +0.000 A 
ATOM      8  C   UNL     1       6.189   6.504  16.872  0.00  0.00    +0.000 A 
ATOM      9  C   UNL     1       4.866   6.552  17.322  0.00  0.00    +0.000 A 
ATOM     10  C   UNL     1       4.110   5.378  17.417  0.00  0.00    +0.000 A 
BRANCH   5  11
ATOM     11  O   UNL     1       3.943   3.014  17.300  0.00  0.00    +0.000 OA
BRANCH  11  15
ATOM     12  C   UNL     1       1.372   2.658  21.549  0.00  0.00    +0.000 C 
ATOM     13  C   UNL     1       1.885   2.803  20.169  0.00  0.00    +0.000 A 
ATOM     14  C   UNL     1       3.154   3.027  19.681  0.00  0.00    +0.000 A 
ATOM     15  C   UNL     1       3.011   2.958  18.279  0.00  0.00    +0.000 A 
ATOM     16  N   UNL     1       1.742   2.810  17.899  0.00  0.00    +0.000 NA
ATOM     17  N   UNL     1       1.078   2.707  19.064  0.00  0.00    +0.000 N 
ATOM     18  H   UNL     1       0.075   2.553  19.033  0.00  0.00    +0.000 HD
ENDBRANCH  11  15
ENDBRANCH   5  11
ENDBRANCH   1   8
BRANCH   2  19
ATOM     19  C   UNL     1       8.497   9.408  17.549  0.00  0.00    +0.000 C 
BRANCH  19  20
ATOM     20  C   UNL     1       8.949  10.017  18.880  0.00  0.00    +0.000 C 
BRANCH  20  21
ATOM     21  N   UNL     1       9.784  11.234  18.656  0.00  0.00    +0.000 N 
ATOM     22  N   UNL     1      10.926  11.234  19.445  0.00  0.00    +0.000 NA
ATOM     23  C   UNL     1      10.954  11.991  20.494  0.00  0.00    +0.000 A 
ATOM     24  C   UNL     1       9.827  12.880  20.870  0.00  0.00    +0.000 A 
ATOM     25  O   UNL     1       9.744  13.307  22.008  0.00  0.00    +0.000 OA
ATOM     26  C   UNL     1       8.914  13.235  19.785  0.00  0.00    +0.000 A 
ATOM     27  C   UNL     1       8.092  14.361  19.859  0.00  0.00    +0.000 A 
ATOM     28  C   UNL     1       7.357  14.722  18.735  0.00  0.00    +0.000 A 
ATOM     29  C   UNL     1       7.443  13.955  17.570  0.00  0.00    +0.000 A 
ATOM     30  C   UNL     1       8.231  12.794  17.537  0.00  0.00    +0.000 A 
ATOM     31  C   UNL     1       8.974  12.411  18.659  0.00  0.00    +0.000 A 
ENDBRANCH  20  21
ENDBRANCH  19  20
ENDBRANCH   2  19
TORSDOF 6
ENDMDL
MODEL 4
REMARK VINA RESULT:      -8.6      0.472      1.010
REMARK  Name = 
REMARK  7 active torsions:
REMARK  status: ('A' for Active; 'I' for Inactive)
REMARK    1  A    between atoms: C_1  and  C_2
REMARK    2  A    between atoms: C_4  and  O_5
REMARK    3  A    between atoms: O_5  and  C_6
REMARK    4  A    between atoms: C_9  and  N_10
REMARK    5  A    between atoms: C_11  and  C_13
REMARK    6  A    between atoms: C_13  and  C_14
REMARK    7  A    between atoms: C_14  and  N_15
REMARK                            x       y       z     vdW  Elec       q    Type
REMARK                         _______ _______ _______ _____ _____    ______ ____
ROOT
ATOM      1  N   UNL     1       3.518   6.440  18.549  0.00  0.00    +0.000 N 
ATOM      2  C   UNL     1       4.651   6.477  17.751  0.00  0.00    +0.000 C 
ATOM      3  O   UNL     1       5.065   7.470  17.158  0.00  0.00    +0.000 OA
ATOM      4  H   UNL     1       3.462   5.704  19.244  0.00  0.00    +0.000 HD
ENDROOT
BRANCH   1   8
ATOM      5  C   UNL     1       1.061   9.815  19.061  0.00  0.00    +0.000 A 
ATOM      6  C   UNL     1       1.158   8.868  20.084  0.00  0.00    +0.000 A 
ATOM      7  C   UNL     1       1.951   7.731  19.916  0.00  0.00    +0.000 A 
ATOM      8  C   UNL     1       2.648   7.535  18.722  0.00  0.00    +0.000 A 
ATOM      9  C   UNL     1       2.521   8.465  17.686  0.00  0.00    +0.000 A 
ATOM     10  C   UNL     1       1.700   9.587  17.842  0.00  0.00    +0.000 A 
BRANCH   5  11
ATOM     11  O   UNL     1       0.319  10.965  19.193  0.00  0.00    +0.000 OA
BRANCH  11  15
ATOM     12  C   UNL     1      -3.790  10.613  16.404  0.00  0.00    +0.000 C 
ATOM     13  C   UNL     1      -2.726  10.882  17.397  0.00  0.00    +0.000 A 
ATOM     14  C   UNL     1      -1.518  10.265  17.636  0.00  0.00    +0.000 A 
ATOM     15  C   UNL     1      -0.912  11.050  18.638  0.00  0.00    +0.000 A 
ATOM     16  N   UNL     1      -1.707  12.024  19.078  0.00  0.00    +0.000 NA
ATOM     17  N   UNL     1      -2.800  11.909  18.302  0.00  0.00    +0.000 N 
ATOM     18  H   UNL     1      -3.552  12.578  18.430  0.00  0.00    +0.000 HD
ENDBRANCH  11  15
ENDBRANCH   5  11
ENDBRANCH   1   8
BRANCH   2  19
ATOM     19  C   UNL     1       5.371   5.149  17.669  0.00  0.00    +0.000 C 
BRANCH  19  20
ATOM     20  C   UNL     1       5.170   4.352  18.962  0.00  0.00    +0.000 C 
BRANCH  20  21
ATOM     21  N   UNL     1       4.373   3.115  18.710  0.00  0.00    +0.000 N 
ATOM     22  N   UNL     1       4.115   2.927  17.359  0.00  0.00    +0.000 NA
ATOM     23  C   UNL     1       2.935   3.204  16.910  0.00  0.00    +0.000 A 
ATOM     24  C   UNL     1       1.838   3.687  17.785  0.00  0.00    +0.000 A 
ATOM     25  O   UNL     1       0.873   4.250  17.296  0.00  0.00    +0.000 OA
ATOM     26  C   UNL     1       1.982   3.378  19.206  0.00  0.00    +0.000 A 
ATOM     27  C   UNL     1       0.884   3.371  20.068  0.00  0.00    +0.000 A 
ATOM     28  C   UNL     1       1.066   2.927  21.374  0.00  0.00    +0.000 A 
ATOM     29  C   UNL     1       2.331   2.511  21.798  0.00  0.00    +0.000 A 
ATOM     30  C   UNL     1       3.433   2.582  20.931  0.00  0.00    +0.000 A 
ATOM     31  C   UNL     1       3.271   3.031  19.615  0.00  0.00    +0.000 A 
ENDBRANCH  20  21
ENDBRANCH  19  20
ENDBRANCH   2  19
TORSDOF 6
ENDMDL
MODEL 5
REMARK VINA RESULT:      -8.5      2.968      3.810
REMARK  Name = 
REMARK  7 active torsions:
REMARK  status: ('A' for Active; 'I' for Inactive)
REMARK    1  A    between atoms: C_1  and  C_2
REMARK    2  A    between atoms: C_4  and  O_5
REMARK    3  A    between atoms: O_5  and  C_6
REMARK    4  A    between atoms: C_9  and  N_10
REMARK    5  A    between atoms: C_11  and  C_13
REMARK    6  A    between atoms: C_13  and  C_14
REMARK    7  A    between atoms: C_14  and  N_15
REMARK                            x       y       z     vdW  Elec       q    Type
REMARK                         _______ _______ _______ _____ _____    ______ ____
ROOT
ATOM      1  N   UNL     1       0.926   9.222  19.080  0.00  0.00    +0.000 N 
ATOM      2  C   UNL     1       1.929   9.292  18.125  0.00  0.00    +0.000 C 
ATOM      3  O   UNL     1       2.158  10.264  17.411  0.00  0.00    +0.000 OA
ATOM      4  H   UNL     1       1.040   8.544  19.826  0.00  0.00    +0.000 HD
ENDROOT
BRANCH   1   8
ATOM      5  C   UNL     1      -1.923  12.208  19.893  0.00  0.00    +0.000 A 
ATOM      6  C   UNL     1      -2.098  11.365  18.792  0.00  0.00    +0.000 A 
ATOM      7  C   UNL     1      -1.146  10.386  18.498  0.00  0.00    +0.000 A 
ATOM      8  C   UNL     1      -0.014  10.248  19.302  0.00  0.00    +0.000 A 
ATOM      9  C   UNL     1       0.178  11.115  20.382  0.00  0.00    +0.000 A 
ATOM     10  C   UNL     1      -0.758  12.118  20.657  0.00  0.00    +0.000 A 
BRANCH   5  11
ATOM     11  O   UNL     1      -2.848  13.163  20.241  0.00  0.00    +0.000 OA
BRANCH  11  15
ATOM     12  C   UNL     1      -7.653  12.164  21.076  0.00  0.00    +0.000 C 
ATOM     13  C   UNL     1      -6.186  12.355  21.085  0.00  0.00    +0.000 A 
ATOM     14  C   UNL     1      -5.290  12.615  20.071  0.00  0.00    +0.000 A 
ATOM     15  C   UNL     1      -4.055  12.797  20.729  0.00  0.00    +0.000 A 
ATOM     16  N   UNL     1      -4.134  12.569  22.040  0.00  0.00    +0.000 NA
ATOM     17  N   UNL     1      -5.439  12.312  22.234  0.00  0.00    +0.000 N 
ATOM     18  H   UNL     1      -5.758  12.135  23.181  0.00  0.00    +0.000 HD
ENDBRANCH  11  15
ENDBRANCH   5  11
ENDBRANCH   1   8
BRANCH   2  19
ATOM     19  C   UNL     1       2.758   8.029  18.031  0.00  0.00    +0.000 C 
BRANCH  19  20
ATOM     20  C   UNL     1       2.355   7.044  19.133  0.00  0.00    +0.000 C 
BRANCH  20  21
ATOM     21  N   UNL     1       3.340   5.927  19.240  0.00  0.00    +0.000 N 
ATOM     22  N   UNL     1       4.092   5.783  18.082  0.00  0.00    +0.000 NA
ATOM     23  C   UNL     1       3.804   4.816  17.273  0.00  0.00    +0.000 A 
ATOM     24  C   UNL     1       2.723   3.838  17.547  0.00  0.00    +0.000 A 
ATOM     25  O   UNL     1       2.263   3.169  16.638  0.00  0.00    +0.000 OA
ATOM     26  C   UNL     1       2.331   3.706  18.949  0.00  0.00    +0.000 A 
ATOM     27  C   UNL     1       1.670   2.570  19.421  0.00  0.00    +0.000 A 
ATOM     28  C   UNL     1       1.457   2.446  20.790  0.00  0.00    +0.000 A 
ATOM     29  C   UNL     1       1.893   3.451  21.657  0.00  0.00    +0.000 A 
ATOM     30  C   UNL     1       2.504   4.611  21.155  0.00  0.00    +0.000 A 
ATOM     31  C   UNL     1       2.722   4.758  19.781  0.00  0.00    +0.000 A 
ENDBRANCH  20  21
ENDBRANCH  19  20
ENDBRANCH   2  19
TORSDOF 6
ENDMDL
MODEL 6
REMARK VINA RESULT:      -8.4      3.167      8.911
REMARK  Name = 
REMARK  7 active torsions:
REMARK  status: ('A' for Active; 'I' for Inactive)
REMARK    1  A    between atoms: C_1  and  C_2
REMARK    2  A    between atoms: C_4  and  O_5
REMARK    3  A    between atoms: O_5  and  C_6
REMARK    4  A    between atoms: C_9  and  N_10
REMARK    5  A    between atoms: C_11  and  C_13
REMARK    6  A    between atoms: C_13  and  C_14
REMARK    7  A    between atoms: C_14  and  N_15
REMARK                            x       y       z     vdW  Elec       q    Type
REMARK                         _______ _______ _______ _____ _____    ______ ____
ROOT
ATOM      1  N   UNL     1       2.379   6.329  20.209  0.00  0.00    +0.000 N 
ATOM      2  C   UNL     1       1.993   7.631  19.929  0.00  0.00    +0.000 C 
ATOM      3  O   UNL     1       2.207   8.219  18.873  0.00  0.00    +0.000 OA
ATOM      4  H   UNL     1       1.870   5.839  20.936  0.00  0.00    +0.000 HD
ENDROOT
BRANCH   1   8
ATOM      5  C   UNL     1       4.747   4.092  17.548  0.00  0.00    +0.000 A 
ATOM      6  C   UNL     1       3.402   4.325  17.250  0.00  0.00    +0.000 A 
ATOM      7  C   UNL     1       2.600   5.045  18.137  0.00  0.00    +0.000 A 
ATOM      8  C   UNL     1       3.138   5.533  19.329  0.00  0.00    +0.000 A 
ATOM      9  C   UNL     1       4.475   5.268  19.643  0.00  0.00    +0.000 A 
ATOM     10  C   UNL     1       5.270   4.517  18.770  0.00  0.00    +0.000 A 
BRANCH   5  11
ATOM     11  O   UNL     1       5.583   3.417  16.691  0.00  0.00    +0.000 OA
BRANCH  11  15
ATOM     12  C   UNL     1       7.442   5.122  12.399  0.00  0.00    +0.000 C 
ATOM     13  C   UNL     1       7.033   4.826  13.790  0.00  0.00    +0.000 A 
ATOM     14  C   UNL     1       6.028   4.035  14.302  0.00  0.00    +0.000 A 
ATOM     15  C   UNL     1       6.221   4.078  15.698  0.00  0.00    +0.000 A 
ATOM     16  N   UNL     1       7.198   4.910  16.056  0.00  0.00    +0.000 NA
ATOM     17  N   UNL     1       7.684   5.345  14.880  0.00  0.00    +0.000 N 
ATOM     18  H   UNL     1       8.475   5.980  14.892  0.00  0.00    +0.000 HD
ENDBRANCH  11  15
ENDBRANCH   5  11
ENDBRANCH   1   8
BRANCH   2  19
ATOM     19  C   UNL     1       1.253   8.296  21.069  0.00  0.00    +0.000 C 
BRANCH  19  20
ATOM     20  C   UNL     1       0.394   9.451  20.546  0.00  0.00    +0.000 C 
BRANCH  20  21
ATOM     21  N   UNL     1       0.665  10.708  21.305  0.00  0.00    +0.000 N 
ATOM     22  N   UNL     1       0.140  10.663  22.590  0.00  0.00    +0.000 NA
ATOM     23  C   UNL     1      -0.950  11.315  22.836  0.00  0.00    +0.000 A 
ATOM     24  C   UNL     1      -1.644  12.130  21.809  0.00  0.00    +0.000 A 
ATOM     25  O   UNL     1      -2.812  12.442  21.968  0.00  0.00    +0.000 OA
ATOM     26  C   UNL     1      -0.820  12.563  20.682  0.00  0.00    +0.000 A 
ATOM     27  C   UNL     1      -1.180  13.653  19.888  0.00  0.00    +0.000 A 
ATOM     28  C   UNL     1      -0.280  14.101  18.926  0.00  0.00    +0.000 A 
ATOM     29  C   UNL     1       0.949  13.454  18.767  0.00  0.00    +0.000 A 
ATOM     30  C   UNL     1       1.266  12.324  19.538  0.00  0.00    +0.000 A 
ATOM     31  C   UNL     1       0.371  11.855  20.506  0.00  0.00    +0.000 A 
ENDBRANCH  20  21
ENDBRANCH  19  20
ENDBRANCH   2  19
TORSDOF 6
ENDMDL
MODEL 7
REMARK VINA RESULT:      -8.4      1.965      4.211
REMARK  Name = 
REMARK  7 active torsions:
REMARK  status: ('A' for Active; 'I' for Inactive)
REMARK    1  A    between atoms: C_1  and  C_2
REMARK    2  A    between atoms: C_4  and  O_5
REMARK    3  A    between atoms: O_5  and  C_6
REMARK    4  A    between atoms: C_9  and  N_10
REMARK    5  A    between atoms: C_11  and  C_13
REMARK    6  A    between atoms: C_13  and  C_14
REMARK    7  A    between atoms: C_14  and  N_15
REMARK                            x       y       z     vdW  Elec       q    Type
REMARK                         _______ _______ _______ _____ _____    ______ ____
ROOT
ATOM      1  N   UNL     1       3.091   6.379  19.004  0.00  0.00    +0.000 N 
ATOM      2  C   UNL     1       3.040   5.298  19.870  0.00  0.00    +0.000 C 
ATOM      3  O   UNL     1       2.279   5.196  20.829  0.00  0.00    +0.000 OA
ATOM      4  H   UNL     1       3.483   6.220  18.083  0.00  0.00    +0.000 HD
ENDROOT
BRANCH   1   8
ATOM      5  C   UNL     1       0.633   9.756  19.506  0.00  0.00    +0.000 A 
ATOM      6  C   UNL     1       1.241   9.519  18.270  0.00  0.00    +0.000 A 
ATOM      7  C   UNL     1       2.078   8.415  18.098  0.00  0.00    +0.000 A 
ATOM      8  C   UNL     1       2.315   7.544  19.163  0.00  0.00    +0.000 A 
ATOM      9  C   UNL     1       1.735   7.802  20.410  0.00  0.00    +0.000 A 
ATOM     10  C   UNL     1       0.923   8.928  20.591  0.00  0.00    +0.000 A 
BRANCH   5  11
ATOM     11  O   UNL     1      -0.223  10.810  19.712  0.00  0.00    +0.000 OA
BRANCH  11  15
ATOM     12  C   UNL     1      -3.790  11.055  16.247  0.00  0.00    +0.000 C 
ATOM     13  C   UNL     1      -2.701  11.257  17.228  0.00  0.00    +0.000 A 
ATOM     14  C   UNL     1      -2.242  10.471  18.263  0.00  0.00    +0.000 A 
ATOM     15  C   UNL     1      -1.116  11.161  18.758  0.00  0.00    +0.000 A 
ATOM     16  N   UNL     1      -0.932  12.339  18.161  0.00  0.00    +0.000 NA
ATOM     17  N   UNL     1      -1.900  12.370  17.229  0.00  0.00    +0.000 N 
ATOM     18  H   UNL     1      -1.946  13.174  16.611  0.00  0.00    +0.000 HD
ENDBRANCH  11  15
ENDBRANCH   5  11
ENDBRANCH   1   8
BRANCH   2  19
ATOM     19  C   UNL     1       4.027   4.205  19.524  0.00  0.00    +0.000 C 
BRANCH  19  20
ATOM     20  C   UNL     1       4.366   4.244  18.031  0.00  0.00    +0.000 C 
BRANCH  20  21
ATOM     21  N   UNL     1       5.820   3.995  17.804  0.00  0.00    +0.000 N 
ATOM     22  N   UNL     1       6.607   4.552  18.804  0.00  0.00    +0.000 NA
ATOM     23  C   UNL     1       7.244   5.648  18.552  0.00  0.00    +0.000 A 
ATOM     24  C   UNL     1       7.191   6.319  17.229  0.00  0.00    +0.000 A 
ATOM     25  O   UNL     1       7.510   7.491  17.129  0.00  0.00    +0.000 OA
ATOM     26  C   UNL     1       6.808   5.468  16.104  0.00  0.00    +0.000 A 
ATOM     27  C   UNL     1       7.120   5.811  14.788  0.00  0.00    +0.000 A 
ATOM     28  C   UNL     1       6.857   4.889  13.780  0.00  0.00    +0.000 A 
ATOM     29  C   UNL     1       6.282   3.656  14.098  0.00  0.00    +0.000 A 
ATOM     30  C   UNL     1       5.924   3.355  15.421  0.00  0.00    +0.000 A 
ATOM     31  C   UNL     1       6.175   4.272  16.448  0.00  0.00    +0.000 A 
ENDBRANCH  20  21
ENDBRANCH  19  20
ENDBRANCH   2  19
TORSDOF 6
ENDMDL
MODEL 8
REMARK VINA RESULT:      -8.4      3.135      8.755
REMARK  Name = 
REMARK  7 active torsions:
REMARK  status: ('A' for Active; 'I' for Inactive)
REMARK    1  A    between atoms: C_1  and  C_2
REMARK    2  A    between atoms: C_4  and  O_5
REMARK    3  A    between atoms: O_5  and  C_6
REMARK    4  A    between atoms: C_9  and  N_10
REMARK    5  A    between atoms: C_11  and  C_13
REMARK    6  A    between atoms: C_13  and  C_14
REMARK    7  A    between atoms: C_14  and  N_15
REMARK                            x       y       z     vdW  Elec       q    Type
REMARK                         _______ _______ _______ _____ _____    ______ ____
ROOT
ATOM      1  N   UNL     1       2.478   6.498  20.097  0.00  0.00    +0.000 N 
ATOM      2  C   UNL     1       1.962   7.760  19.847  0.00  0.00    +0.000 C 
ATOM      3  O   UNL     1       2.127   8.399  18.811  0.00  0.00    +0.000 OA
ATOM      4  H   UNL     1       2.015   5.936  20.802  0.00  0.00    +0.000 HD
ENDROOT
BRANCH   1   8
ATOM      5  C   UNL     1       4.922   4.304  17.468  0.00  0.00    +0.000 A 
ATOM      6  C   UNL     1       5.469   4.839  18.638  0.00  0.00    +0.000 A 
ATOM      7  C   UNL     1       4.673   5.590  19.506  0.00  0.00    +0.000 A 
ATOM      8  C   UNL     1       3.328   5.812  19.207  0.00  0.00    +0.000 A 
ATOM      9  C   UNL     1       2.792   5.307  18.018  0.00  0.00    +0.000 A 
ATOM     10  C   UNL     1       3.598   4.583  17.131  0.00  0.00    +0.000 A 
BRANCH   5  11
ATOM     11  O   UNL     1       5.658   3.532  16.602  0.00  0.00    +0.000 OA
BRANCH  11  15
ATOM     12  C   UNL     1       7.396   4.845  12.125  0.00  0.00    +0.000 C 
ATOM     13  C   UNL     1       7.031   4.672  13.548  0.00  0.00    +0.000 A 
ATOM     14  C   UNL     1       6.031   3.945  14.156  0.00  0.00    +0.000 A 
ATOM     15  C   UNL     1       6.272   4.098  15.537  0.00  0.00    +0.000 A 
ATOM     16  N   UNL     1       7.276   4.937  15.793  0.00  0.00    +0.000 NA
ATOM     17  N   UNL     1       7.728   5.264  14.570  0.00  0.00    +0.000 N 
ATOM     18  H   UNL     1       8.530   5.883  14.504  0.00  0.00    +0.000 HD
ENDBRANCH  11  15
ENDBRANCH   5  11
ENDBRANCH   1   8
BRANCH   2  19
ATOM     19  C   UNL     1       1.142   8.310  20.994  0.00  0.00    +0.000 C 
BRANCH  19  20
ATOM     20  C   UNL     1       0.958   9.823  20.840  0.00  0.00    +0.000 C 
BRANCH  20  21
ATOM     21  N   UNL     1      -0.478  10.170  20.624  0.00  0.00    +0.000 N 
ATOM     22  N   UNL     1      -0.869   9.972  19.306  0.00  0.00    +0.000 NA
ATOM     23  C   UNL     1      -0.998  11.004  18.538  0.00  0.00    +0.000 A 
ATOM     24  C   UNL     1      -0.775  12.391  19.015  0.00  0.00    +0.000 A 
ATOM     25  O   UNL     1      -0.574  13.286  18.212  0.00  0.00    +0.000 OA
ATOM     26  C   UNL     1      -0.884  12.587  20.460  0.00  0.00    +0.000 A 
ATOM     27  C   UNL     1      -1.129  13.846  21.011  0.00  0.00    +0.000 A 
ATOM     28  C   UNL     1      -1.366  13.938  22.379  0.00  0.00    +0.000 A 
ATOM     29  C   UNL     1      -1.344  12.785  23.169  0.00  0.00    +0.000 A 
ATOM     30  C   UNL     1      -1.039  11.537  22.602  0.00  0.00    +0.000 A 
ATOM     31  C   UNL     1      -0.792  11.425  21.229  0.00  0.00    +0.000 A 
ENDBRANCH  20  21
ENDBRANCH  19  20
ENDBRANCH   2  19
TORSDOF 6
ENDMDL
MODEL 9
REMARK VINA RESULT:      -8.4      3.013      7.953
REMARK  Name = 
REMARK  7 active torsions:
REMARK  status: ('A' for Active; 'I' for Inactive)
REMARK    1  A    between atoms: C_1  and  C_2
REMARK    2  A    between atoms: C_4  and  O_5
REMARK    3  A    between atoms: O_5  and  C_6
REMARK    4  A    between atoms: C_9  and  N_10
REMARK    5  A    between atoms: C_11  and  C_13
REMARK    6  A    between atoms: C_13  and  C_14
REMARK    7  A    between atoms: C_14  and  N_15
REMARK                            x       y       z     vdW  Elec       q    Type
REMARK                         _______ _______ _______ _____ _____    ______ ____
ROOT
ATOM      1  N   UNL     1       4.144   5.601  19.698  0.00  0.00    +0.000 N 
ATOM      2  C   UNL     1       2.870   5.063  19.601  0.00  0.00    +0.000 C 
ATOM      3  O   UNL     1       2.418   4.488  18.615  0.00  0.00    +0.000 OA
ATOM      4  H   UNL     1       4.525   5.733  20.628  0.00  0.00    +0.000 HD
ENDROOT
BRANCH   1   8
ATOM      5  C   UNL     1       6.775   5.584  16.417  0.00  0.00    +0.000 A 
ATOM      6  C   UNL     1       7.052   4.787  17.531  0.00  0.00    +0.000 A 
ATOM      7  C   UNL     1       6.199   4.803  18.636  0.00  0.00    +0.000 A 
ATOM      8  C   UNL     1       5.066   5.618  18.633  0.00  0.00    +0.000 A 
ATOM      9  C   UNL     1       4.810   6.443  17.533  0.00  0.00    +0.000 A 
ATOM     10  C   UNL     1       5.684   6.452  16.439  0.00  0.00    +0.000 A 
BRANCH   5  11
ATOM     11  O   UNL     1       7.568   5.576  15.294  0.00  0.00    +0.000 OA
BRANCH  11  15
ATOM     12  C   UNL     1       5.567   2.592  11.848  0.00  0.00    +0.000 C 
ATOM     13  C   UNL     1       6.255   3.626  12.652  0.00  0.00    +0.000 A 
ATOM     14  C   UNL     1       6.168   3.957  13.987  0.00  0.00    +0.000 A 
ATOM     15  C   UNL     1       7.151   4.953  14.168  0.00  0.00    +0.000 A 
ATOM     16  N   UNL     1       7.742   5.304  13.027  0.00  0.00    +0.000 NA
ATOM     17  N   UNL     1       7.190   4.477  12.122  0.00  0.00    +0.000 N 
ATOM     18  H   UNL     1       7.511   4.534  11.161  0.00  0.00    +0.000 HD
ENDBRANCH  11  15
ENDBRANCH   5  11
ENDBRANCH   1   8
BRANCH   2  19
ATOM     19  C   UNL     1       2.047   5.239  20.859  0.00  0.00    +0.000 C 
BRANCH  19  20
ATOM     20  C   UNL     1       1.094   6.430  20.711  0.00  0.00    +0.000 C 
BRANCH  20  21
ATOM     21  N   UNL     1       1.822   7.723  20.875  0.00  0.00    +0.000 N 
ATOM     22  N   UNL     1       1.755   8.197  22.179  0.00  0.00    +0.000 NA
ATOM     23  C   UNL     1       0.945   9.169  22.443  0.00  0.00    +0.000 A 
ATOM     24  C   UNL     1       0.105   9.816  21.404  0.00  0.00    +0.000 A 
ATOM     25  O   UNL     1      -0.868  10.474  21.732  0.00  0.00    +0.000 OA
ATOM     26  C   UNL     1       0.571   9.660  20.028  0.00  0.00    +0.000 A 
ATOM     27  C   UNL     1       0.168  10.532  19.015  0.00  0.00    +0.000 A 
ATOM     28  C   UNL     1       0.762  10.415  17.762  0.00  0.00    +0.000 A 
ATOM     29  C   UNL     1       1.730   9.433  17.539  0.00  0.00    +0.000 A 
ATOM     30  C   UNL     1       2.079   8.530  18.556  0.00  0.00    +0.000 A 
ATOM     31  C   UNL     1       1.489   8.627  19.821  0.00  0.00    +0.000 A 
ENDBRANCH  20  21
ENDBRANCH  19  20
ENDBRANCH   2  19
TORSDOF 6
ENDMDL
