MODEL 1
REMARK VINA RESULT:     -10.2      0.000      0.000
REMARK  Name = 
REMARK  5 active torsions:
REMARK  status: ('A' for Active; 'I' for Inactive)
REMARK    1  A    between atoms: C_2  and  C_3
REMARK    2  A    between atoms: C_15  and  C_16
REMARK    3  A    between atoms: C_19  and  O_20
REMARK    4  A    between atoms: O_20  and  C_21
REMARK    5  A    between atoms: C_21  and  C_22
REMARK                            x       y       z     vdW  Elec       q    Type
REMARK                         _______ _______ _______ _____ _____    ______ ____
ROOT
ATOM      1  C   UNL     1       4.245   6.000  18.239  0.00  0.00    +0.000 C 
ATOM      2  C   UNL     1       4.287   4.960  17.382  0.00  0.00    +0.000 C 
ATOM      3  N   UNL     1       3.390   3.916  17.472  0.00  0.00    +0.000 N 
ATOM      4  C   UNL     1       2.411   3.880  18.400  0.00  0.00    +0.000 A 
ATOM      5  N   UNL     1       1.461   3.013  18.655  0.00  0.00    +0.000 NA
ATOM      6  N   UNL     1       0.772   3.520  19.742  0.00  0.00    +0.000 NA
ATOM      7  N   UNL     1       1.298   4.668  20.156  0.00  0.00    +0.000 NA
ATOM      8  N   UNL     1       2.304   4.904  19.299  0.00  0.00    +0.000 N 
ATOM      9  C   UNL     1       3.190   6.065  19.344  0.00  0.00    +0.000 C 
ATOM     10  H   UNL     1       3.496   3.145  16.819  0.00  0.00    +0.000 HD
ENDROOT
BRANCH   2  11
ATOM     11  C   UNL     1       5.301   4.900  16.326  0.00  0.00    +0.000 A 
ATOM     12  C   UNL     1       5.118   4.098  15.199  0.00  0.00    +0.000 A 
ATOM     13  C   UNL     1       6.095   4.069  14.206  0.00  0.00    +0.000 A 
ATOM     14  C   UNL     1       7.230   4.847  14.377  0.00  0.00    +0.000 A 
ATOM     15  N   UNL     1       7.444   5.634  15.454  0.00  0.00    +0.000 NA
ATOM     16  C   UNL     1       6.477   5.642  16.402  0.00  0.00    +0.000 A 
ENDBRANCH   2  11
BRANCH   9  17
ATOM     17  C   UNL     1       2.395   7.356  19.262  0.00  0.00    +0.000 A 
ATOM     18  C   UNL     1       2.265   8.047  18.044  0.00  0.00    +0.000 A 
ATOM     19  C   UNL     1       1.485   9.204  17.967  0.00  0.00    +0.000 A 
ATOM     20  C   UNL     1       0.821   9.676  19.098  0.00  0.00    +0.000 A 
ATOM     21  C   UNL     1       1.004   9.036  20.323  0.00  0.00    +0.000 A 
ATOM     22  C   UNL     1       1.767   7.877  20.402  0.00  0.00    +0.000 A 
BRANCH  20  23
ATOM     23  O   UNL     1       0.002  10.760  18.913  0.00  0.00    +0.000 OA
BRANCH  23  24
ATOM     24  C   UNL     1      -1.359  10.522  19.282  0.00  0.00    +0.000 C 
BRANCH  24  25
ATOM     25  C   UNL     1      -2.251  10.641  18.078  0.00  0.00    +0.000 A 
ATOM     26  C   UNL     1      -1.955   9.923  16.911  0.00  0.00    +0.000 A 
ATOM     27  C   UNL     1      -2.795  10.000  15.802  0.00  0.00    +0.000 A 
ATOM     28  C   UNL     1      -3.938  10.801  15.853  0.00  0.00    +0.000 A 
ATOM     29  C   UNL     1      -4.238  11.522  17.007  0.00  0.00    +0.000 A 
ATOM     30  C   UNL     1      -3.397  11.443  18.119  0.00  0.00    +0.000 A 
ENDBRANCH  24  25
ENDBRANCH  23  24
ENDBRANCH  20  23
ENDBRANCH   9  17
TORSDOF 5
ENDMDL
MODEL 2
REMARK VINA RESULT:      -9.9      0.735      1.512
REMARK  Name = 
REMARK  5 active torsions:
REMARK  status: ('A' for Active; 'I' for Inactive)
REMARK    1  A    between atoms: C_2  and  C_3
REMARK    2  A    between atoms: C_15  and  C_16
REMARK    3  A    between atoms: C_19  and  O_20
REMARK    4  A    between atoms: O_20  and  C_21
REMARK    5  A    between atoms: C_21  and  C_22
REMARK                            x       y       z     vdW  Elec       q    Type
REMARK                         _______ _______ _______ _____ _____    ______ ____
ROOT
ATOM      1  C   UNL     1       4.265   5.598  18.267  0.00  0.00    +0.000 C 
ATOM      2  C   UNL     1       4.301   4.697  17.265  0.00  0.00    +0.000 C 
ATOM      3  N   UNL     1       3.373   3.681  17.176  0.00  0.00    +0.000 N 
ATOM      4  C   UNL     1       2.368   3.537  18.064  0.00  0.00    +0.000 A 
ATOM      5  N   UNL     1       1.387   2.674  18.163  0.00  0.00    +0.000 NA
ATOM      6  N   UNL     1       0.683   3.033  19.298  0.00  0.00    +0.000 NA
ATOM      7  N   UNL     1       1.229   4.089  19.893  0.00  0.00    +0.000 NA
ATOM      8  N   UNL     1       2.264   4.418  19.105  0.00  0.00    +0.000 N 
ATOM      9  C   UNL     1       3.181   5.530  19.345  0.00  0.00    +0.000 C 
ATOM     10  H   UNL     1       3.475   3.014  16.416  0.00  0.00    +0.000 HD
ENDROOT
BRANCH   2  11
ATOM     11  C   UNL     1       5.342   4.765  16.236  0.00  0.00    +0.000 A 
ATOM     12  C   UNL     1       5.208   4.071  15.033  0.00  0.00    +0.000 A 
ATOM     13  C   UNL     1       6.211   4.161  14.069  0.00  0.00    +0.000 A 
ATOM     14  C   UNL     1       7.319   4.947  14.344  0.00  0.00    +0.000 A 
ATOM     15  N   UNL     1       7.485   5.631  15.496  0.00  0.00    +0.000 NA
ATOM     16  C   UNL     1       6.495   5.524  16.415  0.00  0.00    +0.000 A 
ENDBRANCH   2  11
BRANCH   9  17
ATOM     17  C   UNL     1       2.426   6.844  19.441  0.00  0.00    +0.000 A 
ATOM     18  C   UNL     1       1.801   7.231  20.639  0.00  0.00    +0.000 A 
ATOM     19  C   UNL     1       1.156   8.467  20.734  0.00  0.00    +0.000 A 
ATOM     20  C   UNL     1       1.137   9.331  19.640  0.00  0.00    +0.000 A 
ATOM     21  C   UNL     1       1.693   8.923  18.429  0.00  0.00    +0.000 A 
ATOM     22  C   UNL     1       2.348   7.700  18.334  0.00  0.00    +0.000 A 
BRANCH  20  23
ATOM     23  O   UNL     1       0.569  10.561  19.848  0.00  0.00    +0.000 OA
BRANCH  23  24
ATOM     24  C   UNL     1       0.213  11.241  18.642  0.00  0.00    +0.000 C 
BRANCH  24  25
ATOM     25  C   UNL     1      -1.241  11.016  18.329  0.00  0.00    +0.000 A 
ATOM     26  C   UNL     1      -2.221  11.815  18.934  0.00  0.00    +0.000 A 
ATOM     27  C   UNL     1      -3.567  11.637  18.624  0.00  0.00    +0.000 A 
ATOM     28  C   UNL     1      -3.943  10.653  17.707  0.00  0.00    +0.000 A 
ATOM     29  C   UNL     1      -2.976   9.850  17.104  0.00  0.00    +0.000 A 
ATOM     30  C   UNL     1      -1.627  10.031  17.414  0.00  0.00    +0.000 A 
ENDBRANCH  24  25
ENDBRANCH  23  24
ENDBRANCH  20  23
ENDBRANCH   9  17
TORSDOF 5
ENDMDL
MODEL 3
REMARK VINA RESULT:      -9.5      2.064      2.750
REMARK  Name = 
REMARK  5 active torsions:
REMARK  status: ('A' for Active; 'I' for Inactive)
REMARK    1  A    between atoms: C_2  and  C_3
REMARK    2  A    between atoms: C_15  and  C_16
REMARK    3  A    between atoms: C_19  and  O_20
REMARK    4  A    between atoms: O_20  and  C_21
REMARK    5  A    between atoms: C_21  and  C_22
REMARK                            x       y       z     vdW  Elec       q    Type
REMARK                         _______ _______ _______ _____ _____    ______ ____
ROOT
ATOM      1  C   UNL     1       4.309   5.643  18.139  0.00  0.00    +0.000 C 
ATOM      2  C   UNL     1       4.345   4.721  17.156  0.00  0.00    +0.000 C 
ATOM      3  N   UNL     1       3.422   3.698  17.096  0.00  0.00    +0.000 N 
ATOM      4  C   UNL     1       2.424   3.566  17.994  0.00  0.00    +0.000 A 
ATOM      5  N   UNL     1       1.450   2.699  18.119  0.00  0.00    +0.000 NA
ATOM      6  N   UNL     1       0.751   3.078  19.251  0.00  0.00    +0.000 NA
ATOM      7  N   UNL     1       1.295   4.150  19.819  0.00  0.00    +0.000 NA
ATOM      8  N   UNL     1       2.323   4.469  19.017  0.00  0.00    +0.000 N 
ATOM      9  C   UNL     1       3.234   5.591  19.226  0.00  0.00    +0.000 C 
ATOM     10  H   UNL     1       3.523   3.015  16.349  0.00  0.00    +0.000 HD
ENDROOT
BRANCH   2  11
ATOM     11  C   UNL     1       5.378   4.773  16.118  0.00  0.00    +0.000 A 
ATOM     12  C   UNL     1       5.236   4.058  14.928  0.00  0.00    +0.000 A 
ATOM     13  C   UNL     1       6.230   4.134  13.955  0.00  0.00    +0.000 A 
ATOM     14  C   UNL     1       7.339   4.926  14.208  0.00  0.00    +0.000 A 
ATOM     15  N   UNL     1       7.513   5.631  15.347  0.00  0.00    +0.000 NA
ATOM     16  C   UNL     1       6.530   5.538  16.275  0.00  0.00    +0.000 A 
ENDBRANCH   2  11
BRANCH   9  17
ATOM     17  C   UNL     1       2.471   6.902  19.299  0.00  0.00    +0.000 A 
ATOM     18  C   UNL     1       1.874   7.323  20.500  0.00  0.00    +0.000 A 
ATOM     19  C   UNL     1       1.222   8.557  20.572  0.00  0.00    +0.000 A 
ATOM     20  C   UNL     1       1.168   9.386  19.452  0.00  0.00    +0.000 A 
ATOM     21  C   UNL     1       1.696   8.942  18.240  0.00  0.00    +0.000 A 
ATOM     22  C   UNL     1       2.358   7.722  18.167  0.00  0.00    +0.000 A 
BRANCH  20  23
ATOM     23  O   UNL     1       0.595  10.617  19.635  0.00  0.00    +0.000 OA
BRANCH  23  24
ATOM     24  C   UNL     1       0.710  11.112  20.971  0.00  0.00    +0.000 C 
BRANCH  24  25
ATOM     25  C   UNL     1      -0.617  11.634  21.446  0.00  0.00    +0.000 A 
ATOM     26  C   UNL     1      -1.464  12.313  20.559  0.00  0.00    +0.000 A 
ATOM     27  C   UNL     1      -2.710  12.769  20.981  0.00  0.00    +0.000 A 
ATOM     28  C   UNL     1      -3.118  12.552  22.299  0.00  0.00    +0.000 A 
ATOM     29  C   UNL     1      -2.281  11.882  23.190  0.00  0.00    +0.000 A 
ATOM     30  C   UNL     1      -1.033  11.423  22.766  0.00  0.00    +0.000 A 
ENDBRANCH  24  25
ENDBRANCH  23  24
ENDBRANCH  20  23
ENDBRANCH   9  17
TORSDOF 5
ENDMDL
MODEL 4
REMARK VINA RESULT:      -9.4      0.735      1.316
REMARK  Name = 
REMARK  5 active torsions:
REMARK  status: ('A' for Active; 'I' for Inactive)
REMARK    1  A    between atoms: C_2  and  C_3
REMARK    2  A    between atoms: C_15  and  C_16
REMARK    3  A    between atoms: C_19  and  O_20
REMARK    4  A    between atoms: O_20  and  C_21
REMARK    5  A    between atoms: C_21  and  C_22
REMARK                            x       y       z     vdW  Elec       q    Type
REMARK                         _______ _______ _______ _____ _____    ______ ____
ROOT
ATOM      1  C   UNL     1       4.268   5.892  18.176  0.00  0.00    +0.000 C 
ATOM      2  C   UNL     1       4.306   4.880  17.287  0.00  0.00    +0.000 C 
ATOM      3  N   UNL     1       3.411   3.832  17.350  0.00  0.00    +0.000 N 
ATOM      4  C   UNL     1       2.438   3.765  18.283  0.00  0.00    +0.000 A 
ATOM      5  N   UNL     1       1.491   2.890  18.517  0.00  0.00    +0.000 NA
ATOM      6  N   UNL     1       0.809   3.361  19.624  0.00  0.00    +0.000 NA
ATOM      7  N   UNL     1       1.336   4.496  20.071  0.00  0.00    +0.000 NA
ATOM      8  N   UNL     1       2.336   4.760  19.215  0.00  0.00    +0.000 N 
ATOM      9  C   UNL     1       3.220   5.921  19.290  0.00  0.00    +0.000 C 
ATOM     10  H   UNL     1       3.513   3.082  16.672  0.00  0.00    +0.000 HD
ENDROOT
BRANCH   2  11
ATOM     11  C   UNL     1       5.313   4.855  16.223  0.00  0.00    +0.000 A 
ATOM     12  C   UNL     1       5.111   4.108  15.061  0.00  0.00    +0.000 A 
ATOM     13  C   UNL     1       6.082   4.112  14.062  0.00  0.00    +0.000 A 
ATOM     14  C   UNL     1       7.228   4.865  14.260  0.00  0.00    +0.000 A 
ATOM     15  N   UNL     1       7.460   5.599  15.371  0.00  0.00    +0.000 NA
ATOM     16  C   UNL     1       6.499   5.577  16.325  0.00  0.00    +0.000 A 
ENDBRANCH   2  11
BRANCH   9  17
ATOM     17  C   UNL     1       2.424   7.212  19.255  0.00  0.00    +0.000 A 
ATOM     18  C   UNL     1       2.251   7.920  18.052  0.00  0.00    +0.000 A 
ATOM     19  C   UNL     1       1.469   9.078  18.019  0.00  0.00    +0.000 A 
ATOM     20  C   UNL     1       0.845   9.534  19.180  0.00  0.00    +0.000 A 
ATOM     21  C   UNL     1       1.071   8.877  20.388  0.00  0.00    +0.000 A 
ATOM     22  C   UNL     1       1.837   7.717  20.424  0.00  0.00    +0.000 A 
BRANCH  20  23
ATOM     23  O   UNL     1       0.020  10.620  19.038  0.00  0.00    +0.000 OA
BRANCH  23  24
ATOM     24  C   UNL     1      -0.894  10.509  17.945  0.00  0.00    +0.000 C 
BRANCH  24  25
ATOM     25  C   UNL     1      -2.250  11.015  18.349  0.00  0.00    +0.000 A 
ATOM     26  C   UNL     1      -2.368  11.975  19.364  0.00  0.00    +0.000 A 
ATOM     27  C   UNL     1      -3.618  12.475  19.722  0.00  0.00    +0.000 A 
ATOM     28  C   UNL     1      -4.762  12.016  19.067  0.00  0.00    +0.000 A 
ATOM     29  C   UNL     1      -4.656  11.059  18.059  0.00  0.00    +0.000 A 
ATOM     30  C   UNL     1      -3.403  10.559  17.700  0.00  0.00    +0.000 A 
ENDBRANCH  24  25
ENDBRANCH  23  24
ENDBRANCH  20  23
ENDBRANCH   9  17
TORSDOF 5
ENDMDL
MODEL 5
REMARK VINA RESULT:      -9.4      2.019      2.588
REMARK  Name = 
REMARK  5 active torsions:
REMARK  status: ('A' for Active; 'I' for Inactive)
REMARK    1  A    between atoms: C_2  and  C_3
REMARK    2  A    between atoms: C_15  and  C_16
REMARK    3  A    between atoms: C_19  and  O_20
REMARK    4  A    between atoms: O_20  and  C_21
REMARK    5  A    between atoms: C_21  and  C_22
REMARK                            x       y       z     vdW  Elec       q    Type
REMARK                         _______ _______ _______ _____ _____    ______ ____
ROOT
ATOM      1  C   UNL     1       4.312   5.691  18.121  0.00  0.00    +0.000 C 
ATOM      2  C   UNL     1       4.324   4.759  17.147  0.00  0.00    +0.000 C 
ATOM      3  N   UNL     1       3.380   3.754  17.101  0.00  0.00    +0.000 N 
ATOM      4  C   UNL     1       2.384   3.652  18.005  0.00  0.00    +0.000 A 
ATOM      5  N   UNL     1       1.393   2.806  18.143  0.00  0.00    +0.000 NA
ATOM      6  N   UNL     1       0.707   3.211  19.274  0.00  0.00    +0.000 NA
ATOM      7  N   UNL     1       1.275   4.277  19.829  0.00  0.00    +0.000 NA
ATOM      8  N   UNL     1       2.306   4.566  19.019  0.00  0.00    +0.000 N 
ATOM      9  C   UNL     1       3.241   5.672  19.213  0.00  0.00    +0.000 C 
ATOM     10  H   UNL     1       3.464   3.062  16.361  0.00  0.00    +0.000 HD
ENDROOT
BRANCH   2  11
ATOM     11  C   UNL     1       5.353   4.779  16.105  0.00  0.00    +0.000 A 
ATOM     12  C   UNL     1       5.204   4.034  14.934  0.00  0.00    +0.000 A 
ATOM     13  C   UNL     1       6.195   4.081  13.955  0.00  0.00    +0.000 A 
ATOM     14  C   UNL     1       7.308   4.874  14.184  0.00  0.00    +0.000 A 
ATOM     15  N   UNL     1       7.489   5.607  15.304  0.00  0.00    +0.000 NA
ATOM     16  C   UNL     1       6.510   5.542  16.238  0.00  0.00    +0.000 A 
ENDBRANCH   2  11
BRANCH   9  17
ATOM     17  C   UNL     1       2.505   6.998  19.276  0.00  0.00    +0.000 A 
ATOM     18  C   UNL     1       2.365   7.800  18.130  0.00  0.00    +0.000 A 
ATOM     19  C   UNL     1       1.637   8.993  18.185  0.00  0.00    +0.000 A 
ATOM     20  C   UNL     1       1.036   9.390  19.378  0.00  0.00    +0.000 A 
ATOM     21  C   UNL     1       1.232   8.636  20.534  0.00  0.00    +0.000 A 
ATOM     22  C   UNL     1       1.943   7.442  20.481  0.00  0.00    +0.000 A 
BRANCH  20  23
ATOM     23  O   UNL     1       0.263  10.520  19.321  0.00  0.00    +0.000 OA
BRANCH  23  24
ATOM     24  C   UNL     1       0.538  11.459  20.364  0.00  0.00    +0.000 C 
BRANCH  24  25
ATOM     25  C   UNL     1      -0.718  11.764  21.131  0.00  0.00    +0.000 A 
ATOM     26  C   UNL     1      -0.834  11.375  22.473  0.00  0.00    +0.000 A 
ATOM     27  C   UNL     1      -1.980  11.684  23.202  0.00  0.00    +0.000 A 
ATOM     28  C   UNL     1      -3.022  12.385  22.591  0.00  0.00    +0.000 A 
ATOM     29  C   UNL     1      -2.918  12.773  21.256  0.00  0.00    +0.000 A 
ATOM     30  C   UNL     1      -1.769  12.464  20.526  0.00  0.00    +0.000 A 
ENDBRANCH  24  25
ENDBRANCH  23  24
ENDBRANCH  20  23
ENDBRANCH   9  17
TORSDOF 5
ENDMDL
MODEL 6
REMARK VINA RESULT:      -9.3      2.084      3.009
REMARK  Name = 
REMARK  5 active torsions:
REMARK  status: ('A' for Active; 'I' for Inactive)
REMARK    1  A    between atoms: C_2  and  C_3
REMARK    2  A    between atoms: C_15  and  C_16
REMARK    3  A    between atoms: C_19  and  O_20
REMARK    4  A    between atoms: O_20  and  C_21
REMARK    5  A    between atoms: C_21  and  C_22
REMARK                            x       y       z     vdW  Elec       q    Type
REMARK                         _______ _______ _______ _____ _____    ______ ____
ROOT
ATOM      1  C   UNL     1       4.219   5.652  18.298  0.00  0.00    +0.000 C 
ATOM      2  C   UNL     1       4.247   4.752  17.294  0.00  0.00    +0.000 C 
ATOM      3  N   UNL     1       3.313   3.740  17.208  0.00  0.00    +0.000 N 
ATOM      4  C   UNL     1       2.311   3.600  18.100  0.00  0.00    +0.000 A 
ATOM      5  N   UNL     1       1.327   2.740  18.203  0.00  0.00    +0.000 NA
ATOM      6  N   UNL     1       0.630   3.102  19.342  0.00  0.00    +0.000 NA
ATOM      7  N   UNL     1       1.184   4.154  19.936  0.00  0.00    +0.000 NA
ATOM      8  N   UNL     1       2.217   4.479  19.143  0.00  0.00    +0.000 N 
ATOM      9  C   UNL     1       3.140   5.587  19.381  0.00  0.00    +0.000 C 
ATOM     10  H   UNL     1       3.409   3.074  16.446  0.00  0.00    +0.000 HD
ENDROOT
BRANCH   2  11
ATOM     11  C   UNL     1       5.283   4.816  16.261  0.00  0.00    +0.000 A 
ATOM     12  C   UNL     1       5.168   4.077  15.082  0.00  0.00    +0.000 A 
ATOM     13  C   UNL     1       6.166   4.165  14.113  0.00  0.00    +0.000 A 
ATOM     14  C   UNL     1       7.249   4.994  14.357  0.00  0.00    +0.000 A 
ATOM     15  N   UNL     1       7.396   5.723  15.485  0.00  0.00    +0.000 NA
ATOM     16  C   UNL     1       6.412   5.617  16.410  0.00  0.00    +0.000 A 
ENDBRANCH   2  11
BRANCH   9  17
ATOM     17  C   UNL     1       2.391   6.904  19.482  0.00  0.00    +0.000 A 
ATOM     18  C   UNL     1       1.789   7.300  20.689  0.00  0.00    +0.000 A 
ATOM     19  C   UNL     1       1.150   8.539  20.787  0.00  0.00    +0.000 A 
ATOM     20  C   UNL     1       1.116   9.397  19.689  0.00  0.00    +0.000 A 
ATOM     21  C   UNL     1       1.649   8.980  18.471  0.00  0.00    +0.000 A 
ATOM     22  C   UNL     1       2.297   7.754  18.371  0.00  0.00    +0.000 A 
BRANCH  20  23
ATOM     23  O   UNL     1       0.555  10.630  19.900  0.00  0.00    +0.000 OA
BRANCH  23  24
ATOM     24  C   UNL     1       0.273  11.347  18.695  0.00  0.00    +0.000 C 
BRANCH  24  25
ATOM     25  C   UNL     1       1.026  12.648  18.677  0.00  0.00    +0.000 A 
ATOM     26  C   UNL     1       2.375  12.673  18.296  0.00  0.00    +0.000 A 
ATOM     27  C   UNL     1       3.072  13.878  18.243  0.00  0.00    +0.000 A 
ATOM     28  C   UNL     1       2.423  15.069  18.574  0.00  0.00    +0.000 A 
ATOM     29  C   UNL     1       1.083  15.054  18.958  0.00  0.00    +0.000 A 
ATOM     30  C   UNL     1       0.385  13.846  19.010  0.00  0.00    +0.000 A 
ENDBRANCH  24  25
ENDBRANCH  23  24
ENDBRANCH  20  23
ENDBRANCH   9  17
TORSDOF 5
ENDMDL
MODEL 7
REMARK VINA RESULT:      -9.2      0.985      1.691
REMARK  Name = 
REMARK  5 active torsions:
REMARK  status: ('A' for Active; 'I' for Inactive)
REMARK    1  A    between atoms: C_2  and  C_3
REMARK    2  A    between atoms: C_15  and  C_16
REMARK    3  A    between atoms: C_19  and  O_20
REMARK    4  A    between atoms: O_20  and  C_21
REMARK    5  A    between atoms: C_21  and  C_22
REMARK                            x       y       z     vdW  Elec       q    Type
REMARK                         _______ _______ _______ _____ _____    ______ ____
ROOT
ATOM      1  C   UNL     1       4.196   6.126  18.291  0.00  0.00    +0.000 C 
ATOM      2  C   UNL     1       4.268   5.037  17.500  0.00  0.00    +0.000 C 
ATOM      3  N   UNL     1       3.400   3.976  17.655  0.00  0.00    +0.000 N 
ATOM      4  C   UNL     1       2.422   3.969  18.584  0.00  0.00    +0.000 A 
ATOM      5  N   UNL     1       1.496   3.094  18.893  0.00  0.00    +0.000 NA
ATOM      6  N   UNL     1       0.793   3.647  19.948  0.00  0.00    +0.000 NA
ATOM      7  N   UNL     1       1.287   4.832  20.291  0.00  0.00    +0.000 NA
ATOM      8  N   UNL     1       2.286   5.043  19.420  0.00  0.00    +0.000 N 
ATOM      9  C   UNL     1       3.139   6.229  19.392  0.00  0.00    +0.000 C 
ATOM     10  H   UNL     1       3.527   3.170  17.049  0.00  0.00    +0.000 HD
ENDROOT
BRANCH   2  11
ATOM     11  C   UNL     1       5.283   4.942  16.448  0.00  0.00    +0.000 A 
ATOM     12  C   UNL     1       5.099   4.105  15.346  0.00  0.00    +0.000 A 
ATOM     13  C   UNL     1       6.078   4.042  14.357  0.00  0.00    +0.000 A 
ATOM     14  C   UNL     1       7.214   4.821  14.505  0.00  0.00    +0.000 A 
ATOM     15  N   UNL     1       7.429   5.642  15.557  0.00  0.00    +0.000 NA
ATOM     16  C   UNL     1       6.461   5.682  16.503  0.00  0.00    +0.000 A 
ENDBRANCH   2  11
BRANCH   9  17
ATOM     17  C   UNL     1       2.309   7.490  19.233  0.00  0.00    +0.000 A 
ATOM     18  C   UNL     1       1.675   8.080  20.341  0.00  0.00    +0.000 A 
ATOM     19  C   UNL     1       0.959   9.272  20.194  0.00  0.00    +0.000 A 
ATOM     20  C   UNL     1       0.879   9.890  18.947  0.00  0.00    +0.000 A 
ATOM     21  C   UNL     1       1.445   9.272  17.833  0.00  0.00    +0.000 A 
ATOM     22  C   UNL     1       2.169   8.094  17.976  0.00  0.00    +0.000 A 
BRANCH  20  23
ATOM     23  O   UNL     1       0.241  11.103  18.910  0.00  0.00    +0.000 OA
BRANCH  23  24
ATOM     24  C   UNL     1      -0.454  11.423  20.118  0.00  0.00    +0.000 C 
BRANCH  24  25
ATOM     25  C   UNL     1      -1.885  11.773  19.816  0.00  0.00    +0.000 A 
ATOM     26  C   UNL     1      -2.488  11.308  18.640  0.00  0.00    +0.000 A 
ATOM     27  C   UNL     1      -3.823  11.598  18.368  0.00  0.00    +0.000 A 
ATOM     28  C   UNL     1      -4.565  12.360  19.273  0.00  0.00    +0.000 A 
ATOM     29  C   UNL     1      -3.973  12.830  20.444  0.00  0.00    +0.000 A 
ATOM     30  C   UNL     1      -2.635  12.538  20.716  0.00  0.00    +0.000 A 
ENDBRANCH  24  25
ENDBRANCH  23  24
ENDBRANCH  20  23
ENDBRANCH   9  17
TORSDOF 5
ENDMDL
MODEL 8
REMARK VINA RESULT:      -9.1      2.033      3.265
REMARK  Name = 
REMARK  5 active torsions:
REMARK  status: ('A' for Active; 'I' for Inactive)
REMARK    1  A    between atoms: C_2  and  C_3
REMARK    2  A    between atoms: C_15  and  C_16
REMARK    3  A    between atoms: C_19  and  O_20
REMARK    4  A    between atoms: O_20  and  C_21
REMARK    5  A    between atoms: C_21  and  C_22
REMARK                            x       y       z     vdW  Elec       q    Type
REMARK                         _______ _______ _______ _____ _____    ______ ____
ROOT
ATOM      1  C   UNL     1       4.238   5.605  18.343  0.00  0.00    +0.000 C 
ATOM      2  C   UNL     1       4.243   4.725  17.321  0.00  0.00    +0.000 C 
ATOM      3  N   UNL     1       3.285   3.739  17.216  0.00  0.00    +0.000 N 
ATOM      4  C   UNL     1       2.280   3.605  18.106  0.00  0.00    +0.000 A 
ATOM      5  N   UNL     1       1.275   2.768  18.193  0.00  0.00    +0.000 NA
ATOM      6  N   UNL     1       0.587   3.124  19.338  0.00  0.00    +0.000 NA
ATOM      7  N   UNL     1       1.167   4.150  19.953  0.00  0.00    +0.000 NA
ATOM      8  N   UNL     1       2.208   4.466  19.166  0.00  0.00    +0.000 N 
ATOM      9  C   UNL     1       3.158   5.546  19.425  0.00  0.00    +0.000 C 
ATOM     10  H   UNL     1       3.364   3.085  16.441  0.00  0.00    +0.000 HD
ENDROOT
BRANCH   2  11
ATOM     11  C   UNL     1       5.281   4.784  16.289  0.00  0.00    +0.000 A 
ATOM     12  C   UNL     1       5.141   4.083  15.090  0.00  0.00    +0.000 A 
ATOM     13  C   UNL     1       6.140   4.166  14.122  0.00  0.00    +0.000 A 
ATOM     14  C   UNL     1       7.251   4.951  14.388  0.00  0.00    +0.000 A 
ATOM     15  N   UNL     1       7.422   5.642  15.536  0.00  0.00    +0.000 NA
ATOM     16  C   UNL     1       6.435   5.543  16.459  0.00  0.00    +0.000 A 
ENDBRANCH   2  11
BRANCH   9  17
ATOM     17  C   UNL     1       2.442   6.878  19.552  0.00  0.00    +0.000 A 
ATOM     18  C   UNL     1       2.333   7.746  18.452  0.00  0.00    +0.000 A 
ATOM     19  C   UNL     1       1.623   8.945  18.564  0.00  0.00    +0.000 A 
ATOM     20  C   UNL     1       1.008   9.284  19.768  0.00  0.00    +0.000 A 
ATOM     21  C   UNL     1       1.173   8.462  20.882  0.00  0.00    +0.000 A 
ATOM     22  C   UNL     1       1.866   7.262  20.772  0.00  0.00    +0.000 A 
BRANCH  20  23
ATOM     23  O   UNL     1       0.253  10.428  19.764  0.00  0.00    +0.000 OA
BRANCH  23  24
ATOM     24  C   UNL     1       0.528  11.293  18.660  0.00  0.00    +0.000 C 
BRANCH  24  25
ATOM     25  C   UNL     1       1.486  12.375  19.075  0.00  0.00    +0.000 A 
ATOM     26  C   UNL     1       1.502  12.828  20.401  0.00  0.00    +0.000 A 
ATOM     27  C   UNL     1       2.410  13.805  20.803  0.00  0.00    +0.000 A 
ATOM     28  C   UNL     1       3.308  14.339  19.877  0.00  0.00    +0.000 A 
ATOM     29  C   UNL     1       3.297  13.898  18.554  0.00  0.00    +0.000 A 
ATOM     30  C   UNL     1       2.388  12.918  18.153  0.00  0.00    +0.000 A 
ENDBRANCH  24  25
ENDBRANCH  23  24
ENDBRANCH  20  23
ENDBRANCH   9  17
TORSDOF 5
ENDMDL
MODEL 9
REMARK VINA RESULT:      -8.9      2.185      2.821
REMARK  Name = 
REMARK  5 active torsions:
REMARK  status: ('A' for Active; 'I' for Inactive)
REMARK    1  A    between atoms: C_2  and  C_3
REMARK    2  A    between atoms: C_15  and  C_16
REMARK    3  A    between atoms: C_19  and  O_20
REMARK    4  A    between atoms: O_20  and  C_21
REMARK    5  A    between atoms: C_21  and  C_22
REMARK                            x       y       z     vdW  Elec       q    Type
REMARK                         _______ _______ _______ _____ _____    ______ ____
ROOT
ATOM      1  C   UNL     1       4.238   5.656  18.290  0.00  0.00    +0.000 C 
ATOM      2  C   UNL     1       4.248   4.755  17.288  0.00  0.00    +0.000 C 
ATOM      3  N   UNL     1       3.297   3.759  17.205  0.00  0.00    +0.000 N 
ATOM      4  C   UNL     1       2.295   3.637  18.100  0.00  0.00    +0.000 A 
ATOM      5  N   UNL     1       1.297   2.794  18.207  0.00  0.00    +0.000 NA
ATOM      6  N   UNL     1       0.609   3.169  19.346  0.00  0.00    +0.000 NA
ATOM      7  N   UNL     1       1.182   4.212  19.938  0.00  0.00    +0.000 NA
ATOM      8  N   UNL     1       2.218   4.519  19.142  0.00  0.00    +0.000 N 
ATOM      9  C   UNL     1       3.160   5.611  19.376  0.00  0.00    +0.000 C 
ATOM     10  H   UNL     1       3.379   3.090  16.445  0.00  0.00    +0.000 HD
ENDROOT
BRANCH   2  11
ATOM     11  C   UNL     1       5.283   4.800  16.252  0.00  0.00    +0.000 A 
ATOM     12  C   UNL     1       5.134   4.092  15.058  0.00  0.00    +0.000 A 
ATOM     13  C   UNL     1       6.131   4.162  14.087  0.00  0.00    +0.000 A 
ATOM     14  C   UNL     1       7.248   4.940  14.344  0.00  0.00    +0.000 A 
ATOM     15  N   UNL     1       7.428   5.638  15.487  0.00  0.00    +0.000 NA
ATOM     16  C   UNL     1       6.443   5.551  16.414  0.00  0.00    +0.000 A 
ENDBRANCH   2  11
BRANCH   9  17
ATOM     17  C   UNL     1       2.434   6.941  19.476  0.00  0.00    +0.000 A 
ATOM     18  C   UNL     1       2.316   7.785  18.358  0.00  0.00    +0.000 A 
ATOM     19  C   UNL     1       1.597   8.980  18.446  0.00  0.00    +0.000 A 
ATOM     20  C   UNL     1       0.982   9.339  19.645  0.00  0.00    +0.000 A 
ATOM     21  C   UNL     1       1.156   8.542  20.775  0.00  0.00    +0.000 A 
ATOM     22  C   UNL     1       1.858   7.345  20.689  0.00  0.00    +0.000 A 
BRANCH  20  23
ATOM     23  O   UNL     1       0.219  10.477  19.617  0.00  0.00    +0.000 OA
BRANCH  23  24
ATOM     24  C   UNL     1       0.541  11.411  20.651  0.00  0.00    +0.000 C 
BRANCH  24  25
ATOM     25  C   UNL     1       0.750  12.780  20.066  0.00  0.00    +0.000 A 
ATOM     26  C   UNL     1       1.957  13.459  20.283  0.00  0.00    +0.000 A 
ATOM     27  C   UNL     1       2.173  14.713  19.716  0.00  0.00    +0.000 A 
ATOM     28  C   UNL     1       1.179  15.299  18.930  0.00  0.00    +0.000 A 
ATOM     29  C   UNL     1      -0.027  14.634  18.713  0.00  0.00    +0.000 A 
ATOM     30  C   UNL     1      -0.242  13.376  19.279  0.00  0.00    +0.000 A 
ENDBRANCH  24  25
ENDBRANCH  23  24
ENDBRANCH  20  23
ENDBRANCH   9  17
TORSDOF 5
ENDMDL
