MODEL 1
REMARK VINA RESULT:      -8.5      0.000      0.000
REMARK  Name = 
REMARK  5 active torsions:
REMARK  status: ('A' for Active; 'I' for Inactive)
REMARK    1  A    between atoms: C_1  and  C_2
REMARK    2  A    between atoms: C_4  and  C_5
REMARK    3  A    between atoms: C_8  and  C_10
REMARK    4  A    between atoms: C_14  and  S_15
REMARK    5  A    between atoms: S_15  and  N_18
REMARK                            x       y       z     vdW  Elec       q    Type
REMARK                         _______ _______ _______ _____ _____    ______ ____
ROOT
ATOM      1  C   UNL     1       0.971   9.350  19.996  0.00  0.00    +0.000 A 
ATOM      2  C   UNL     1       1.193   9.996  18.772  0.00  0.00    +0.000 A 
ATOM      3  C   UNL     1       1.900   9.350  17.750  0.00  0.00    +0.000 A 
ATOM      4  C   UNL     1       2.404   8.062  17.946  0.00  0.00    +0.000 A 
ATOM      5  C   UNL     1       2.220   7.437  19.178  0.00  0.00    +0.000 A 
ATOM      6  C   UNL     1       1.525   8.086  20.199  0.00  0.00    +0.000 A 
ENDROOT
BRANCH   1  14
ATOM      7  C   UNL     1      -2.330  12.436  20.397  0.00  0.00    +0.000 C 
ATOM      8  C   UNL     1      -1.302  13.191  21.250  0.00  0.00    +0.000 C 
ATOM      9  C   UNL     1      -0.383  14.084  20.384  0.00  0.00    +0.000 C 
ATOM     10  C   UNL     1       0.632  13.257  19.578  0.00  0.00    +0.000 C 
ATOM     11  C   UNL     1       1.585  14.120  18.762  0.00  0.00    +0.000 C 
ATOM     12  C   UNL     1       1.404  12.321  20.524  0.00  0.00    +0.000 C 
ATOM     13  N   UNL     1       0.457  11.465  21.240  0.00  0.00    +0.000 N 
ATOM     14  C   UNL     1       0.280  10.088  21.092  0.00  0.00    +0.000 C 
ATOM     15  O   UNL     1      -0.469   9.428  21.814  0.00  0.00    +0.000 OA
ATOM     16  C   UNL     1      -0.471  12.207  22.095  0.00  0.00    +0.000 C 
ENDBRANCH   1  14
BRANCH   5  17
ATOM     17  S   UNL     1       2.973   5.852  19.510  0.00  0.00    +0.000 S 
ATOM     18  O   UNL     1       4.394   6.129  19.645  0.00  0.00    +0.000 OA
ATOM     19  O   UNL     1       2.218   5.243  20.578  0.00  0.00    +0.000 OA
BRANCH  17  20
ATOM     20  N   UNL     1       2.709   4.916  18.075  0.00  0.00    +0.000 N 
ATOM     21  C   UNL     1       1.868   3.696  18.225  0.00  0.00    +0.000 C 
ATOM     22  C   UNL     1       2.618   2.385  18.285  0.00  0.00    +0.000 C 
ATOM     23  C   UNL     1       3.751   2.249  17.296  0.00  0.00    +0.000 C 
ATOM     24  C   UNL     1       4.445   3.532  16.948  0.00  0.00    +0.000 A 
ATOM     25  C   UNL     1       5.650   3.436  16.233  0.00  0.00    +0.000 A 
ATOM     26  C   UNL     1       6.290   4.572  15.755  0.00  0.00    +0.000 A 
ATOM     27  C   UNL     1       5.707   5.819  15.966  0.00  0.00    +0.000 A 
ATOM     28  C   UNL     1       4.518   5.923  16.697  0.00  0.00    +0.000 A 
ATOM     29  C   UNL     1       3.890   4.788  17.228  0.00  0.00    +0.000 A 
ENDBRANCH  17  20
ENDBRANCH   5  17
TORSDOF 3
ENDMDL
MODEL 2
REMARK VINA RESULT:      -8.2      6.019      7.999
REMARK  Name = 
REMARK  5 active torsions:
REMARK  status: ('A' for Active; 'I' for Inactive)
REMARK    1  A    between atoms: C_1  and  C_2
REMARK    2  A    between atoms: C_4  and  C_5
REMARK    3  A    between atoms: C_8  and  C_10
REMARK    4  A    between atoms: C_14  and  S_15
REMARK    5  A    between atoms: S_15  and  N_18
REMARK                            x       y       z     vdW  Elec       q    Type
REMARK                         _______ _______ _______ _____ _____    ______ ____
ROOT
ATOM      1  C   UNL     1      -1.839  11.788  22.736  0.00  0.00    +0.000 A 
ATOM      2  C   UNL     1      -1.104  10.705  23.235  0.00  0.00    +0.000 A 
ATOM      3  C   UNL     1      -0.306   9.936  22.377  0.00  0.00    +0.000 A 
ATOM      4  C   UNL     1      -0.248  10.234  21.013  0.00  0.00    +0.000 A 
ATOM      5  C   UNL     1      -1.014  11.285  20.511  0.00  0.00    +0.000 A 
ATOM      6  C   UNL     1      -1.816  12.042  21.364  0.00  0.00    +0.000 A 
ENDROOT
BRANCH   1  14
ATOM      7  C   UNL     1      -4.633  15.356  22.518  0.00  0.00    +0.000 C 
ATOM      8  C   UNL     1      -3.841  15.849  23.737  0.00  0.00    +0.000 C 
ATOM      9  C   UNL     1      -2.578  16.637  23.320  0.00  0.00    +0.000 C 
ATOM     10  C   UNL     1      -1.482  15.716  22.760  0.00  0.00    +0.000 C 
ATOM     11  C   UNL     1      -0.207  16.465  22.396  0.00  0.00    +0.000 C 
ATOM     12  C   UNL     1      -1.193  14.585  23.763  0.00  0.00    +0.000 C 
ATOM     13  N   UNL     1      -2.429  13.851  24.035  0.00  0.00    +0.000 N 
ATOM     14  C   UNL     1      -2.738  12.542  23.657  0.00  0.00    +0.000 C 
ATOM     15  O   UNL     1      -3.763  11.964  24.022  0.00  0.00    +0.000 OA
ATOM     16  C   UNL     1      -3.472  14.669  24.656  0.00  0.00    +0.000 C 
ENDBRANCH   1  14
BRANCH   5  17
ATOM     17  S   UNL     1      -1.073  11.601  18.754  0.00  0.00    +0.000 S 
ATOM     18  O   UNL     1      -1.413  13.010  18.634  0.00  0.00    +0.000 OA
ATOM     19  O   UNL     1       0.144  11.069  18.190  0.00  0.00    +0.000 OA
BRANCH  17  20
ATOM     20  N   UNL     1      -2.392  10.644  18.165  0.00  0.00    +0.000 N 
ATOM     21  C   UNL     1      -2.103   9.763  16.999  0.00  0.00    +0.000 C 
ATOM     22  C   UNL     1      -2.586  10.268  15.659  0.00  0.00    +0.000 C 
ATOM     23  C   UNL     1      -3.971  10.872  15.662  0.00  0.00    +0.000 C 
ATOM     24  C   UNL     1      -4.362  11.549  16.941  0.00  0.00    +0.000 A 
ATOM     25  C   UNL     1      -5.528  12.333  16.921  0.00  0.00    +0.000 A 
ATOM     26  C   UNL     1      -6.037  12.887  18.088  0.00  0.00    +0.000 A 
ATOM     27  C   UNL     1      -5.394  12.633  19.297  0.00  0.00    +0.000 A 
ATOM     28  C   UNL     1      -4.221  11.870  19.321  0.00  0.00    +0.000 A 
ATOM     29  C   UNL     1      -3.669  11.349  18.143  0.00  0.00    +0.000 A 
ENDBRANCH  17  20
ENDBRANCH   5  17
TORSDOF 3
ENDMDL
MODEL 3
REMARK VINA RESULT:      -8.1      7.828      9.813
REMARK  Name = 
REMARK  5 active torsions:
REMARK  status: ('A' for Active; 'I' for Inactive)
REMARK    1  A    between atoms: C_1  and  C_2
REMARK    2  A    between atoms: C_4  and  C_5
REMARK    3  A    between atoms: C_8  and  C_10
REMARK    4  A    between atoms: C_14  and  S_15
REMARK    5  A    between atoms: S_15  and  N_18
REMARK                            x       y       z     vdW  Elec       q    Type
REMARK                         _______ _______ _______ _____ _____    ______ ____
ROOT
ATOM      1  C   UNL     1       7.232  15.705  18.839  0.00  0.00    +0.000 A 
ATOM      2  C   UNL     1       7.368  17.032  18.412  0.00  0.00    +0.000 A 
ATOM      3  C   UNL     1       8.542  17.746  18.686  0.00  0.00    +0.000 A 
ATOM      4  C   UNL     1       9.582  17.146  19.401  0.00  0.00    +0.000 A 
ATOM      5  C   UNL     1       9.427  15.840  19.863  0.00  0.00    +0.000 A 
ATOM      6  C   UNL     1       8.254  15.134  19.599  0.00  0.00    +0.000 A 
ENDROOT
BRANCH   1  14
ATOM      7  C   UNL     1       3.074  16.718  17.334  0.00  0.00    +0.000 C 
ATOM      8  C   UNL     1       2.612  16.021  18.621  0.00  0.00    +0.000 C 
ATOM      9  C   UNL     1       2.567  16.998  19.818  0.00  0.00    +0.000 C 
ATOM     10  C   UNL     1       3.974  17.367  20.315  0.00  0.00    +0.000 C 
ATOM     11  C   UNL     1       3.952  18.284  21.531  0.00  0.00    +0.000 C 
ATOM     12  C   UNL     1       4.774  16.084  20.602  0.00  0.00    +0.000 C 
ATOM     13  N   UNL     1       4.826  15.263  19.392  0.00  0.00    +0.000 N 
ATOM     14  C   UNL     1       5.944  14.993  18.599  0.00  0.00    +0.000 C 
ATOM     15  O   UNL     1       5.919  14.202  17.654  0.00  0.00    +0.000 OA
ATOM     16  C   UNL     1       3.512  14.811  18.935  0.00  0.00    +0.000 C 
ENDBRANCH   1  14
BRANCH   5  17
ATOM     17  S   UNL     1      10.675  15.095  20.901  0.00  0.00    +0.000 S 
ATOM     18  O   UNL     1      11.557  16.189  21.277  0.00  0.00    +0.000 OA
ATOM     19  O   UNL     1       9.983  14.310  21.894  0.00  0.00    +0.000 OA
BRANCH  17  20
ATOM     20  N   UNL     1      11.533  14.002  19.865  0.00  0.00    +0.000 N 
ATOM     21  C   UNL     1      12.269  14.611  18.722  0.00  0.00    +0.000 C 
ATOM     22  C   UNL     1      11.597  14.499  17.373  0.00  0.00    +0.000 C 
ATOM     23  C   UNL     1      10.977  13.154  17.076  0.00  0.00    +0.000 C 
ATOM     24  C   UNL     1      10.455  12.419  18.274  0.00  0.00    +0.000 A 
ATOM     25  C   UNL     1       9.656  11.288  18.034  0.00  0.00    +0.000 A 
ATOM     26  C   UNL     1       9.241  10.473  19.079  0.00  0.00    +0.000 A 
ATOM     27  C   UNL     1       9.651  10.770  20.376  0.00  0.00    +0.000 A 
ATOM     28  C   UNL     1      10.429  11.906  20.624  0.00  0.00    +0.000 A 
ATOM     29  C   UNL     1      10.811  12.765  19.584  0.00  0.00    +0.000 A 
ENDBRANCH  17  20
ENDBRANCH   5  17
TORSDOF 3
ENDMDL
MODEL 4
REMARK VINA RESULT:      -8.1      1.768      8.701
REMARK  Name = 
REMARK  5 active torsions:
REMARK  status: ('A' for Active; 'I' for Inactive)
REMARK    1  A    between atoms: C_1  and  C_2
REMARK    2  A    between atoms: C_4  and  C_5
REMARK    3  A    between atoms: C_8  and  C_10
REMARK    4  A    between atoms: C_14  and  S_15
REMARK    5  A    between atoms: S_15  and  N_18
REMARK                            x       y       z     vdW  Elec       q    Type
REMARK                         _______ _______ _______ _____ _____    ______ ____
ROOT
ATOM      1  C   UNL     1       1.883   5.989  19.560  0.00  0.00    +0.000 A 
ATOM      2  C   UNL     1       2.533   6.432  18.401  0.00  0.00    +0.000 A 
ATOM      3  C   UNL     1       2.684   7.803  18.154  0.00  0.00    +0.000 A 
ATOM      4  C   UNL     1       2.174   8.741  19.054  0.00  0.00    +0.000 A 
ATOM      5  C   UNL     1       1.489   8.300  20.185  0.00  0.00    +0.000 A 
ATOM      6  C   UNL     1       1.331   6.935  20.424  0.00  0.00    +0.000 A 
ENDROOT
BRANCH   1  14
ATOM      7  C   UNL     1       4.428   2.298  20.255  0.00  0.00    +0.000 C 
ATOM      8  C   UNL     1       3.624   1.719  19.083  0.00  0.00    +0.000 C 
ATOM      9  C   UNL     1       4.262   2.072  17.720  0.00  0.00    +0.000 C 
ATOM     10  C   UNL     1       4.062   3.551  17.354  0.00  0.00    +0.000 C 
ATOM     11  C   UNL     1       4.634   3.908  15.989  0.00  0.00    +0.000 C 
ATOM     12  C   UNL     1       2.568   3.908  17.440  0.00  0.00    +0.000 C 
ATOM     13  N   UNL     1       2.075   3.612  18.786  0.00  0.00    +0.000 N 
ATOM     14  C   UNL     1       1.671   4.527  19.761  0.00  0.00    +0.000 C 
ATOM     15  O   UNL     1       1.167   4.185  20.832  0.00  0.00    +0.000 OA
ATOM     16  C   UNL     1       2.160   2.195  19.141  0.00  0.00    +0.000 C 
ENDBRANCH   1  14
BRANCH   5  17
ATOM     17  S   UNL     1       0.703   9.471  21.280  0.00  0.00    +0.000 S 
ATOM     18  O   UNL     1      -0.628   8.935  21.517  0.00  0.00    +0.000 OA
ATOM     19  O   UNL     1       1.621   9.715  22.366  0.00  0.00    +0.000 OA
BRANCH  17  20
ATOM     20  N   UNL     1       0.572  10.935  20.360  0.00  0.00    +0.000 N 
ATOM     21  C   UNL     1       1.051  12.180  21.024  0.00  0.00    +0.000 C 
ATOM     22  C   UNL     1      -0.024  13.080  21.585  0.00  0.00    +0.000 C 
ATOM     23  C   UNL     1      -1.232  13.267  20.697  0.00  0.00    +0.000 C 
ATOM     24  C   UNL     1      -1.570  12.089  19.833  0.00  0.00    +0.000 A 
ATOM     25  C   UNL     1      -2.812  12.111  19.176  0.00  0.00    +0.000 A 
ATOM     26  C   UNL     1      -3.151  11.128  18.255  0.00  0.00    +0.000 A 
ATOM     27  C   UNL     1      -2.228  10.126  17.962  0.00  0.00    +0.000 A 
ATOM     28  C   UNL     1      -0.999  10.087  18.629  0.00  0.00    +0.000 A 
ATOM     29  C   UNL     1      -0.667  11.044  19.598  0.00  0.00    +0.000 A 
ENDBRANCH  17  20
ENDBRANCH   5  17
TORSDOF 3
ENDMDL
MODEL 5
REMARK VINA RESULT:      -8.1      4.405      7.192
REMARK  Name = 
REMARK  5 active torsions:
REMARK  status: ('A' for Active; 'I' for Inactive)
REMARK    1  A    between atoms: C_1  and  C_2
REMARK    2  A    between atoms: C_4  and  C_5
REMARK    3  A    between atoms: C_8  and  C_10
REMARK    4  A    between atoms: C_14  and  S_15
REMARK    5  A    between atoms: S_15  and  N_18
REMARK                            x       y       z     vdW  Elec       q    Type
REMARK                         _______ _______ _______ _____ _____    ______ ____
ROOT
ATOM      1  C   UNL     1      -3.288  13.439  23.201  0.00  0.00    +0.000 A 
ATOM      2  C   UNL     1      -2.699  14.308  24.129  0.00  0.00    +0.000 A 
ATOM      3  C   UNL     1      -1.351  14.669  24.003  0.00  0.00    +0.000 A 
ATOM      4  C   UNL     1      -0.578  14.153  22.960  0.00  0.00    +0.000 A 
ATOM      5  C   UNL     1      -1.153  13.254  22.064  0.00  0.00    +0.000 A 
ATOM      6  C   UNL     1      -2.492  12.888  22.196  0.00  0.00    +0.000 A 
ENDROOT
BRANCH   1  14
ATOM      7  C   UNL     1      -6.631  11.637  20.718  0.00  0.00    +0.000 C 
ATOM      8  C   UNL     1      -7.456  12.806  21.273  0.00  0.00    +0.000 C 
ATOM      9  C   UNL     1      -7.308  14.077  20.404  0.00  0.00    +0.000 C 
ATOM     10  C   UNL     1      -5.932  14.738  20.578  0.00  0.00    +0.000 C 
ATOM     11  C   UNL     1      -5.785  16.023  19.774  0.00  0.00    +0.000 C 
ATOM     12  C   UNL     1      -5.661  14.984  22.073  0.00  0.00    +0.000 C 
ATOM     13  N   UNL     1      -5.747  13.716  22.798  0.00  0.00    +0.000 N 
ATOM     14  C   UNL     1      -4.703  13.013  23.402  0.00  0.00    +0.000 C 
ATOM     15  O   UNL     1      -4.883  12.003  24.086  0.00  0.00    +0.000 OA
ATOM     16  C   UNL     1      -7.072  13.096  22.736  0.00  0.00    +0.000 C 
ENDBRANCH   1  14
BRANCH   5  17
ATOM     17  S   UNL     1      -0.157  12.468  20.807  0.00  0.00    +0.000 S 
ATOM     18  O   UNL     1      -0.659  12.989  19.545  0.00  0.00    +0.000 OA
ATOM     19  O   UNL     1       1.222  12.637  21.197  0.00  0.00    +0.000 OA
BRANCH  17  20
ATOM     20  N   UNL     1      -0.536  10.780  20.918  0.00  0.00    +0.000 N 
ATOM     21  C   UNL     1      -0.780  10.244  22.287  0.00  0.00    +0.000 C 
ATOM     22  C   UNL     1       0.363   9.470  22.902  0.00  0.00    +0.000 C 
ATOM     23  C   UNL     1       1.064   8.512  21.968  0.00  0.00    +0.000 C 
ATOM     24  C   UNL     1       1.091   8.936  20.530  0.00  0.00    +0.000 A 
ATOM     25  C   UNL     1       1.933   8.217  19.665  0.00  0.00    +0.000 A 
ATOM     26  C   UNL     1       1.922   8.453  18.297  0.00  0.00    +0.000 A 
ATOM     27  C   UNL     1       1.039   9.397  17.778  0.00  0.00    +0.000 A 
ATOM     28  C   UNL     1       0.213  10.132  18.637  0.00  0.00    +0.000 A 
ATOM     29  C   UNL     1       0.253   9.939  20.024  0.00  0.00    +0.000 A 
ENDBRANCH  17  20
ENDBRANCH   5  17
TORSDOF 3
ENDMDL
MODEL 6
REMARK VINA RESULT:      -8.1      1.875      3.481
REMARK  Name = 
REMARK  5 active torsions:
REMARK  status: ('A' for Active; 'I' for Inactive)
REMARK    1  A    between atoms: C_1  and  C_2
REMARK    2  A    between atoms: C_4  and  C_5
REMARK    3  A    between atoms: C_8  and  C_10
REMARK    4  A    between atoms: C_14  and  S_15
REMARK    5  A    between atoms: S_15  and  N_18
REMARK                            x       y       z     vdW  Elec       q    Type
REMARK                         _______ _______ _______ _____ _____    ______ ____
ROOT
ATOM      1  C   UNL     1       0.970   9.991  20.483  0.00  0.00    +0.000 A 
ATOM      2  C   UNL     1       0.590   9.324  21.655  0.00  0.00    +0.000 A 
ATOM      3  C   UNL     1       0.894   7.968  21.828  0.00  0.00    +0.000 A 
ATOM      4  C   UNL     1       1.567   7.264  20.826  0.00  0.00    +0.000 A 
ATOM      5  C   UNL     1       1.906   7.917  19.643  0.00  0.00    +0.000 A 
ATOM      6  C   UNL     1       1.592   9.265  19.468  0.00  0.00    +0.000 A 
ENDROOT
BRANCH   1  14
ATOM      7  C   UNL     1      -2.714  12.551  21.162  0.00  0.00    +0.000 C 
ATOM      8  C   UNL     1      -2.497  12.968  19.701  0.00  0.00    +0.000 C 
ATOM      9  C   UNL     1      -3.186  11.994  18.718  0.00  0.00    +0.000 C 
ATOM     10  C   UNL     1      -2.448  10.649  18.627  0.00  0.00    +0.000 C 
ATOM     11  C   UNL     1      -3.076   9.694  17.621  0.00  0.00    +0.000 C 
ATOM     12  C   UNL     1      -0.963  10.894  18.305  0.00  0.00    +0.000 C 
ATOM     13  N   UNL     1      -0.381  11.761  19.330  0.00  0.00    +0.000 N 
ATOM     14  C   UNL     1       0.567  11.415  20.295  0.00  0.00    +0.000 C 
ATOM     15  O   UNL     1       1.083  12.238  21.053  0.00  0.00    +0.000 OA
ATOM     16  C   UNL     1      -0.994  13.089  19.389  0.00  0.00    +0.000 C 
ENDBRANCH   1  14
BRANCH   5  17
ATOM     17  S   UNL     1       2.637   7.012  18.288  0.00  0.00    +0.000 S 
ATOM     18  O   UNL     1       1.511   6.483  17.534  0.00  0.00    +0.000 OA
ATOM     19  O   UNL     1       3.611   7.883  17.676  0.00  0.00    +0.000 OA
BRANCH  17  20
ATOM     20  N   UNL     1       3.492   5.699  19.029  0.00  0.00    +0.000 N 
ATOM     21  C   UNL     1       4.959   5.635  18.773  0.00  0.00    +0.000 C 
ATOM     22  C   UNL     1       5.402   4.624  17.741  0.00  0.00    +0.000 C 
ATOM     23  C   UNL     1       4.720   3.278  17.829  0.00  0.00    +0.000 C 
ATOM     24  C   UNL     1       3.308   3.316  18.332  0.00  0.00    +0.000 A 
ATOM     25  C   UNL     1       2.550   2.140  18.203  0.00  0.00    +0.000 A 
ATOM     26  C   UNL     1       1.281   2.043  18.759  0.00  0.00    +0.000 A 
ATOM     27  C   UNL     1       0.772   3.121  19.480  0.00  0.00    +0.000 A 
ATOM     28  C   UNL     1       1.514   4.302  19.593  0.00  0.00    +0.000 A 
ATOM     29  C   UNL     1       2.773   4.430  18.992  0.00  0.00    +0.000 A 
ENDBRANCH  17  20
ENDBRANCH   5  17
TORSDOF 3
ENDMDL
MODEL 7
REMARK VINA RESULT:      -8.0      5.153      7.459
REMARK  Name = 
REMARK  5 active torsions:
REMARK  status: ('A' for Active; 'I' for Inactive)
REMARK    1  A    between atoms: C_1  and  C_2
REMARK    2  A    between atoms: C_4  and  C_5
REMARK    3  A    between atoms: C_8  and  C_10
REMARK    4  A    between atoms: C_14  and  S_15
REMARK    5  A    between atoms: S_15  and  N_18
REMARK                            x       y       z     vdW  Elec       q    Type
REMARK                         _______ _______ _______ _____ _____    ______ ____
ROOT
ATOM      1  C   UNL     1      -4.238  11.161  18.534  0.00  0.00    +0.000 A 
ATOM      2  C   UNL     1      -3.889  10.088  17.703  0.00  0.00    +0.000 A 
ATOM      3  C   UNL     1      -2.549   9.869  17.356  0.00  0.00    +0.000 A 
ATOM      4  C   UNL     1      -1.550  10.728  17.822  0.00  0.00    +0.000 A 
ATOM      5  C   UNL     1      -1.904  11.820  18.613  0.00  0.00    +0.000 A 
ATOM      6  C   UNL     1      -3.239  12.043  18.949  0.00  0.00    +0.000 A 
ENDROOT
BRANCH   1  14
ATOM      7  C   UNL     1      -7.020  14.732  18.837  0.00  0.00    +0.000 C 
ATOM      8  C   UNL     1      -7.393  14.123  20.195  0.00  0.00    +0.000 C 
ATOM      9  C   UNL     1      -6.441  14.595  21.318  0.00  0.00    +0.000 C 
ATOM     10  C   UNL     1      -5.053  13.942  21.210  0.00  0.00    +0.000 C 
ATOM     11  C   UNL     1      -4.116  14.350  22.339  0.00  0.00    +0.000 C 
ATOM     12  C   UNL     1      -5.206  12.413  21.140  0.00  0.00    +0.000 C 
ATOM     13  N   UNL     1      -6.059  12.061  20.005  0.00  0.00    +0.000 N 
ATOM     14  C   UNL     1      -5.678  11.414  18.827  0.00  0.00    +0.000 C 
ATOM     15  O   UNL     1      -6.486  11.060  17.966  0.00  0.00    +0.000 OA
ATOM     16  C   UNL     1      -7.421  12.585  20.112  0.00  0.00    +0.000 C 
ENDBRANCH   1  14
BRANCH   5  17
ATOM     17  S   UNL     1      -0.673  13.016  19.106  0.00  0.00    +0.000 S 
ATOM     18  O   UNL     1      -0.257  13.662  17.872  0.00  0.00    +0.000 OA
ATOM     19  O   UNL     1      -1.233  13.770  20.200  0.00  0.00    +0.000 OA
BRANCH  17  20
ATOM     20  N   UNL     1       0.645  12.078  19.730  0.00  0.00    +0.000 N 
ATOM     21  C   UNL     1       1.656  11.614  18.739  0.00  0.00    +0.000 C 
ATOM     22  C   UNL     1       1.543  10.168  18.315  0.00  0.00    +0.000 C 
ATOM     23  C   UNL     1       1.266   9.192  19.434  0.00  0.00    +0.000 C 
ATOM     24  C   UNL     1       0.450   9.741  20.565  0.00  0.00    +0.000 A 
ATOM     25  C   UNL     1      -0.043   8.821  21.506  0.00  0.00    +0.000 A 
ATOM     26  C   UNL     1      -0.694   9.253  22.654  0.00  0.00    +0.000 A 
ATOM     27  C   UNL     1      -0.830  10.620  22.884  0.00  0.00    +0.000 A 
ATOM     28  C   UNL     1      -0.360  11.540  21.940  0.00  0.00    +0.000 A 
ATOM     29  C   UNL     1       0.252  11.115  20.753  0.00  0.00    +0.000 A 
ENDBRANCH  17  20
ENDBRANCH   5  17
TORSDOF 3
ENDMDL
MODEL 8
REMARK VINA RESULT:      -8.0      7.121     10.994
REMARK  Name = 
REMARK  5 active torsions:
REMARK  status: ('A' for Active; 'I' for Inactive)
REMARK    1  A    between atoms: C_1  and  C_2
REMARK    2  A    between atoms: C_4  and  C_5
REMARK    3  A    between atoms: C_8  and  C_10
REMARK    4  A    between atoms: C_14  and  S_15
REMARK    5  A    between atoms: S_15  and  N_18
REMARK                            x       y       z     vdW  Elec       q    Type
REMARK                         _______ _______ _______ _____ _____    ______ ____
ROOT
ATOM      1  C   UNL     1       8.500  13.017  22.196  0.00  0.00    +0.000 A 
ATOM      2  C   UNL     1       8.541  12.000  23.158  0.00  0.00    +0.000 A 
ATOM      3  C   UNL     1       7.391  11.669  23.888  0.00  0.00    +0.000 A 
ATOM      4  C   UNL     1       6.197  12.363  23.674  0.00  0.00    +0.000 A 
ATOM      5  C   UNL     1       6.169  13.405  22.748  0.00  0.00    +0.000 A 
ATOM      6  C   UNL     1       7.317  13.739  22.030  0.00  0.00    +0.000 A 
ENDROOT
BRANCH   1  14
ATOM      7  C   UNL     1       9.760  14.172  17.993  0.00  0.00    +0.000 C 
ATOM      8  C   UNL     1      10.820  13.079  18.183  0.00  0.00    +0.000 C 
ATOM      9  C   UNL     1      10.284  11.684  17.788  0.00  0.00    +0.000 C 
ATOM     10  C   UNL     1       9.283  11.137  18.818  0.00  0.00    +0.000 C 
ATOM     11  C   UNL     1       8.785   9.739  18.478  0.00  0.00    +0.000 C 
ATOM     12  C   UNL     1       9.914  11.175  20.222  0.00  0.00    +0.000 C 
ATOM     13  N   UNL     1      10.319  12.545  20.536  0.00  0.00    +0.000 N 
ATOM     14  C   UNL     1       9.756  13.398  21.488  0.00  0.00    +0.000 C 
ATOM     15  O   UNL     1      10.230  14.502  21.761  0.00  0.00    +0.000 OA
ATOM     16  C   UNL     1      11.341  13.075  19.633  0.00  0.00    +0.000 C 
ENDBRANCH   1  14
BRANCH   5  17
ATOM     17  S   UNL     1       4.701  14.402  22.554  0.00  0.00    +0.000 S 
ATOM     18  O   UNL     1       3.807  13.604  21.731  0.00  0.00    +0.000 OA
ATOM     19  O   UNL     1       4.317  14.847  23.872  0.00  0.00    +0.000 OA
BRANCH  17  20
ATOM     20  N   UNL     1       5.213  15.793  21.655  0.00  0.00    +0.000 N 
ATOM     21  C   UNL     1       5.189  17.096  22.379  0.00  0.00    +0.000 C 
ATOM     22  C   UNL     1       4.020  18.000  22.064  0.00  0.00    +0.000 C 
ATOM     23  C   UNL     1       3.653  18.087  20.601  0.00  0.00    +0.000 C 
ATOM     24  C   UNL     1       3.915  16.842  19.808  0.00  0.00    +0.000 A 
ATOM     25  C   UNL     1       3.371  16.780  18.514  0.00  0.00    +0.000 A 
ATOM     26  C   UNL     1       3.673  15.726  17.662  0.00  0.00    +0.000 A 
ATOM     27  C   UNL     1       4.551  14.734  18.093  0.00  0.00    +0.000 A 
ATOM     28  C   UNL     1       5.078  14.779  19.389  0.00  0.00    +0.000 A 
ATOM     29  C   UNL     1       4.741  15.811  20.275  0.00  0.00    +0.000 A 
ENDBRANCH  17  20
ENDBRANCH   5  17
TORSDOF 3
ENDMDL
MODEL 9
REMARK VINA RESULT:      -8.0      8.759      9.973
REMARK  Name = 
REMARK  5 active torsions:
REMARK  status: ('A' for Active; 'I' for Inactive)
REMARK    1  A    between atoms: C_1  and  C_2
REMARK    2  A    between atoms: C_4  and  C_5
REMARK    3  A    between atoms: C_8  and  C_10
REMARK    4  A    between atoms: C_14  and  S_15
REMARK    5  A    between atoms: S_15  and  N_18
REMARK                            x       y       z     vdW  Elec       q    Type
REMARK                         _______ _______ _______ _____ _____    ______ ____
ROOT
ATOM      1  C   UNL     1       6.692  15.591  18.814  0.00  0.00    +0.000 A 
ATOM      2  C   UNL     1       6.333  14.506  18.004  0.00  0.00    +0.000 A 
ATOM      3  C   UNL     1       7.320  13.683  17.445  0.00  0.00    +0.000 A 
ATOM      4  C   UNL     1       8.672  13.946  17.678  0.00  0.00    +0.000 A 
ATOM      5  C   UNL     1       9.029  15.053  18.447  0.00  0.00    +0.000 A 
ATOM      6  C   UNL     1       8.046  15.877  18.994  0.00  0.00    +0.000 A 
ENDROOT
BRANCH   1  14
ATOM      7  C   UNL     1       5.969  18.159  22.484  0.00  0.00    +0.000 C 
ATOM      8  C   UNL     1       4.633  17.407  22.550  0.00  0.00    +0.000 C 
ATOM      9  C   UNL     1       4.758  16.080  23.333  0.00  0.00    +0.000 C 
ATOM     10  C   UNL     1       5.521  15.010  22.536  0.00  0.00    +0.000 C 
ATOM     11  C   UNL     1       5.607  13.676  23.265  0.00  0.00    +0.000 C 
ATOM     12  C   UNL     1       4.879  14.843  21.147  0.00  0.00    +0.000 C 
ATOM     13  N   UNL     1       4.875  16.132  20.455  0.00  0.00    +0.000 N 
ATOM     14  C   UNL     1       5.625  16.494  19.334  0.00  0.00    +0.000 C 
ATOM     15  O   UNL     1       5.480  17.570  18.750  0.00  0.00    +0.000 OA
ATOM     16  C   UNL     1       4.081  17.157  21.133  0.00  0.00    +0.000 C 
ENDBRANCH   1  14
BRANCH   5  17
ATOM     17  S   UNL     1      10.747  15.499  18.645  0.00  0.00    +0.000 S 
ATOM     18  O   UNL     1      11.266  15.616  17.291  0.00  0.00    +0.000 OA
ATOM     19  O   UNL     1      10.790  16.608  19.567  0.00  0.00    +0.000 OA
BRANCH  17  20
ATOM     20  N   UNL     1      11.484  14.136  19.422  0.00  0.00    +0.000 N 
ATOM     21  C   UNL     1      12.308  13.246  18.557  0.00  0.00    +0.000 C 
ATOM     22  C   UNL     1      11.650  11.955  18.128  0.00  0.00    +0.000 C 
ATOM     23  C   UNL     1      10.878  11.239  19.211  0.00  0.00    +0.000 C 
ATOM     24  C   UNL     1      10.250  12.134  20.238  0.00  0.00    +0.000 A 
ATOM     25  C   UNL     1       9.325  11.549  21.118  0.00  0.00    +0.000 A 
ATOM     26  C   UNL     1       8.796  12.269  22.181  0.00  0.00    +0.000 A 
ATOM     27  C   UNL     1       9.217  13.581  22.388  0.00  0.00    +0.000 A 
ATOM     28  C   UNL     1      10.122  14.176  21.502  0.00  0.00    +0.000 A 
ATOM     29  C   UNL     1      10.622  13.475  20.396  0.00  0.00    +0.000 A 
ENDBRANCH  17  20
ENDBRANCH   5  17
TORSDOF 3
ENDMDL
