MODEL 1
REMARK VINA RESULT:      -8.5      0.000      0.000
REMARK  Name = 
REMARK  5 active torsions:
REMARK  status: ('A' for Active; 'I' for Inactive)
REMARK    1  A    between atoms: C_2  and  C_3
REMARK    2  A    between atoms: C_3  and  C_4
REMARK    3  A    between atoms: C_4  and  C_5
REMARK    4  A    between atoms: C_5  and  C_6
REMARK    5  A    between atoms: N_17  and  C_18
REMARK                            x       y       z     vdW  Elec       q    Type
REMARK                         _______ _______ _______ _____ _____    ______ ____
ROOT
ATOM      1  C   UNL     1       1.932   3.146  20.836  0.00  0.00    +0.000 C 
ENDROOT
BRANCH   1   3
ATOM      2  O   UNL     1       1.071   4.041  18.812  0.00  0.00    +0.000 OA
ATOM      3  C   UNL     1       1.751   4.253  19.814  0.00  0.00    +0.000 C 
ATOM      4  N   UNL     1       2.421   5.426  20.097  0.00  0.00    +0.000 N 
ATOM      5  H   UNL     1       3.189   5.410  20.767  0.00  0.00    +0.000 HD
BRANCH   4   6
ATOM      6  C   UNL     1       2.346   6.637  19.348  0.00  0.00    +0.000 A 
ATOM      7  C   UNL     1       2.944   6.769  18.088  0.00  0.00    +0.000 A 
ATOM      8  C   UNL     1       2.946   7.993  17.426  0.00  0.00    +0.000 A 
ATOM      9  C   UNL     1       2.316   9.087  18.002  0.00  0.00    +0.000 A 
ATOM     10  C   UNL     1       1.646   8.950  19.227  0.00  0.00    +0.000 A 
ATOM     11  C   UNL     1       0.973  10.039  19.794  0.00  0.00    +0.000 A 
ATOM     12  C   UNL     1       0.307   9.886  21.000  0.00  0.00    +0.000 A 
ATOM     13  C   UNL     1       0.343   8.645  21.606  0.00  0.00    +0.000 A 
ATOM     14  N   UNL     1       0.996   7.570  21.103  0.00  0.00    +0.000 NA
ATOM     15  C   UNL     1       1.644   7.714  19.919  0.00  0.00    +0.000 A 
ENDBRANCH   4   6
ENDBRANCH   1   3
BRANCH   1  16
ATOM     16  C   UNL     1       3.372   2.664  20.953  0.00  0.00    +0.000 C 
BRANCH  16  17
ATOM     17  C   UNL     1       3.857   2.096  19.620  0.00  0.00    +0.000 C 
BRANCH  17  18
ATOM     18  C   UNL     1       4.639   3.134  18.857  0.00  0.00    +0.000 A 
ATOM     19  N   UNL     1       5.495   3.884  19.469  0.00  0.00    +0.000 NA
ATOM     20  C   UNL     1       6.196   4.831  18.707  0.00  0.00    +0.000 A 
ATOM     21  C   UNL     1       7.107   5.668  19.355  0.00  0.00    +0.000 A 
ATOM     22  C   UNL     1       7.816   6.633  18.636  0.00  0.00    +0.000 A 
ATOM     23  C   UNL     1       7.623   6.769  17.260  0.00  0.00    +0.000 A 
ATOM     24  C   UNL     1       6.717   5.940  16.599  0.00  0.00    +0.000 A 
ATOM     25  C   UNL     1       6.009   4.978  17.330  0.00  0.00    +0.000 A 
ATOM     26  C   UNL     1       5.034   4.090  16.681  0.00  0.00    +0.000 A 
ATOM     27  O   UNL     1       4.790   4.142  15.477  0.00  0.00    +0.000 OA
ATOM     28  N   UNL     1       4.400   3.198  17.512  0.00  0.00    +0.000 N 
ATOM     29  H   UNL     1       3.719   2.600  17.071  0.00  0.00    +0.000 HD
ENDBRANCH  17  18
ENDBRANCH  16  17
ENDBRANCH   1  16
TORSDOF 5
ENDMDL
MODEL 2
REMARK VINA RESULT:      -8.2      1.334      2.830
REMARK  Name = 
REMARK  5 active torsions:
REMARK  status: ('A' for Active; 'I' for Inactive)
REMARK    1  A    between atoms: C_2  and  C_3
REMARK    2  A    between atoms: C_3  and  C_4
REMARK    3  A    between atoms: C_4  and  C_5
REMARK    4  A    between atoms: C_5  and  C_6
REMARK    5  A    between atoms: N_17  and  C_18
REMARK                            x       y       z     vdW  Elec       q    Type
REMARK                         _______ _______ _______ _____ _____    ______ ____
ROOT
ATOM      1  C   UNL     1       1.905   2.966  21.370  0.00  0.00    +0.000 C 
ENDROOT
BRANCH   1   3
ATOM      2  O   UNL     1       0.384   4.214  20.041  0.00  0.00    +0.000 OA
ATOM      3  C   UNL     1       1.363   4.257  20.783  0.00  0.00    +0.000 C 
ATOM      4  N   UNL     1       2.068   5.394  21.121  0.00  0.00    +0.000 N 
ATOM      5  H   UNL     1       3.019   5.303  21.474  0.00  0.00    +0.000 HD
BRANCH   4   6
ATOM      6  C   UNL     1       1.716   6.732  20.774  0.00  0.00    +0.000 A 
ATOM      7  C   UNL     1       0.900   7.521  21.595  0.00  0.00    +0.000 A 
ATOM      8  C   UNL     1       0.485   8.784  21.182  0.00  0.00    +0.000 A 
ATOM      9  C   UNL     1       0.916   9.285  19.961  0.00  0.00    +0.000 A 
ATOM     10  C   UNL     1       1.796   8.537  19.165  0.00  0.00    +0.000 A 
ATOM     11  C   UNL     1       2.268   9.053  17.952  0.00  0.00    +0.000 A 
ATOM     12  C   UNL     1       3.145   8.308  17.180  0.00  0.00    +0.000 A 
ATOM     13  C   UNL     1       3.518   7.062  17.645  0.00  0.00    +0.000 A 
ATOM     14  N   UNL     1       3.073   6.517  18.803  0.00  0.00    +0.000 NA
ATOM     15  C   UNL     1       2.219   7.246  19.565  0.00  0.00    +0.000 A 
ENDBRANCH   4   6
ENDBRANCH   1   3
BRANCH   1  16
ATOM     16  C   UNL     1       3.331   2.658  20.931  0.00  0.00    +0.000 C 
BRANCH  16  17
ATOM     17  C   UNL     1       3.368   2.300  19.446  0.00  0.00    +0.000 C 
BRANCH  17  18
ATOM     18  C   UNL     1       4.364   3.166  18.718  0.00  0.00    +0.000 A 
ATOM     19  N   UNL     1       4.386   3.186  17.427  0.00  0.00    +0.000 NA
ATOM     20  C   UNL     1       5.333   4.013  16.802  0.00  0.00    +0.000 A 
ATOM     21  C   UNL     1       5.390   4.029  15.408  0.00  0.00    +0.000 A 
ATOM     22  C   UNL     1       6.326   4.828  14.747  0.00  0.00    +0.000 A 
ATOM     23  C   UNL     1       7.213   5.622  15.477  0.00  0.00    +0.000 A 
ATOM     24  C   UNL     1       7.168   5.617  16.870  0.00  0.00    +0.000 A 
ATOM     25  C   UNL     1       6.228   4.810  17.522  0.00  0.00    +0.000 A 
ATOM     26  C   UNL     1       6.149   4.760  18.989  0.00  0.00    +0.000 A 
ATOM     27  O   UNL     1       6.894   5.416  19.714  0.00  0.00    +0.000 OA
ATOM     28  N   UNL     1       5.190   3.920  19.503  0.00  0.00    +0.000 N 
ATOM     29  H   UNL     1       5.147   3.873  20.509  0.00  0.00    +0.000 HD
ENDBRANCH  17  18
ENDBRANCH  16  17
ENDBRANCH   1  16
TORSDOF 5
ENDMDL
MODEL 3
REMARK VINA RESULT:      -7.9      0.762      2.130
REMARK  Name = 
REMARK  5 active torsions:
REMARK  status: ('A' for Active; 'I' for Inactive)
REMARK    1  A    between atoms: C_2  and  C_3
REMARK    2  A    between atoms: C_3  and  C_4
REMARK    3  A    between atoms: C_4  and  C_5
REMARK    4  A    between atoms: C_5  and  C_6
REMARK    5  A    between atoms: N_17  and  C_18
REMARK                            x       y       z     vdW  Elec       q    Type
REMARK                         _______ _______ _______ _____ _____    ______ ____
ROOT
ATOM      1  C   UNL     1       2.062   2.985  21.490  0.00  0.00    +0.000 C 
ENDROOT
BRANCH   1   3
ATOM      2  O   UNL     1       0.616   4.116  19.984  0.00  0.00    +0.000 OA
ATOM      3  C   UNL     1       1.496   4.232  20.834  0.00  0.00    +0.000 C 
ATOM      4  N   UNL     1       2.069   5.419  21.243  0.00  0.00    +0.000 N 
ATOM      5  H   UNL     1       2.977   5.400  21.704  0.00  0.00    +0.000 HD
BRANCH   4   6
ATOM      6  C   UNL     1       1.660   6.727  20.848  0.00  0.00    +0.000 A 
ATOM      7  C   UNL     1       0.790   7.500  21.628  0.00  0.00    +0.000 A 
ATOM      8  C   UNL     1       0.323   8.728  21.169  0.00  0.00    +0.000 A 
ATOM      9  C   UNL     1       0.754   9.212  19.942  0.00  0.00    +0.000 A 
ATOM     10  C   UNL     1       1.685   8.484  19.185  0.00  0.00    +0.000 A 
ATOM     11  C   UNL     1       2.155   8.986  17.966  0.00  0.00    +0.000 A 
ATOM     12  C   UNL     1       3.083   8.261  17.234  0.00  0.00    +0.000 A 
ATOM     13  C   UNL     1       3.506   7.049  17.745  0.00  0.00    +0.000 A 
ATOM     14  N   UNL     1       3.065   6.519  18.910  0.00  0.00    +0.000 NA
ATOM     15  C   UNL     1       2.161   7.228  19.633  0.00  0.00    +0.000 A 
ENDBRANCH   4   6
ENDBRANCH   1   3
BRANCH   1  16
ATOM     16  C   UNL     1       3.458   2.627  20.996  0.00  0.00    +0.000 C 
BRANCH  16  17
ATOM     17  C   UNL     1       3.431   2.304  19.503  0.00  0.00    +0.000 C 
BRANCH  17  18
ATOM     18  C   UNL     1       4.370   3.211  18.749  0.00  0.00    +0.000 A 
ATOM     19  N   UNL     1       5.206   3.958  19.389  0.00  0.00    +0.000 NA
ATOM     20  C   UNL     1       6.058   4.781  18.634  0.00  0.00    +0.000 A 
ATOM     21  C   UNL     1       6.952   5.614  19.309  0.00  0.00    +0.000 A 
ATOM     22  C   UNL     1       7.807   6.457  18.596  0.00  0.00    +0.000 A 
ATOM     23  C   UNL     1       7.779   6.473  17.201  0.00  0.00    +0.000 A 
ATOM     24  C   UNL     1       6.892   5.645  16.513  0.00  0.00    +0.000 A 
ATOM     25  C   UNL     1       6.037   4.806  17.238  0.00  0.00    +0.000 A 
ATOM     26  C   UNL     1       5.075   3.925  16.559  0.00  0.00    +0.000 A 
ATOM     27  O   UNL     1       4.971   3.876  15.335  0.00  0.00    +0.000 OA
ATOM     28  N   UNL     1       4.287   3.160  17.385  0.00  0.00    +0.000 N 
ATOM     29  H   UNL     1       3.617   2.568  16.922  0.00  0.00    +0.000 HD
ENDBRANCH  17  18
ENDBRANCH  16  17
ENDBRANCH   1  16
TORSDOF 5
ENDMDL
MODEL 4
REMARK VINA RESULT:      -7.9      2.134      4.499
REMARK  Name = 
REMARK  5 active torsions:
REMARK  status: ('A' for Active; 'I' for Inactive)
REMARK    1  A    between atoms: C_2  and  C_3
REMARK    2  A    between atoms: C_3  and  C_4
REMARK    3  A    between atoms: C_4  and  C_5
REMARK    4  A    between atoms: C_5  and  C_6
REMARK    5  A    between atoms: N_17  and  C_18
REMARK                            x       y       z     vdW  Elec       q    Type
REMARK                         _______ _______ _______ _____ _____    ______ ____
ROOT
ATOM      1  C   UNL     1       5.116   6.327  16.005  0.00  0.00    +0.000 C 
ENDROOT
BRANCH   1   3
ATOM      2  O   UNL     1       5.443   6.718  18.324  0.00  0.00    +0.000 OA
ATOM      3  C   UNL     1       4.631   6.670  17.401  0.00  0.00    +0.000 C 
ATOM      4  N   UNL     1       3.270   6.869  17.516  0.00  0.00    +0.000 N 
ATOM      5  H   UNL     1       2.653   6.513  16.787  0.00  0.00    +0.000 HD
BRANCH   4   6
ATOM      6  C   UNL     1       2.579   7.285  18.692  0.00  0.00    +0.000 A 
ATOM      7  C   UNL     1       2.408   6.435  19.792  0.00  0.00    +0.000 A 
ATOM      8  C   UNL     1       1.639   6.829  20.883  0.00  0.00    +0.000 A 
ATOM      9  C   UNL     1       1.068   8.094  20.900  0.00  0.00    +0.000 A 
ATOM     10  C   UNL     1       1.295   8.984  19.840  0.00  0.00    +0.000 A 
ATOM     11  C   UNL     1       0.756  10.276  19.870  0.00  0.00    +0.000 A 
ATOM     12  C   UNL     1       0.998  11.148  18.820  0.00  0.00    +0.000 A 
ATOM     13  C   UNL     1       1.769  10.696  17.767  0.00  0.00    +0.000 A 
ATOM     14  N   UNL     1       2.295   9.449  17.689  0.00  0.00    +0.000 NA
ATOM     15  C   UNL     1       2.066   8.594  18.717  0.00  0.00    +0.000 A 
ENDBRANCH   4   6
ENDBRANCH   1   3
BRANCH   1  16
ATOM     16  C   UNL     1       6.030   5.109  15.968  0.00  0.00    +0.000 C 
BRANCH  16  17
ATOM     17  C   UNL     1       5.212   3.830  15.795  0.00  0.00    +0.000 C 
BRANCH  17  18
ATOM     18  C   UNL     1       4.423   3.535  17.045  0.00  0.00    +0.000 A 
ATOM     19  N   UNL     1       3.133   3.605  17.030  0.00  0.00    +0.000 NA
ATOM     20  C   UNL     1       2.450   3.318  18.223  0.00  0.00    +0.000 A 
ATOM     21  C   UNL     1       1.057   3.412  18.235  0.00  0.00    +0.000 A 
ATOM     22  C   UNL     1       0.340   3.147  19.404  0.00  0.00    +0.000 A 
ATOM     23  C   UNL     1       1.010   2.783  20.573  0.00  0.00    +0.000 A 
ATOM     24  C   UNL     1       2.401   2.684  20.577  0.00  0.00    +0.000 A 
ATOM     25  C   UNL     1       3.110   2.954  19.400  0.00  0.00    +0.000 A 
ATOM     26  C   UNL     1       4.577   2.877  19.357  0.00  0.00    +0.000 A 
ATOM     27  O   UNL     1       5.253   2.573  20.338  0.00  0.00    +0.000 OA
ATOM     28  N   UNL     1       5.151   3.176  18.145  0.00  0.00    +0.000 N 
ATOM     29  H   UNL     1       6.158   3.139  18.118  0.00  0.00    +0.000 HD
ENDBRANCH  17  18
ENDBRANCH  16  17
ENDBRANCH   1  16
TORSDOF 5
ENDMDL
MODEL 5
REMARK VINA RESULT:      -7.8      1.343      2.123
REMARK  Name = 
REMARK  5 active torsions:
REMARK  status: ('A' for Active; 'I' for Inactive)
REMARK    1  A    between atoms: C_2  and  C_3
REMARK    2  A    between atoms: C_3  and  C_4
REMARK    3  A    between atoms: C_4  and  C_5
REMARK    4  A    between atoms: C_5  and  C_6
REMARK    5  A    between atoms: N_17  and  C_18
REMARK                            x       y       z     vdW  Elec       q    Type
REMARK                         _______ _______ _______ _____ _____    ______ ____
ROOT
ATOM      1  C   UNL     1       2.189   4.161  20.940  0.00  0.00    +0.000 C 
ENDROOT
BRANCH   1   3
ATOM      2  O   UNL     1       1.473   4.973  18.827  0.00  0.00    +0.000 OA
ATOM      3  C   UNL     1       1.903   5.267  19.940  0.00  0.00    +0.000 C 
ATOM      4  N   UNL     1       2.198   6.542  20.379  0.00  0.00    +0.000 N 
ATOM      5  H   UNL     1       2.823   6.662  21.173  0.00  0.00    +0.000 HD
BRANCH   4   6
ATOM      6  C   UNL     1       1.941   7.753  19.670  0.00  0.00    +0.000 A 
ATOM      7  C   UNL     1       2.392   7.954  18.359  0.00  0.00    +0.000 A 
ATOM      8  C   UNL     1       2.220   9.183  17.729  0.00  0.00    +0.000 A 
ATOM      9  C   UNL     1       1.561  10.209  18.391  0.00  0.00    +0.000 A 
ATOM     10  C   UNL     1       1.036   9.996  19.674  0.00  0.00    +0.000 A 
ATOM     11  C   UNL     1       0.333  11.013  20.332  0.00  0.00    +0.000 A 
ATOM     12  C   UNL     1      -0.189  10.785  21.596  0.00  0.00    +0.000 A 
ATOM     13  C   UNL     1       0.016   9.543  22.166  0.00  0.00    +0.000 A 
ATOM     14  N   UNL     1       0.705   8.538  21.574  0.00  0.00    +0.000 NA
ATOM     15  C   UNL     1       1.212   8.755  20.334  0.00  0.00    +0.000 A 
ENDBRANCH   4   6
ENDBRANCH   1   3
BRANCH   1  16
ATOM     16  C   UNL     1       2.425   2.805  20.287  0.00  0.00    +0.000 C 
BRANCH  16  17
ATOM     17  C   UNL     1       3.911   2.452  20.307  0.00  0.00    +0.000 C 
BRANCH  17  18
ATOM     18  C   UNL     1       4.666   3.284  19.302  0.00  0.00    +0.000 A 
ATOM     19  N   UNL     1       4.354   3.231  18.049  0.00  0.00    +0.000 NA
ATOM     20  C   UNL     1       5.090   4.029  17.159  0.00  0.00    +0.000 A 
ATOM     21  C   UNL     1       4.785   3.967  15.798  0.00  0.00    +0.000 A 
ATOM     22  C   UNL     1       5.501   4.735  14.877  0.00  0.00    +0.000 A 
ATOM     23  C   UNL     1       6.528   5.576  15.309  0.00  0.00    +0.000 A 
ATOM     24  C   UNL     1       6.843   5.650  16.665  0.00  0.00    +0.000 A 
ATOM     25  C   UNL     1       6.121   4.873  17.579  0.00  0.00    +0.000 A 
ATOM     26  C   UNL     1       6.424   4.906  19.018  0.00  0.00    +0.000 A 
ATOM     27  O   UNL     1       7.315   5.608  19.490  0.00  0.00    +0.000 OA
ATOM     28  N   UNL     1       5.649   4.089  19.806  0.00  0.00    +0.000 N 
ATOM     29  H   UNL     1       5.867   4.098  20.789  0.00  0.00    +0.000 HD
ENDBRANCH  17  18
ENDBRANCH  16  17
ENDBRANCH   1  16
TORSDOF 5
ENDMDL
MODEL 6
REMARK VINA RESULT:      -7.8      1.818      6.200
REMARK  Name = 
REMARK  5 active torsions:
REMARK  status: ('A' for Active; 'I' for Inactive)
REMARK    1  A    between atoms: C_2  and  C_3
REMARK    2  A    between atoms: C_3  and  C_4
REMARK    3  A    between atoms: C_4  and  C_5
REMARK    4  A    between atoms: C_5  and  C_6
REMARK    5  A    between atoms: N_17  and  C_18
REMARK                            x       y       z     vdW  Elec       q    Type
REMARK                         _______ _______ _______ _____ _____    ______ ____
ROOT
ATOM      1  C   UNL     1       2.391   2.566  19.643  0.00  0.00    +0.000 C 
ENDROOT
BRANCH   1   3
ATOM      2  O   UNL     1       4.705   2.419  20.152  0.00  0.00    +0.000 OA
ATOM      3  C   UNL     1       3.836   3.012  19.517  0.00  0.00    +0.000 C 
ATOM      4  N   UNL     1       4.041   4.105  18.699  0.00  0.00    +0.000 N 
ATOM      5  H   UNL     1       3.254   4.708  18.468  0.00  0.00    +0.000 HD
BRANCH   4   6
ATOM      6  C   UNL     1       5.306   4.663  18.346  0.00  0.00    +0.000 A 
ATOM      7  C   UNL     1       6.145   5.259  19.297  0.00  0.00    +0.000 A 
ATOM      8  C   UNL     1       7.324   5.889  18.909  0.00  0.00    +0.000 A 
ATOM      9  C   UNL     1       7.694   5.893  17.571  0.00  0.00    +0.000 A 
ATOM     10  C   UNL     1       6.902   5.233  16.620  0.00  0.00    +0.000 A 
ATOM     11  C   UNL     1       7.291   5.197  15.275  0.00  0.00    +0.000 A 
ATOM     12  C   UNL     1       6.504   4.532  14.348  0.00  0.00    +0.000 A 
ATOM     13  C   UNL     1       5.346   3.927  14.797  0.00  0.00    +0.000 A 
ATOM     14  N   UNL     1       4.924   3.952  16.084  0.00  0.00    +0.000 NA
ATOM     15  C   UNL     1       5.694   4.596  16.996  0.00  0.00    +0.000 A 
ENDBRANCH   4   6
ENDBRANCH   1   3
BRANCH   1  16
ATOM     16  C   UNL     1       1.448   3.690  20.054  0.00  0.00    +0.000 C 
BRANCH  16  17
ATOM     17  C   UNL     1       2.151   4.657  21.006  0.00  0.00    +0.000 C 
BRANCH  17  18
ATOM     18  C   UNL     1       1.883   6.084  20.602  0.00  0.00    +0.000 A 
ATOM     19  N   UNL     1       2.303   6.527  19.464  0.00  0.00    +0.000 NA
ATOM     20  C   UNL     1       2.023   7.865  19.141  0.00  0.00    +0.000 A 
ATOM     21  C   UNL     1       2.490   8.370  17.926  0.00  0.00    +0.000 A 
ATOM     22  C   UNL     1       2.244   9.698  17.571  0.00  0.00    +0.000 A 
ATOM     23  C   UNL     1       1.525  10.534  18.428  0.00  0.00    +0.000 A 
ATOM     24  C   UNL     1       1.051  10.043  19.644  0.00  0.00    +0.000 A 
ATOM     25  C   UNL     1       1.306   8.711  19.991  0.00  0.00    +0.000 A 
ATOM     26  C   UNL     1       0.839   8.150  21.267  0.00  0.00    +0.000 A 
ATOM     27  O   UNL     1       0.207   8.812  22.088  0.00  0.00    +0.000 OA
ATOM     28  N   UNL     1       1.164   6.834  21.491  0.00  0.00    +0.000 N 
ATOM     29  H   UNL     1       0.859   6.454  22.372  0.00  0.00    +0.000 HD
ENDBRANCH  17  18
ENDBRANCH  16  17
ENDBRANCH   1  16
TORSDOF 5
ENDMDL
MODEL 7
REMARK VINA RESULT:      -7.8      4.842      7.758
REMARK  Name = 
REMARK  5 active torsions:
REMARK  status: ('A' for Active; 'I' for Inactive)
REMARK    1  A    between atoms: C_2  and  C_3
REMARK    2  A    between atoms: C_3  and  C_4
REMARK    3  A    between atoms: C_4  and  C_5
REMARK    4  A    between atoms: C_5  and  C_6
REMARK    5  A    between atoms: N_17  and  C_18
REMARK                            x       y       z     vdW  Elec       q    Type
REMARK                         _______ _______ _______ _____ _____    ______ ____
ROOT
ATOM      1  C   UNL     1       8.185   7.942  17.577  0.00  0.00    +0.000 C 
ENDROOT
BRANCH   1   3
ATOM      2  O   UNL     1       7.555  10.223  17.780  0.00  0.00    +0.000 OA
ATOM      3  C   UNL     1       8.299   9.330  18.181  0.00  0.00    +0.000 C 
ATOM      4  N   UNL     1       9.287   9.473  19.134  0.00  0.00    +0.000 N 
ATOM      5  H   UNL     1      10.038   8.787  19.178  0.00  0.00    +0.000 HD
BRANCH   4   6
ATOM      6  C   UNL     1       9.540  10.643  19.910  0.00  0.00    +0.000 A 
ATOM      7  C   UNL     1       8.959  10.837  21.170  0.00  0.00    +0.000 A 
ATOM      8  C   UNL     1       9.138  12.033  21.859  0.00  0.00    +0.000 A 
ATOM      9  C   UNL     1       9.932  13.031  21.310  0.00  0.00    +0.000 A 
ATOM     10  C   UNL     1      10.581  12.819  20.085  0.00  0.00    +0.000 A 
ATOM     11  C   UNL     1      11.417  13.805  19.546  0.00  0.00    +0.000 A 
ATOM     12  C   UNL     1      12.061  13.578  18.339  0.00  0.00    +0.000 A 
ATOM     13  C   UNL     1      11.842  12.370  17.706  0.00  0.00    +0.000 A 
ATOM     14  N   UNL     1      11.029  11.397  18.182  0.00  0.00    +0.000 NA
ATOM     15  C   UNL     1      10.402  11.612  19.366  0.00  0.00    +0.000 A 
ENDBRANCH   4   6
ENDBRANCH   1   3
BRANCH   1  16
ATOM     16  C   UNL     1       7.732   6.886  18.576  0.00  0.00    +0.000 C 
BRANCH  16  17
ATOM     17  C   UNL     1       7.154   5.673  17.848  0.00  0.00    +0.000 C 
BRANCH  17  18
ATOM     18  C   UNL     1       5.909   5.183  18.543  0.00  0.00    +0.000 A 
ATOM     19  N   UNL     1       4.918   5.987  18.744  0.00  0.00    +0.000 NA
ATOM     20  C   UNL     1       3.784   5.476  19.394  0.00  0.00    +0.000 A 
ATOM     21  C   UNL     1       2.713   6.335  19.643  0.00  0.00    +0.000 A 
ATOM     22  C   UNL     1       1.570   5.869  20.299  0.00  0.00    +0.000 A 
ATOM     23  C   UNL     1       1.488   4.537  20.709  0.00  0.00    +0.000 A 
ATOM     24  C   UNL     1       2.550   3.667  20.467  0.00  0.00    +0.000 A 
ATOM     25  C   UNL     1       3.691   4.145  19.812  0.00  0.00    +0.000 A 
ATOM     26  C   UNL     1       4.842   3.270  19.545  0.00  0.00    +0.000 A 
ATOM     27  O   UNL     1       4.865   2.087  19.877  0.00  0.00    +0.000 OA
ATOM     28  N   UNL     1       5.903   3.865  18.905  0.00  0.00    +0.000 N 
ATOM     29  H   UNL     1       6.699   3.271  18.736  0.00  0.00    +0.000 HD
ENDBRANCH  17  18
ENDBRANCH  16  17
ENDBRANCH   1  16
TORSDOF 5
ENDMDL
MODEL 8
REMARK VINA RESULT:      -7.8      4.730      7.182
REMARK  Name = 
REMARK  5 active torsions:
REMARK  status: ('A' for Active; 'I' for Inactive)
REMARK    1  A    between atoms: C_2  and  C_3
REMARK    2  A    between atoms: C_3  and  C_4
REMARK    3  A    between atoms: C_4  and  C_5
REMARK    4  A    between atoms: C_5  and  C_6
REMARK    5  A    between atoms: N_17  and  C_18
REMARK                            x       y       z     vdW  Elec       q    Type
REMARK                         _______ _______ _______ _____ _____    ______ ____
ROOT
ATOM      1  C   UNL     1       8.260   7.513  18.728  0.00  0.00    +0.000 C 
ENDROOT
BRANCH   1   3
ATOM      2  O   UNL     1       7.726   9.500  17.542  0.00  0.00    +0.000 OA
ATOM      3  C   UNL     1       8.430   8.988  18.410  0.00  0.00    +0.000 C 
ATOM      4  N   UNL     1       9.421   9.630  19.125  0.00  0.00    +0.000 N 
ATOM      5  H   UNL     1      10.142   9.075  19.583  0.00  0.00    +0.000 HD
BRANCH   4   6
ATOM      6  C   UNL     1       9.720  11.024  19.077  0.00  0.00    +0.000 A 
ATOM      7  C   UNL     1      10.255  11.628  17.933  0.00  0.00    +0.000 A 
ATOM      8  C   UNL     1      10.637  12.967  17.948  0.00  0.00    +0.000 A 
ATOM      9  C   UNL     1      10.451  13.722  19.097  0.00  0.00    +0.000 A 
ATOM     10  C   UNL     1       9.845  13.149  20.225  0.00  0.00    +0.000 A 
ATOM     11  C   UNL     1       9.616  13.917  21.374  0.00  0.00    +0.000 A 
ATOM     12  C   UNL     1       9.006  13.340  22.478  0.00  0.00    +0.000 A 
ATOM     13  C   UNL     1       8.652  12.008  22.399  0.00  0.00    +0.000 A 
ATOM     14  N   UNL     1       8.871  11.224  21.315  0.00  0.00    +0.000 NA
ATOM     15  C   UNL     1       9.460  11.786  20.230  0.00  0.00    +0.000 A 
ENDBRANCH   4   6
ENDBRANCH   1   3
BRANCH   1  16
ATOM     16  C   UNL     1       7.472   6.756  17.667  0.00  0.00    +0.000 C 
BRANCH  16  17
ATOM     17  C   UNL     1       7.232   5.313  18.107  0.00  0.00    +0.000 C 
BRANCH  17  18
ATOM     18  C   UNL     1       5.786   5.108  18.482  0.00  0.00    +0.000 A 
ATOM     19  N   UNL     1       5.426   4.047  19.125  0.00  0.00    +0.000 NA
ATOM     20  C   UNL     1       4.066   3.911  19.449  0.00  0.00    +0.000 A 
ATOM     21  C   UNL     1       3.653   2.759  20.121  0.00  0.00    +0.000 A 
ATOM     22  C   UNL     1       2.308   2.578  20.452  0.00  0.00    +0.000 A 
ATOM     23  C   UNL     1       1.363   3.550  20.115  0.00  0.00    +0.000 A 
ATOM     24  C   UNL     1       1.762   4.705  19.444  0.00  0.00    +0.000 A 
ATOM     25  C   UNL     1       3.112   4.875  19.115  0.00  0.00    +0.000 A 
ATOM     26  C   UNL     1       3.580   6.069  18.397  0.00  0.00    +0.000 A 
ATOM     27  O   UNL     1       2.821   6.973  18.051  0.00  0.00    +0.000 OA
ATOM     28  N   UNL     1       4.926   6.109  18.126  0.00  0.00    +0.000 N 
ATOM     29  H   UNL     1       5.245   6.919  17.619  0.00  0.00    +0.000 HD
ENDBRANCH  17  18
ENDBRANCH  16  17
ENDBRANCH   1  16
TORSDOF 5
ENDMDL
MODEL 9
REMARK VINA RESULT:      -7.7      5.519      7.812
REMARK  Name = 
REMARK  5 active torsions:
REMARK  status: ('A' for Active; 'I' for Inactive)
REMARK    1  A    between atoms: C_2  and  C_3
REMARK    2  A    between atoms: C_3  and  C_4
REMARK    3  A    between atoms: C_4  and  C_5
REMARK    4  A    between atoms: C_5  and  C_6
REMARK    5  A    between atoms: N_17  and  C_18
REMARK                            x       y       z     vdW  Elec       q    Type
REMARK                         _______ _______ _______ _____ _____    ______ ____
ROOT
ATOM      1  C   UNL     1       7.959   8.764  17.538  0.00  0.00    +0.000 C 
ENDROOT
BRANCH   1   3
ATOM      2  O   UNL     1       9.064   9.295  19.572  0.00  0.00    +0.000 OA
ATOM      3  C   UNL     1       8.789   9.667  18.433  0.00  0.00    +0.000 C 
ATOM      4  N   UNL     1       9.138  10.881  17.876  0.00  0.00    +0.000 N 
ATOM      5  H   UNL     1       8.620  11.225  17.070  0.00  0.00    +0.000 HD
BRANCH   4   6
ATOM      6  C   UNL     1       9.982  11.864  18.472  0.00  0.00    +0.000 A 
ATOM      7  C   UNL     1      11.245  11.545  18.987  0.00  0.00    +0.000 A 
ATOM      8  C   UNL     1      12.002  12.501  19.657  0.00  0.00    +0.000 A 
ATOM      9  C   UNL     1      11.519  13.796  19.784  0.00  0.00    +0.000 A 
ATOM     10  C   UNL     1      10.291  14.148  19.206  0.00  0.00    +0.000 A 
ATOM     11  C   UNL     1       9.817  15.463  19.294  0.00  0.00    +0.000 A 
ATOM     12  C   UNL     1       8.606  15.801  18.708  0.00  0.00    +0.000 A 
ATOM     13  C   UNL     1       7.903  14.805  18.057  0.00  0.00    +0.000 A 
ATOM     14  N   UNL     1       8.315  13.518  17.964  0.00  0.00    +0.000 NA
ATOM     15  C   UNL     1       9.503  13.185  18.529  0.00  0.00    +0.000 A 
ENDBRANCH   4   6
ENDBRANCH   1   3
BRANCH   1  16
ATOM     16  C   UNL     1       7.762   7.366  18.111  0.00  0.00    +0.000 C 
BRANCH  16  17
ATOM     17  C   UNL     1       7.297   6.402  17.021  0.00  0.00    +0.000 C 
BRANCH  17  18
ATOM     18  C   UNL     1       5.877   5.964  17.273  0.00  0.00    +0.000 A 
ATOM     19  N   UNL     1       5.584   4.707  17.329  0.00  0.00    +0.000 NA
ATOM     20  C   UNL     1       4.245   4.359  17.568  0.00  0.00    +0.000 A 
ATOM     21  C   UNL     1       3.904   3.006  17.608  0.00  0.00    +0.000 A 
ATOM     22  C   UNL     1       2.581   2.617  17.830  0.00  0.00    +0.000 A 
ATOM     23  C   UNL     1       1.586   3.578  18.018  0.00  0.00    +0.000 A 
ATOM     24  C   UNL     1       1.912   4.933  17.982  0.00  0.00    +0.000 A 
ATOM     25  C   UNL     1       3.241   5.312  17.756  0.00  0.00    +0.000 A 
ATOM     26  C   UNL     1       3.632   6.728  17.696  0.00  0.00    +0.000 A 
ATOM     27  O   UNL     1       2.825   7.644  17.840  0.00  0.00    +0.000 OA
ATOM     28  N   UNL     1       4.964   6.966  17.457  0.00  0.00    +0.000 N 
ATOM     29  H   UNL     1       5.230   7.935  17.399  0.00  0.00    +0.000 HD
ENDBRANCH  17  18
ENDBRANCH  16  17
ENDBRANCH   1  16
TORSDOF 5
ENDMDL
