MODEL 1
REMARK VINA RESULT:      -9.0      0.000      0.000
REMARK  Name = 
REMARK  4 active torsions:
REMARK  status: ('A' for Active; 'I' for Inactive)
REMARK    1  A    between atoms: C_2  and  C_20
REMARK    2  A    between atoms: N_3  and  C_4
REMARK    3  A    between atoms: C_8  and  S_9
REMARK    4  A    between atoms: S_9  and  N_12
REMARK                            x       y       z     vdW  Elec       q    Type
REMARK                         _______ _______ _______ _____ _____    ______ ____
ROOT
ATOM      1  C   UNL     1       7.983   8.066  18.029  0.00  0.00    +0.000 A 
ATOM      2  C   UNL     1       8.475   7.241  19.043  0.00  0.00    +0.000 A 
ATOM      3  C   UNL     1       8.130   5.887  19.079  0.00  0.00    +0.000 A 
ATOM      4  C   UNL     1       7.277   5.359  18.112  0.00  0.00    +0.000 A 
ATOM      5  C   UNL     1       6.831   6.175  17.068  0.00  0.00    +0.000 A 
ATOM      6  C   UNL     1       7.203   7.520  17.012  0.00  0.00    +0.000 A 
ENDROOT
BRANCH   1   9
ATOM      7  O   UNL     1       9.242   9.868  20.017  0.00  0.00    +0.000 OA
ATOM      8  C   UNL     1       8.848  10.229  18.912  0.00  0.00    +0.000 C 
ATOM      9  N   UNL     1       8.214   9.441  17.973  0.00  0.00    +0.000 N 
ATOM     10  H   UNL     1       7.832   9.977  17.195  0.00  0.00    +0.000 HD
BRANCH   8  11
ATOM     11  C   UNL     1       9.058  11.590  18.400  0.00  0.00    +0.000 A 
ATOM     12  N   UNL     1       8.243  12.121  17.456  0.00  0.00    +0.000 NA
ATOM     13  N   UNL     1       8.915  13.213  17.048  0.00  0.00    +0.000 N 
ATOM     14  C   UNL     1      10.145  13.360  17.627  0.00  0.00    +0.000 A 
ATOM     15  C   UNL     1      11.224  14.194  17.331  0.00  0.00    +0.000 A 
ATOM     16  C   UNL     1      12.333  14.118  18.181  0.00  0.00    +0.000 A 
ATOM     17  C   UNL     1      12.331  13.290  19.304  0.00  0.00    +0.000 A 
ATOM     18  C   UNL     1      11.258  12.429  19.552  0.00  0.00    +0.000 A 
ATOM     19  C   UNL     1      10.173  12.431  18.659  0.00  0.00    +0.000 A 
ATOM     20  H   UNL     1       8.496  13.796  16.331  0.00  0.00    +0.000 HD
ENDBRANCH   8  11
ENDBRANCH   1   9
BRANCH   5  21
ATOM     21  S   UNL     1       5.643   5.569  15.887  0.00  0.00    +0.000 S 
ATOM     22  O   UNL     1       5.265   6.677  15.038  0.00  0.00    +0.000 OA
ATOM     23  O   UNL     1       6.183   4.349  15.320  0.00  0.00    +0.000 OA
BRANCH  21  24
ATOM     24  N   UNL     1       4.303   5.160  16.866  0.00  0.00    +0.000 NA
ATOM     25  C   UNL     1       4.196   3.746  17.280  0.00  0.00    +0.000 C 
ATOM     26  C   UNL     1       2.745   3.272  17.277  0.00  0.00    +0.000 C 
ATOM     27  C   UNL     1       1.984   3.606  18.555  0.00  0.00    +0.000 C 
ATOM     28  C   UNL     1       1.822   5.099  18.804  0.00  0.00    +0.000 C 
ATOM     29  C   UNL     1       3.152   5.799  19.055  0.00  0.00    +0.000 C 
ATOM     30  C   UNL     1       3.863   6.234  17.785  0.00  0.00    +0.000 C 
ENDBRANCH  21  24
ENDBRANCH   5  21
TORSDOF 4
ENDMDL
MODEL 2
REMARK VINA RESULT:      -9.0      5.653      8.601
REMARK  Name = 
REMARK  4 active torsions:
REMARK  status: ('A' for Active; 'I' for Inactive)
REMARK    1  A    between atoms: C_2  and  C_20
REMARK    2  A    between atoms: N_3  and  C_4
REMARK    3  A    between atoms: C_8  and  S_9
REMARK    4  A    between atoms: S_9  and  N_12
REMARK                            x       y       z     vdW  Elec       q    Type
REMARK                         _______ _______ _______ _____ _____    ______ ____
ROOT
ATOM      1  C   UNL     1       1.744   7.596  20.372  0.00  0.00    +0.000 A 
ATOM      2  C   UNL     1       0.965   7.473  21.525  0.00  0.00    +0.000 A 
ATOM      3  C   UNL     1       0.056   8.475  21.873  0.00  0.00    +0.000 A 
ATOM      4  C   UNL     1      -0.065   9.613  21.076  0.00  0.00    +0.000 A 
ATOM      5  C   UNL     1       0.676   9.708  19.895  0.00  0.00    +0.000 A 
ATOM      6  C   UNL     1       1.560   8.690  19.529  0.00  0.00    +0.000 A 
ENDROOT
BRANCH   1   9
ATOM      7  O   UNL     1       1.492   4.776  19.494  0.00  0.00    +0.000 OA
ATOM      8  C   UNL     1       2.555   5.386  19.559  0.00  0.00    +0.000 C 
ATOM      9  N   UNL     1       2.730   6.680  20.005  0.00  0.00    +0.000 N 
ATOM     10  H   UNL     1       3.710   6.932  20.125  0.00  0.00    +0.000 HD
BRANCH   8  11
ATOM     11  C   UNL     1       3.828   4.813  19.097  0.00  0.00    +0.000 A 
ATOM     12  N   UNL     1       4.282   3.630  19.577  0.00  0.00    +0.000 NA
ATOM     13  N   UNL     1       5.561   3.600  19.161  0.00  0.00    +0.000 N 
ATOM     14  C   UNL     1       5.963   4.734  18.510  0.00  0.00    +0.000 A 
ATOM     15  C   UNL     1       7.224   5.197  18.132  0.00  0.00    +0.000 A 
ATOM     16  C   UNL     1       7.267   6.401  17.419  0.00  0.00    +0.000 A 
ATOM     17  C   UNL     1       6.098   7.070  17.054  0.00  0.00    +0.000 A 
ATOM     18  C   UNL     1       4.850   6.612  17.487  0.00  0.00    +0.000 A 
ATOM     19  C   UNL     1       4.797   5.451  18.278  0.00  0.00    +0.000 A 
ATOM     20  H   UNL     1       6.125   2.790  19.397  0.00  0.00    +0.000 HD
ENDBRANCH   8  11
ENDBRANCH   1   9
BRANCH   5  21
ATOM     21  S   UNL     1       0.641  11.199  18.920  0.00  0.00    +0.000 S 
ATOM     22  O   UNL     1       0.718  12.320  19.831  0.00  0.00    +0.000 OA
ATOM     23  O   UNL     1       1.611  11.039  17.854  0.00  0.00    +0.000 OA
BRANCH  21  24
ATOM     24  N   UNL     1      -0.923  11.170  18.232  0.00  0.00    +0.000 NA
ATOM     25  C   UNL     1      -1.365   9.886  17.653  0.00  0.00    +0.000 C 
ATOM     26  C   UNL     1      -2.173  10.098  16.374  0.00  0.00    +0.000 C 
ATOM     27  C   UNL     1      -3.649  10.389  16.618  0.00  0.00    +0.000 C 
ATOM     28  C   UNL     1      -3.906  11.689  17.368  0.00  0.00    +0.000 C 
ATOM     29  C   UNL     1      -3.367  11.660  18.793  0.00  0.00    +0.000 C 
ATOM     30  C   UNL     1      -1.904  12.056  18.900  0.00  0.00    +0.000 C 
ENDBRANCH  21  24
ENDBRANCH   5  21
TORSDOF 4
ENDMDL
MODEL 3
REMARK VINA RESULT:      -8.9      6.279      8.617
REMARK  Name = 
REMARK  4 active torsions:
REMARK  status: ('A' for Active; 'I' for Inactive)
REMARK    1  A    between atoms: C_2  and  C_20
REMARK    2  A    between atoms: N_3  and  C_4
REMARK    3  A    between atoms: C_8  and  S_9
REMARK    4  A    between atoms: S_9  and  N_12
REMARK                            x       y       z     vdW  Elec       q    Type
REMARK                         _______ _______ _______ _____ _____    ______ ____
ROOT
ATOM      1  C   UNL     1       2.332   7.020  19.975  0.00  0.00    +0.000 A 
ATOM      2  C   UNL     1       1.575   6.791  21.126  0.00  0.00    +0.000 A 
ATOM      3  C   UNL     1       0.612   7.718  21.533  0.00  0.00    +0.000 A 
ATOM      4  C   UNL     1       0.416   8.887  20.800  0.00  0.00    +0.000 A 
ATOM      5  C   UNL     1       1.137   9.087  19.620  0.00  0.00    +0.000 A 
ATOM      6  C   UNL     1       2.075   8.145  19.193  0.00  0.00    +0.000 A 
ENDROOT
BRANCH   1   9
ATOM      7  O   UNL     1       2.243   4.582  18.292  0.00  0.00    +0.000 OA
ATOM      8  C   UNL     1       3.276   5.082  18.728  0.00  0.00    +0.000 C 
ATOM      9  N   UNL     1       3.366   6.185  19.551  0.00  0.00    +0.000 N 
ATOM     10  H   UNL     1       4.305   6.332  19.920  0.00  0.00    +0.000 HD
BRANCH   8  11
ATOM     11  C   UNL     1       4.612   4.584  18.368  0.00  0.00    +0.000 A 
ATOM     12  N   UNL     1       5.548   4.333  19.315  0.00  0.00    +0.000 NA
ATOM     13  N   UNL     1       6.679   4.194  18.601  0.00  0.00    +0.000 N 
ATOM     14  C   UNL     1       6.523   4.420  17.261  0.00  0.00    +0.000 A 
ATOM     15  C   UNL     1       7.447   4.600  16.231  0.00  0.00    +0.000 A 
ATOM     16  C   UNL     1       6.930   4.760  14.940  0.00  0.00    +0.000 A 
ATOM     17  C   UNL     1       5.559   4.681  14.693  0.00  0.00    +0.000 A 
ATOM     18  C   UNL     1       4.651   4.548  15.747  0.00  0.00    +0.000 A 
ATOM     19  C   UNL     1       5.151   4.474  17.059  0.00  0.00    +0.000 A 
ATOM     20  H   UNL     1       7.540   3.990  19.097  0.00  0.00    +0.000 HD
ENDBRANCH   8  11
ENDBRANCH   1   9
BRANCH   5  21
ATOM     21  S   UNL     1       1.004  10.623  18.726  0.00  0.00    +0.000 S 
ATOM     22  O   UNL     1       1.334  11.693  19.642  0.00  0.00    +0.000 OA
ATOM     23  O   UNL     1       1.727  10.460  17.480  0.00  0.00    +0.000 OA
BRANCH  21  24
ATOM     24  N   UNL     1      -0.666  10.715  18.370  0.00  0.00    +0.000 NA
ATOM     25  C   UNL     1      -1.281  12.056  18.441  0.00  0.00    +0.000 C 
ATOM     26  C   UNL     1      -2.689  11.994  19.029  0.00  0.00    +0.000 C 
ATOM     27  C   UNL     1      -3.769  11.654  18.008  0.00  0.00    +0.000 C 
ATOM     28  C   UNL     1      -3.626  10.268  17.397  0.00  0.00    +0.000 C 
ATOM     29  C   UNL     1      -2.364  10.125  16.555  0.00  0.00    +0.000 C 
ATOM     30  C   UNL     1      -1.134   9.740  17.360  0.00  0.00    +0.000 C 
ENDBRANCH  21  24
ENDBRANCH   5  21
TORSDOF 4
ENDMDL
MODEL 4
REMARK VINA RESULT:      -8.9      5.717      7.318
REMARK  Name = 
REMARK  4 active torsions:
REMARK  status: ('A' for Active; 'I' for Inactive)
REMARK    1  A    between atoms: C_2  and  C_20
REMARK    2  A    between atoms: N_3  and  C_4
REMARK    3  A    between atoms: C_8  and  S_9
REMARK    4  A    between atoms: S_9  and  N_12
REMARK                            x       y       z     vdW  Elec       q    Type
REMARK                         _______ _______ _______ _____ _____    ______ ____
ROOT
ATOM      1  C   UNL     1       3.422   6.035  17.803  0.00  0.00    +0.000 A 
ATOM      2  C   UNL     1       2.885   4.770  18.055  0.00  0.00    +0.000 A 
ATOM      3  C   UNL     1       3.654   3.623  17.847  0.00  0.00    +0.000 A 
ATOM      4  C   UNL     1       4.958   3.736  17.367  0.00  0.00    +0.000 A 
ATOM      5  C   UNL     1       5.511   5.004  17.168  0.00  0.00    +0.000 A 
ATOM      6  C   UNL     1       4.753   6.153  17.409  0.00  0.00    +0.000 A 
ENDROOT
BRANCH   1   9
ATOM      7  O   UNL     1       2.155   7.288  20.171  0.00  0.00    +0.000 OA
ATOM      8  C   UNL     1       2.158   7.784  19.047  0.00  0.00    +0.000 C 
ATOM      9  N   UNL     1       2.691   7.219  17.907  0.00  0.00    +0.000 N 
ATOM     10  H   UNL     1       2.445   7.726  17.058  0.00  0.00    +0.000 HD
BRANCH   8  11
ATOM     11  C   UNL     1       1.622   9.124  18.769  0.00  0.00    +0.000 A 
ATOM     12  N   UNL     1       2.047   9.844  17.703  0.00  0.00    +0.000 NA
ATOM     13  N   UNL     1       1.571  11.077  17.955  0.00  0.00    +0.000 N 
ATOM     14  C   UNL     1       0.934  11.193  19.159  0.00  0.00    +0.000 A 
ATOM     15  C   UNL     1       0.510  12.304  19.889  0.00  0.00    +0.000 A 
ATOM     16  C   UNL     1      -0.171  12.052  21.086  0.00  0.00    +0.000 A 
ATOM     17  C   UNL     1      -0.462  10.750  21.494  0.00  0.00    +0.000 A 
ATOM     18  C   UNL     1       0.016   9.653  20.772  0.00  0.00    +0.000 A 
ATOM     19  C   UNL     1       0.776   9.890  19.613  0.00  0.00    +0.000 A 
ATOM     20  H   UNL     1       1.758  11.812  17.282  0.00  0.00    +0.000 HD
ENDBRANCH   8  11
ENDBRANCH   1   9
BRANCH   5  21
ATOM     21  S   UNL     1       7.127   5.185  16.440  0.00  0.00    +0.000 S 
ATOM     22  O   UNL     1       7.435   6.598  16.405  0.00  0.00    +0.000 OA
ATOM     23  O   UNL     1       8.008   4.248  17.108  0.00  0.00    +0.000 OA
BRANCH  21  24
ATOM     24  N   UNL     1       6.886   4.648  14.835  0.00  0.00    +0.000 NA
ATOM     25  C   UNL     1       5.487   4.565  14.370  0.00  0.00    +0.000 C 
ATOM     26  C   UNL     1       5.264   3.344  13.482  0.00  0.00    +0.000 C 
ATOM     27  C   UNL     1       5.638   3.567  12.021  0.00  0.00    +0.000 C 
ATOM     28  C   UNL     1       7.118   3.847  11.799  0.00  0.00    +0.000 C 
ATOM     29  C   UNL     1       7.566   5.161  12.427  0.00  0.00    +0.000 C 
ATOM     30  C   UNL     1       7.957   5.036  13.890  0.00  0.00    +0.000 C 
ENDBRANCH  21  24
ENDBRANCH   5  21
TORSDOF 4
ENDMDL
MODEL 5
REMARK VINA RESULT:      -8.9      6.335      9.223
REMARK  Name = 
REMARK  4 active torsions:
REMARK  status: ('A' for Active; 'I' for Inactive)
REMARK    1  A    between atoms: C_2  and  C_20
REMARK    2  A    between atoms: N_3  and  C_4
REMARK    3  A    between atoms: C_8  and  S_9
REMARK    4  A    between atoms: S_9  and  N_12
REMARK                            x       y       z     vdW  Elec       q    Type
REMARK                         _______ _______ _______ _____ _____    ______ ____
ROOT
ATOM      1  C   UNL     1       2.211   7.914  18.938  0.00  0.00    +0.000 A 
ATOM      2  C   UNL     1       1.681   8.607  17.847  0.00  0.00    +0.000 A 
ATOM      3  C   UNL     1       0.711   9.593  18.042  0.00  0.00    +0.000 A 
ATOM      4  C   UNL     1       0.254   9.877  19.328  0.00  0.00    +0.000 A 
ATOM      5  C   UNL     1       0.825   9.220  20.421  0.00  0.00    +0.000 A 
ATOM      6  C   UNL     1       1.819   8.258  20.230  0.00  0.00    +0.000 A 
ENDROOT
BRANCH   1   9
ATOM      7  O   UNL     1       1.812   5.164  17.908  0.00  0.00    +0.000 OA
ATOM      8  C   UNL     1       2.892   5.609  18.287  0.00  0.00    +0.000 C 
ATOM      9  N   UNL     1       3.119   6.862  18.818  0.00  0.00    +0.000 N 
ATOM     10  H   UNL     1       4.053   6.965  19.212  0.00  0.00    +0.000 HD
BRANCH   8  11
ATOM     11  C   UNL     1       4.147   4.853  18.169  0.00  0.00    +0.000 A 
ATOM     12  N   UNL     1       4.732   4.285  19.251  0.00  0.00    +0.000 NA
ATOM     13  N   UNL     1       5.959   3.964  18.805  0.00  0.00    +0.000 N 
ATOM     14  C   UNL     1       6.209   4.366  17.522  0.00  0.00    +0.000 A 
ATOM     15  C   UNL     1       7.388   4.436  16.777  0.00  0.00    +0.000 A 
ATOM     16  C   UNL     1       7.270   4.855  15.446  0.00  0.00    +0.000 A 
ATOM     17  C   UNL     1       6.025   5.129  14.880  0.00  0.00    +0.000 A 
ATOM     18  C   UNL     1       4.865   5.098  15.659  0.00  0.00    +0.000 A 
ATOM     19  C   UNL     1       4.977   4.764  17.020  0.00  0.00    +0.000 A 
ATOM     20  H   UNL     1       6.601   3.509  19.445  0.00  0.00    +0.000 HD
ENDBRANCH   8  11
ENDBRANCH   1   9
BRANCH   5  21
ATOM     21  S   UNL     1       0.180   9.466  22.064  0.00  0.00    +0.000 S 
ATOM     22  O   UNL     1      -0.874   8.497  22.271  0.00  0.00    +0.000 OA
ATOM     23  O   UNL     1       1.313   9.535  22.966  0.00  0.00    +0.000 OA
BRANCH  21  24
ATOM     24  N   UNL     1      -0.528  11.019  21.970  0.00  0.00    +0.000 NA
ATOM     25  C   UNL     1      -1.489  11.371  23.034  0.00  0.00    +0.000 C 
ATOM     26  C   UNL     1      -2.662  12.178  22.482  0.00  0.00    +0.000 C 
ATOM     27  C   UNL     1      -2.384  13.673  22.369  0.00  0.00    +0.000 C 
ATOM     28  C   UNL     1      -1.276  14.020  21.384  0.00  0.00    +0.000 C 
ATOM     29  C   UNL     1       0.085  13.494  21.822  0.00  0.00    +0.000 C 
ATOM     30  C   UNL     1       0.352  12.061  21.394  0.00  0.00    +0.000 C 
ENDBRANCH  21  24
ENDBRANCH   5  21
TORSDOF 4
ENDMDL
MODEL 6
REMARK VINA RESULT:      -8.8      6.279      8.577
REMARK  Name = 
REMARK  4 active torsions:
REMARK  status: ('A' for Active; 'I' for Inactive)
REMARK    1  A    between atoms: C_2  and  C_20
REMARK    2  A    between atoms: N_3  and  C_4
REMARK    3  A    between atoms: C_8  and  S_9
REMARK    4  A    between atoms: S_9  and  N_12
REMARK                            x       y       z     vdW  Elec       q    Type
REMARK                         _______ _______ _______ _____ _____    ______ ____
ROOT
ATOM      1  C   UNL     1       2.150   7.229  19.995  0.00  0.00    +0.000 A 
ATOM      2  C   UNL     1       1.382   7.079  21.151  0.00  0.00    +0.000 A 
ATOM      3  C   UNL     1       0.476   8.073  21.531  0.00  0.00    +0.000 A 
ATOM      4  C   UNL     1       0.352   9.231  20.764  0.00  0.00    +0.000 A 
ATOM      5  C   UNL     1       1.083   9.354  19.579  0.00  0.00    +0.000 A 
ATOM      6  C   UNL     1       1.962   8.344  19.182  0.00  0.00    +0.000 A 
ENDROOT
BRANCH   1   9
ATOM      7  O   UNL     1       1.987   4.957  18.099  0.00  0.00    +0.000 OA
ATOM      8  C   UNL     1       3.015   5.304  18.673  0.00  0.00    +0.000 C 
ATOM      9  N   UNL     1       3.132   6.321  19.597  0.00  0.00    +0.000 N 
ATOM     10  H   UNL     1       4.038   6.334  20.064  0.00  0.00    +0.000 HD
BRANCH   8  11
ATOM     11  C   UNL     1       4.323   4.691  18.397  0.00  0.00    +0.000 A 
ATOM     12  N   UNL     1       5.122   4.255  19.401  0.00  0.00    +0.000 NA
ATOM     13  N   UNL     1       6.302   4.052  18.789  0.00  0.00    +0.000 N 
ATOM     14  C   UNL     1       6.314   4.409  17.468  0.00  0.00    +0.000 A 
ATOM     15  C   UNL     1       7.356   4.573  16.554  0.00  0.00    +0.000 A 
ATOM     16  C   UNL     1       6.999   4.901  15.241  0.00  0.00    +0.000 A 
ATOM     17  C   UNL     1       5.661   4.999  14.857  0.00  0.00    +0.000 A 
ATOM     18  C   UNL     1       4.637   4.878  15.801  0.00  0.00    +0.000 A 
ATOM     19  C   UNL     1       4.984   4.635  17.141  0.00  0.00    +0.000 A 
ATOM     20  H   UNL     1       7.080   3.710  19.343  0.00  0.00    +0.000 HD
ENDBRANCH   8  11
ENDBRANCH   1   9
BRANCH   5  21
ATOM     21  S   UNL     1       1.042  10.868  18.642  0.00  0.00    +0.000 S 
ATOM     22  O   UNL     1       1.312  11.956  19.556  0.00  0.00    +0.000 OA
ATOM     23  O   UNL     1       1.861  10.667  17.463  0.00  0.00    +0.000 OA
BRANCH  21  24
ATOM     24  N   UNL     1      -0.591  10.971  18.151  0.00  0.00    +0.000 NA
ATOM     25  C   UNL     1      -1.205   9.729  17.639  0.00  0.00    +0.000 C 
ATOM     26  C   UNL     1      -2.142  10.011  16.467  0.00  0.00    +0.000 C 
ATOM     27  C   UNL     1      -3.549  10.422  16.887  0.00  0.00    +0.000 C 
ATOM     28  C   UNL     1      -3.604  11.737  17.652  0.00  0.00    +0.000 C 
ATOM     29  C   UNL     1      -2.899  11.661  19.000  0.00  0.00    +0.000 C 
ATOM     30  C   UNL     1      -1.407  11.934  18.926  0.00  0.00    +0.000 C 
ENDBRANCH  21  24
ENDBRANCH   5  21
TORSDOF 4
ENDMDL
MODEL 7
REMARK VINA RESULT:      -8.7      1.205      1.743
REMARK  Name = 
REMARK  4 active torsions:
REMARK  status: ('A' for Active; 'I' for Inactive)
REMARK    1  A    between atoms: C_2  and  C_20
REMARK    2  A    between atoms: N_3  and  C_4
REMARK    3  A    between atoms: C_8  and  S_9
REMARK    4  A    between atoms: S_9  and  N_12
REMARK                            x       y       z     vdW  Elec       q    Type
REMARK                         _______ _______ _______ _____ _____    ______ ____
ROOT
ATOM      1  C   UNL     1       8.122   8.084  17.914  0.00  0.00    +0.000 A 
ATOM      2  C   UNL     1       8.453   7.305  19.025  0.00  0.00    +0.000 A 
ATOM      3  C   UNL     1       7.902   6.031  19.184  0.00  0.00    +0.000 A 
ATOM      4  C   UNL     1       7.002   5.539  18.240  0.00  0.00    +0.000 A 
ATOM      5  C   UNL     1       6.715   6.298  17.102  0.00  0.00    +0.000 A 
ATOM      6  C   UNL     1       7.293   7.558  16.926  0.00  0.00    +0.000 A 
ENDROOT
BRANCH   1   9
ATOM      7  O   UNL     1       9.047  10.079  19.900  0.00  0.00    +0.000 OA
ATOM      8  C   UNL     1       9.030  10.270  18.687  0.00  0.00    +0.000 C 
ATOM      9  N   UNL     1       8.565   9.394  17.729  0.00  0.00    +0.000 N 
ATOM     10  H   UNL     1       8.496   9.815  16.803  0.00  0.00    +0.000 HD
BRANCH   8  11
ATOM     11  C   UNL     1       9.575  11.486  18.068  0.00  0.00    +0.000 A 
ATOM     12  N   UNL     1      10.903  11.621  17.831  0.00  0.00    +0.000 NA
ATOM     13  N   UNL     1      11.034  12.930  17.553  0.00  0.00    +0.000 N 
ATOM     14  C   UNL     1       9.875  13.646  17.675  0.00  0.00    +0.000 A 
ATOM     15  C   UNL     1       9.623  15.018  17.702  0.00  0.00    +0.000 A 
ATOM     16  C   UNL     1       8.282  15.412  17.789  0.00  0.00    +0.000 A 
ATOM     17  C   UNL     1       7.249  14.474  17.787  0.00  0.00    +0.000 A 
ATOM     18  C   UNL     1       7.530  13.105  17.808  0.00  0.00    +0.000 A 
ATOM     19  C   UNL     1       8.874  12.694  17.809  0.00  0.00    +0.000 A 
ATOM     20  H   UNL     1      11.959  13.285  17.331  0.00  0.00    +0.000 HD
ENDBRANCH   8  11
ENDBRANCH   1   9
BRANCH   5  21
ATOM     21  S   UNL     1       5.478   5.757  15.940  0.00  0.00    +0.000 S 
ATOM     22  O   UNL     1       5.039   6.918  15.196  0.00  0.00    +0.000 OA
ATOM     23  O   UNL     1       6.008   4.593  15.257  0.00  0.00    +0.000 OA
BRANCH  21  24
ATOM     24  N   UNL     1       4.197   5.251  16.952  0.00  0.00    +0.000 NA
ATOM     25  C   UNL     1       4.099   3.801  17.216  0.00  0.00    +0.000 C 
ATOM     26  C   UNL     1       2.645   3.337  17.253  0.00  0.00    +0.000 C 
ATOM     27  C   UNL     1       1.969   3.534  18.606  0.00  0.00    +0.000 C 
ATOM     28  C   UNL     1       1.841   4.992  19.025  0.00  0.00    +0.000 C 
ATOM     29  C   UNL     1       3.192   5.654  19.266  0.00  0.00    +0.000 C 
ATOM     30  C   UNL     1       3.827   6.221  18.008  0.00  0.00    +0.000 C 
ENDBRANCH  21  24
ENDBRANCH   5  21
TORSDOF 4
ENDMDL
MODEL 8
REMARK VINA RESULT:      -8.7      1.249      2.073
REMARK  Name = 
REMARK  4 active torsions:
REMARK  status: ('A' for Active; 'I' for Inactive)
REMARK    1  A    between atoms: C_2  and  C_20
REMARK    2  A    between atoms: N_3  and  C_4
REMARK    3  A    between atoms: C_8  and  S_9
REMARK    4  A    between atoms: S_9  and  N_12
REMARK                            x       y       z     vdW  Elec       q    Type
REMARK                         _______ _______ _______ _____ _____    ______ ____
ROOT
ATOM      1  C   UNL     1       8.143   8.113  17.989  0.00  0.00    +0.000 A 
ATOM      2  C   UNL     1       8.538   7.335  19.079  0.00  0.00    +0.000 A 
ATOM      3  C   UNL     1       7.971   6.076  19.289  0.00  0.00    +0.000 A 
ATOM      4  C   UNL     1       6.992   5.599  18.419  0.00  0.00    +0.000 A 
ATOM      5  C   UNL     1       6.638   6.357  17.299  0.00  0.00    +0.000 A 
ATOM      6  C   UNL     1       7.230   7.601  17.070  0.00  0.00    +0.000 A 
ENDROOT
BRANCH   1   9
ATOM      7  O   UNL     1       9.074  10.170  19.909  0.00  0.00    +0.000 OA
ATOM      8  C   UNL     1       9.068  10.317  18.689  0.00  0.00    +0.000 C 
ATOM      9  N   UNL     1       8.602   9.411  17.760  0.00  0.00    +0.000 N 
ATOM     10  H   UNL     1       8.544   9.799  16.819  0.00  0.00    +0.000 HD
BRANCH   8  11
ATOM     11  C   UNL     1       9.632  11.504  18.030  0.00  0.00    +0.000 A 
ATOM     12  N   UNL     1      10.944  11.569  17.700  0.00  0.00    +0.000 NA
ATOM     13  N   UNL     1      11.125  12.870  17.411  0.00  0.00    +0.000 N 
ATOM     14  C   UNL     1      10.017  13.645  17.614  0.00  0.00    +0.000 A 
ATOM     15  C   UNL     1       9.839  15.029  17.657  0.00  0.00    +0.000 A 
ATOM     16  C   UNL     1       8.531  15.493  17.838  0.00  0.00    +0.000 A 
ATOM     17  C   UNL     1       7.452  14.611  17.911  0.00  0.00    +0.000 A 
ATOM     18  C   UNL     1       7.661  13.229  17.914  0.00  0.00    +0.000 A 
ATOM     19  C   UNL     1       8.978  12.747  17.820  0.00  0.00    +0.000 A 
ATOM     20  H   UNL     1      12.048  13.176  17.123  0.00  0.00    +0.000 HD
ENDBRANCH   8  11
ENDBRANCH   1   9
BRANCH   5  21
ATOM     21  S   UNL     1       5.305   5.837  16.237  0.00  0.00    +0.000 S 
ATOM     22  O   UNL     1       4.804   7.012  15.557  0.00  0.00    +0.000 OA
ATOM     23  O   UNL     1       5.774   4.688  15.488  0.00  0.00    +0.000 OA
BRANCH  21  24
ATOM     24  N   UNL     1       4.116   5.309  17.345  0.00  0.00    +0.000 NA
ATOM     25  C   UNL     1       3.308   6.359  17.996  0.00  0.00    +0.000 C 
ATOM     26  C   UNL     1       3.025   6.021  19.458  0.00  0.00    +0.000 C 
ATOM     27  C   UNL     1       1.823   5.105  19.657  0.00  0.00    +0.000 C 
ATOM     28  C   UNL     1       1.994   3.721  19.045  0.00  0.00    +0.000 C 
ATOM     29  C   UNL     1       2.092   3.760  17.525  0.00  0.00    +0.000 C 
ATOM     30  C   UNL     1       3.500   4.004  17.010  0.00  0.00    +0.000 C 
ENDBRANCH  21  24
ENDBRANCH   5  21
TORSDOF 4
ENDMDL
MODEL 9
REMARK VINA RESULT:      -8.7      5.542      8.614
REMARK  Name = 
REMARK  4 active torsions:
REMARK  status: ('A' for Active; 'I' for Inactive)
REMARK    1  A    between atoms: C_2  and  C_20
REMARK    2  A    between atoms: N_3  and  C_4
REMARK    3  A    between atoms: C_8  and  S_9
REMARK    4  A    between atoms: S_9  and  N_12
REMARK                            x       y       z     vdW  Elec       q    Type
REMARK                         _______ _______ _______ _____ _____    ______ ____
ROOT
ATOM      1  C   UNL     1       1.817   7.493  20.400  0.00  0.00    +0.000 A 
ATOM      2  C   UNL     1       1.089   7.363  21.584  0.00  0.00    +0.000 A 
ATOM      3  C   UNL     1       0.155   8.337  21.949  0.00  0.00    +0.000 A 
ATOM      4  C   UNL     1      -0.038   9.454  21.139  0.00  0.00    +0.000 A 
ATOM      5  C   UNL     1       0.653   9.554  19.928  0.00  0.00    +0.000 A 
ATOM      6  C   UNL     1       1.560   8.563  19.546  0.00  0.00    +0.000 A 
ENDROOT
BRANCH   1   9
ATOM      7  O   UNL     1       1.616   4.827  19.121  0.00  0.00    +0.000 OA
ATOM      8  C   UNL     1       2.676   5.392  19.375  0.00  0.00    +0.000 C 
ATOM      9  N   UNL     1       2.822   6.607  20.011  0.00  0.00    +0.000 N 
ATOM     10  H   UNL     1       3.789   6.813  20.262  0.00  0.00    +0.000 HD
BRANCH   8  11
ATOM     11  C   UNL     1       3.981   4.851  18.969  0.00  0.00    +0.000 A 
ATOM     12  N   UNL     1       4.435   3.669  19.454  0.00  0.00    +0.000 NA
ATOM     13  N   UNL     1       5.733   3.671  19.101  0.00  0.00    +0.000 N 
ATOM     14  C   UNL     1       6.143   4.821  18.487  0.00  0.00    +0.000 A 
ATOM     15  C   UNL     1       7.412   5.315  18.177  0.00  0.00    +0.000 A 
ATOM     16  C   UNL     1       7.465   6.530  17.484  0.00  0.00    +0.000 A 
ATOM     17  C   UNL     1       6.302   7.181  17.072  0.00  0.00    +0.000 A 
ATOM     18  C   UNL     1       5.044   6.692  17.436  0.00  0.00    +0.000 A 
ATOM     19  C   UNL     1       4.976   5.519  18.208  0.00  0.00    +0.000 A 
ATOM     20  H   UNL     1       6.301   2.869  19.353  0.00  0.00    +0.000 HD
ENDBRANCH   8  11
ENDBRANCH   1   9
BRANCH   5  21
ATOM     21  S   UNL     1       0.524  11.024  18.929  0.00  0.00    +0.000 S 
ATOM     22  O   UNL     1       0.676  12.164  19.806  0.00  0.00    +0.000 OA
ATOM     23  O   UNL     1       1.395  10.844  17.784  0.00  0.00    +0.000 OA
BRANCH  21  24
ATOM     24  N   UNL     1      -1.096  10.976  18.384  0.00  0.00    +0.000 NA
ATOM     25  C   UNL     1      -1.854  12.241  18.459  0.00  0.00    +0.000 C 
ATOM     26  C   UNL     1      -3.304  11.999  18.872  0.00  0.00    +0.000 C 
ATOM     27  C   UNL     1      -4.222  11.627  17.712  0.00  0.00    +0.000 C 
ATOM     28  C   UNL     1      -3.865  10.307  17.043  0.00  0.00    +0.000 C 
ATOM     29  C   UNL     1      -2.508  10.349  16.350  0.00  0.00    +0.000 C 
ATOM     30  C   UNL     1      -1.342  10.031  17.271  0.00  0.00    +0.000 C 
ENDBRANCH  21  24
ENDBRANCH   5  21
TORSDOF 4
ENDMDL
