MODEL 1
REMARK VINA RESULT:      -7.7      0.000      0.000
REMARK  Name = 
REMARK  4 active torsions:
REMARK  status: ('A' for Active; 'I' for Inactive)
REMARK    1  A    between atoms: C_2  and  C_3
REMARK    2  A    between atoms: N_18  and  C_19
REMARK    3  A    between atoms: C_19  and  C_20
REMARK    4  A    between atoms: C_20  and  C_21
REMARK                            x       y       z     vdW  Elec       q    Type
REMARK                         _______ _______ _______ _____ _____    ______ ____
ROOT
ATOM      1  O   UNL     1       6.223   3.986  15.701  0.00  0.00    +0.000 OA
ATOM      2  C   UNL     1       5.893   4.358  16.825  0.00  0.00    +0.000 C 
ATOM      3  N   UNL     1       4.788   3.837  17.490  0.00  0.00    +0.000 N 
ATOM      4  C   UNL     1       4.083   2.685  16.978  0.00  0.00    +0.000 C 
ATOM      5  C   UNL     1       2.670   2.818  17.521  0.00  0.00    +0.000 C 
ATOM      6  C   UNL     1       2.785   3.669  18.798  0.00  0.00    +0.000 C 
ATOM      7  C   UNL     1       2.600   2.860  20.092  0.00  0.00    +0.000 C 
ATOM      8  C   UNL     1       1.987   3.860  21.058  0.00  0.00    +0.000 C 
ATOM      9  N   UNL     1       1.065   4.609  20.205  0.00  0.00    +0.000 NA
ATOM     10  C   UNL     1       1.705   4.758  18.892  0.00  0.00    +0.000 C 
ATOM     11  C   UNL     1       4.184   4.305  18.726  0.00  0.00    +0.000 C 
ENDROOT
BRANCH   2  12
ATOM     12  C   UNL     1       6.709   5.418  17.482  0.00  0.00    +0.000 A 
ATOM     13  C   UNL     1       7.568   5.071  18.534  0.00  0.00    +0.000 A 
ATOM     14  C   UNL     1       8.361   6.037  19.172  0.00  0.00    +0.000 A 
ATOM     15  C   UNL     1       8.288   7.354  18.697  0.00  0.00    +0.000 A 
ATOM     16  N   UNL     1       8.958   8.491  19.089  0.00  0.00    +0.000 N 
ATOM     17  C   UNL     1       8.579   9.555  18.310  0.00  0.00    +0.000 A 
ATOM     18  C   UNL     1       7.634   9.110  17.418  0.00  0.00    +0.000 A 
ATOM     19  C   UNL     1       7.431   7.728  17.667  0.00  0.00    +0.000 A 
ATOM     20  C   UNL     1       6.588   6.759  17.102  0.00  0.00    +0.000 A 
ATOM     21  H   UNL     1       9.630   8.532  19.841  0.00  0.00    +0.000 HD
ENDBRANCH   2  12
BRANCH   9  22
ATOM     22  C   UNL     1       0.682   5.898  20.800  0.00  0.00    +0.000 C 
BRANCH  22  23
ATOM     23  C   UNL     1       1.842   6.908  20.822  0.00  0.00    +0.000 C 
BRANCH  23  24
ATOM     24  C   UNL     1       1.512   8.150  20.030  0.00  0.00    +0.000 A 
ATOM     25  C   UNL     1       2.013   8.315  18.729  0.00  0.00    +0.000 A 
ATOM     26  C   UNL     1       1.705   9.469  18.006  0.00  0.00    +0.000 A 
ATOM     27  C   UNL     1       0.901  10.463  18.570  0.00  0.00    +0.000 A 
ATOM     28  C   UNL     1       0.396  10.299  19.859  0.00  0.00    +0.000 A 
ATOM     29  C   UNL     1       0.700   9.145  20.574  0.00  0.00    +0.000 A 
ATOM     30  F   UNL     1       0.202   9.000  21.812  0.00  0.00    +0.000 F 
ENDBRANCH  23  24
ENDBRANCH  22  23
ENDBRANCH   9  22
TORSDOF 4
ENDMDL
MODEL 2
REMARK VINA RESULT:      -7.6      0.868      1.265
REMARK  Name = 
REMARK  4 active torsions:
REMARK  status: ('A' for Active; 'I' for Inactive)
REMARK    1  A    between atoms: C_2  and  C_3
REMARK    2  A    between atoms: N_18  and  C_19
REMARK    3  A    between atoms: C_19  and  C_20
REMARK    4  A    between atoms: C_20  and  C_21
REMARK                            x       y       z     vdW  Elec       q    Type
REMARK                         _______ _______ _______ _____ _____    ______ ____
ROOT
ATOM      1  O   UNL     1       6.231   4.269  15.546  0.00  0.00    +0.000 OA
ATOM      2  C   UNL     1       5.914   4.571  16.695  0.00  0.00    +0.000 C 
ATOM      3  N   UNL     1       4.823   4.004  17.342  0.00  0.00    +0.000 N 
ATOM      4  C   UNL     1       4.119   2.878  16.774  0.00  0.00    +0.000 C 
ATOM      5  C   UNL     1       2.712   2.967  17.343  0.00  0.00    +0.000 C 
ATOM      6  C   UNL     1       2.839   3.743  18.666  0.00  0.00    +0.000 C 
ATOM      7  C   UNL     1       2.678   2.857  19.912  0.00  0.00    +0.000 C 
ATOM      8  C   UNL     1       2.072   3.794  20.944  0.00  0.00    +0.000 C 
ATOM      9  N   UNL     1       1.132   4.584  20.149  0.00  0.00    +0.000 NA
ATOM     10  C   UNL     1       1.753   4.815  18.838  0.00  0.00    +0.000 C 
ATOM     11  C   UNL     1       4.233   4.393  18.613  0.00  0.00    +0.000 C 
ENDROOT
BRANCH   2  12
ATOM     12  C   UNL     1       6.731   5.598  17.402  0.00  0.00    +0.000 A 
ATOM     13  C   UNL     1       7.531   5.212  18.486  0.00  0.00    +0.000 A 
ATOM     14  C   UNL     1       8.324   6.145  19.172  0.00  0.00    +0.000 A 
ATOM     15  C   UNL     1       8.312   7.469  18.712  0.00  0.00    +0.000 A 
ATOM     16  N   UNL     1       8.997   8.581  19.150  0.00  0.00    +0.000 N 
ATOM     17  C   UNL     1       8.686   9.666  18.370  0.00  0.00    +0.000 A 
ATOM     18  C   UNL     1       7.768   9.261  17.431  0.00  0.00    +0.000 A 
ATOM     19  C   UNL     1       7.513   7.882  17.651  0.00  0.00    +0.000 A 
ATOM     20  C   UNL     1       6.667   6.947  17.035  0.00  0.00    +0.000 A 
ATOM     21  H   UNL     1       9.636   8.592  19.931  0.00  0.00    +0.000 HD
ENDBRANCH   2  12
BRANCH   9  22
ATOM     22  C   UNL     1       0.748   5.833  20.824  0.00  0.00    +0.000 C 
BRANCH  22  23
ATOM     23  C   UNL     1       1.858   6.896  20.778  0.00  0.00    +0.000 C 
BRANCH  23  24
ATOM     24  C   UNL     1       1.314   8.249  20.388  0.00  0.00    +0.000 A 
ATOM     25  C   UNL     1       0.541   8.992  21.293  0.00  0.00    +0.000 A 
ATOM     26  C   UNL     1       0.040  10.241  20.920  0.00  0.00    +0.000 A 
ATOM     27  C   UNL     1       0.302  10.756  19.649  0.00  0.00    +0.000 A 
ATOM     28  C   UNL     1       1.076  10.025  18.749  0.00  0.00    +0.000 A 
ATOM     29  C   UNL     1       1.578   8.783  19.126  0.00  0.00    +0.000 A 
ATOM     30  F   UNL     1       2.325   8.093  18.250  0.00  0.00    +0.000 F 
ENDBRANCH  23  24
ENDBRANCH  22  23
ENDBRANCH   9  22
TORSDOF 4
ENDMDL
MODEL 3
REMARK VINA RESULT:      -7.5      2.942      7.186
REMARK  Name = 
REMARK  4 active torsions:
REMARK  status: ('A' for Active; 'I' for Inactive)
REMARK    1  A    between atoms: C_2  and  C_3
REMARK    2  A    between atoms: N_18  and  C_19
REMARK    3  A    between atoms: C_19  and  C_20
REMARK    4  A    between atoms: C_20  and  C_21
REMARK                            x       y       z     vdW  Elec       q    Type
REMARK                         _______ _______ _______ _____ _____    ______ ____
ROOT
ATOM      1  O   UNL     1       1.681   4.727  20.006  0.00  0.00    +0.000 OA
ATOM      2  C   UNL     1       2.343   5.655  19.545  0.00  0.00    +0.000 C 
ATOM      3  N   UNL     1       3.531   5.452  18.853  0.00  0.00    +0.000 N 
ATOM      4  C   UNL     1       3.953   4.127  18.464  0.00  0.00    +0.000 C 
ATOM      5  C   UNL     1       5.467   4.210  18.363  0.00  0.00    +0.000 C 
ATOM      6  C   UNL     1       5.792   5.689  18.086  0.00  0.00    +0.000 C 
ATOM      7  C   UNL     1       6.247   5.956  16.642  0.00  0.00    +0.000 C 
ATOM      8  C   UNL     1       7.197   7.135  16.776  0.00  0.00    +0.000 C 
ATOM      9  N   UNL     1       7.917   6.831  18.013  0.00  0.00    +0.000 NA
ATOM     10  C   UNL     1       6.956   6.217  18.939  0.00  0.00    +0.000 C 
ATOM     11  C   UNL     1       4.496   6.449  18.418  0.00  0.00    +0.000 C 
ENDROOT
BRANCH   2  12
ATOM     12  C   UNL     1       1.847   7.045  19.755  0.00  0.00    +0.000 A 
ATOM     13  C   UNL     1       1.856   7.947  18.683  0.00  0.00    +0.000 A 
ATOM     14  C   UNL     1       1.388   9.261  18.837  0.00  0.00    +0.000 A 
ATOM     15  C   UNL     1       0.879   9.627  20.091  0.00  0.00    +0.000 A 
ATOM     16  N   UNL     1       0.329  10.810  20.530  0.00  0.00    +0.000 N 
ATOM     17  C   UNL     1      -0.058  10.695  21.841  0.00  0.00    +0.000 A 
ATOM     18  C   UNL     1       0.268   9.430  22.267  0.00  0.00    +0.000 A 
ATOM     19  C   UNL     1       0.876   8.757  21.177  0.00  0.00    +0.000 A 
ATOM     20  C   UNL     1       1.426   7.475  21.019  0.00  0.00    +0.000 A 
ATOM     21  H   UNL     1       0.225  11.641  19.965  0.00  0.00    +0.000 HD
ENDBRANCH   2  12
BRANCH   9  22
ATOM     22  C   UNL     1       8.572   8.019  18.579  0.00  0.00    +0.000 C 
BRANCH  22  23
ATOM     23  C   UNL     1       8.159   9.319  17.868  0.00  0.00    +0.000 C 
BRANCH  23  24
ATOM     24  C   UNL     1       8.838  10.522  18.473  0.00  0.00    +0.000 A 
ATOM     25  C   UNL     1       9.720  10.371  19.555  0.00  0.00    +0.000 A 
ATOM     26  C   UNL     1      10.341  11.492  20.110  0.00  0.00    +0.000 A 
ATOM     27  C   UNL     1      10.088  12.766  19.596  0.00  0.00    +0.000 A 
ATOM     28  C   UNL     1       9.220  12.920  18.517  0.00  0.00    +0.000 A 
ATOM     29  C   UNL     1       8.607  11.800  17.963  0.00  0.00    +0.000 A 
ATOM     30  F   UNL     1       7.777  11.965  16.921  0.00  0.00    +0.000 F 
ENDBRANCH  23  24
ENDBRANCH  22  23
ENDBRANCH   9  22
TORSDOF 4
ENDMDL
MODEL 4
REMARK VINA RESULT:      -7.5      0.960      1.153
REMARK  Name = 
REMARK  4 active torsions:
REMARK  status: ('A' for Active; 'I' for Inactive)
REMARK    1  A    between atoms: C_2  and  C_3
REMARK    2  A    between atoms: N_18  and  C_19
REMARK    3  A    between atoms: C_19  and  C_20
REMARK    4  A    between atoms: C_20  and  C_21
REMARK                            x       y       z     vdW  Elec       q    Type
REMARK                         _______ _______ _______ _____ _____    ______ ____
ROOT
ATOM      1  O   UNL     1       7.155   5.493  15.242  0.00  0.00    +0.000 OA
ATOM      2  C   UNL     1       6.751   5.570  16.400  0.00  0.00    +0.000 C 
ATOM      3  N   UNL     1       5.729   4.765  16.889  0.00  0.00    +0.000 N 
ATOM      4  C   UNL     1       5.220   3.653  16.120  0.00  0.00    +0.000 C 
ATOM      5  C   UNL     1       3.794   3.458  16.607  0.00  0.00    +0.000 C 
ATOM      6  C   UNL     1       3.752   4.033  18.035  0.00  0.00    +0.000 C 
ATOM      7  C   UNL     1       3.671   2.955  19.126  0.00  0.00    +0.000 C 
ATOM      8  C   UNL     1       2.892   3.630  20.243  0.00  0.00    +0.000 C 
ATOM      9  N   UNL     1       1.881   4.395  19.514  0.00  0.00    +0.000 NA
ATOM     10  C   UNL     1       2.515   4.907  18.292  0.00  0.00    +0.000 C 
ATOM     11  C   UNL     1       5.037   4.871  18.163  0.00  0.00    +0.000 C 
ENDROOT
BRANCH   2  12
ATOM     12  C   UNL     1       7.380   6.580  17.298  0.00  0.00    +0.000 A 
ATOM     13  C   UNL     1       7.927   6.166  18.520  0.00  0.00    +0.000 A 
ATOM     14  C   UNL     1       8.538   7.083  19.389  0.00  0.00    +0.000 A 
ATOM     15  C   UNL     1       8.610   8.421  18.976  0.00  0.00    +0.000 A 
ATOM     16  N   UNL     1       9.168   9.523  19.584  0.00  0.00    +0.000 N 
ATOM     17  C   UNL     1       9.022  10.629  18.786  0.00  0.00    +0.000 A 
ATOM     18  C   UNL     1       8.338  10.247  17.657  0.00  0.00    +0.000 A 
ATOM     19  C   UNL     1       8.058   8.861  17.777  0.00  0.00    +0.000 A 
ATOM     20  C   UNL     1       7.381   7.939  16.964  0.00  0.00    +0.000 A 
ATOM     21  H   UNL     1       9.620   9.514  20.487  0.00  0.00    +0.000 HD
ENDBRANCH   2  12
BRANCH   9  22
ATOM     22  C   UNL     1       1.291   5.460  20.338  0.00  0.00    +0.000 C 
BRANCH  22  23
ATOM     23  C   UNL     1       2.266   6.624  20.588  0.00  0.00    +0.000 C 
BRANCH  23  24
ATOM     24  C   UNL     1       1.814   7.885  19.894  0.00  0.00    +0.000 A 
ATOM     25  C   UNL     1       2.171   8.127  18.558  0.00  0.00    +0.000 A 
ATOM     26  C   UNL     1       1.751   9.299  17.926  0.00  0.00    +0.000 A 
ATOM     27  C   UNL     1       0.977  10.235  18.616  0.00  0.00    +0.000 A 
ATOM     28  C   UNL     1       0.613   9.995  19.940  0.00  0.00    +0.000 A 
ATOM     29  C   UNL     1       1.029   8.823  20.565  0.00  0.00    +0.000 A 
ATOM     30  F   UNL     1       0.667   8.605  21.839  0.00  0.00    +0.000 F 
ENDBRANCH  23  24
ENDBRANCH  22  23
ENDBRANCH   9  22
TORSDOF 4
ENDMDL
MODEL 5
REMARK VINA RESULT:      -7.4      2.896      6.874
REMARK  Name = 
REMARK  4 active torsions:
REMARK  status: ('A' for Active; 'I' for Inactive)
REMARK    1  A    between atoms: C_2  and  C_3
REMARK    2  A    between atoms: N_18  and  C_19
REMARK    3  A    between atoms: C_19  and  C_20
REMARK    4  A    between atoms: C_20  and  C_21
REMARK                            x       y       z     vdW  Elec       q    Type
REMARK                         _______ _______ _______ _____ _____    ______ ____
ROOT
ATOM      1  O   UNL     1       1.479   4.884  20.478  0.00  0.00    +0.000 OA
ATOM      2  C   UNL     1       2.163   5.733  19.910  0.00  0.00    +0.000 C 
ATOM      3  N   UNL     1       3.304   5.411  19.186  0.00  0.00    +0.000 N 
ATOM      4  C   UNL     1       3.640   4.038  18.891  0.00  0.00    +0.000 C 
ATOM      5  C   UNL     1       5.149   4.031  18.715  0.00  0.00    +0.000 C 
ATOM      6  C   UNL     1       5.534   5.463  18.301  0.00  0.00    +0.000 C 
ATOM      7  C   UNL     1       5.930   5.586  16.821  0.00  0.00    +0.000 C 
ATOM      8  C   UNL     1       6.942   6.719  16.811  0.00  0.00    +0.000 C 
ATOM      9  N   UNL     1       7.706   6.479  18.036  0.00  0.00    +0.000 NA
ATOM     10  C   UNL     1       6.763   5.995  19.052  0.00  0.00    +0.000 C 
ATOM     11  C   UNL     1       4.295   6.316  18.625  0.00  0.00    +0.000 C 
ENDROOT
BRANCH   2  12
ATOM     12  C   UNL     1       1.747   7.160  20.025  0.00  0.00    +0.000 A 
ATOM     13  C   UNL     1       1.236   7.631  21.242  0.00  0.00    +0.000 A 
ATOM     14  C   UNL     1       0.843   8.969  21.396  0.00  0.00    +0.000 A 
ATOM     15  C   UNL     1       1.013   9.826  20.298  0.00  0.00    +0.000 A 
ATOM     16  N   UNL     1       0.757  11.171  20.158  0.00  0.00    +0.000 N 
ATOM     17  C   UNL     1       1.110  11.591  18.900  0.00  0.00    +0.000 A 
ATOM     18  C   UNL     1       1.576  10.500  18.207  0.00  0.00    +0.000 A 
ATOM     19  C   UNL     1       1.501   9.380  19.074  0.00  0.00    +0.000 A 
ATOM     20  C   UNL     1       1.808   8.019  18.922  0.00  0.00    +0.000 A 
ATOM     21  H   UNL     1       0.368  11.761  20.879  0.00  0.00    +0.000 HD
ENDBRANCH   2  12
BRANCH   9  22
ATOM     22  C   UNL     1       8.447   7.672  18.470  0.00  0.00    +0.000 C 
BRANCH  22  23
ATOM     23  C   UNL     1       7.883   8.971  17.869  0.00  0.00    +0.000 C 
BRANCH  23  24
ATOM     24  C   UNL     1       8.604  10.186  18.398  0.00  0.00    +0.000 A 
ATOM     25  C   UNL     1       9.510  10.067  19.464  0.00  0.00    +0.000 A 
ATOM     26  C   UNL     1      10.170  11.198  19.948  0.00  0.00    +0.000 A 
ATOM     27  C   UNL     1       9.933  12.451  19.378  0.00  0.00    +0.000 A 
ATOM     28  C   UNL     1       9.041  12.573  18.314  0.00  0.00    +0.000 A 
ATOM     29  C   UNL     1       8.389  11.443  17.831  0.00  0.00    +0.000 A 
ATOM     30  F   UNL     1       7.536  11.576  16.803  0.00  0.00    +0.000 F 
ENDBRANCH  23  24
ENDBRANCH  22  23
ENDBRANCH   9  22
TORSDOF 4
ENDMDL
MODEL 6
REMARK VINA RESULT:      -7.4      1.305      1.763
REMARK  Name = 
REMARK  4 active torsions:
REMARK  status: ('A' for Active; 'I' for Inactive)
REMARK    1  A    between atoms: C_2  and  C_3
REMARK    2  A    between atoms: N_18  and  C_19
REMARK    3  A    between atoms: C_19  and  C_20
REMARK    4  A    between atoms: C_20  and  C_21
REMARK                            x       y       z     vdW  Elec       q    Type
REMARK                         _______ _______ _______ _____ _____    ______ ____
ROOT
ATOM      1  O   UNL     1       7.188   5.590  15.269  0.00  0.00    +0.000 OA
ATOM      2  C   UNL     1       6.783   5.672  16.427  0.00  0.00    +0.000 C 
ATOM      3  N   UNL     1       5.754   4.875  16.915  0.00  0.00    +0.000 N 
ATOM      4  C   UNL     1       5.238   3.766  16.147  0.00  0.00    +0.000 C 
ATOM      5  C   UNL     1       3.810   3.583  16.632  0.00  0.00    +0.000 C 
ATOM      6  C   UNL     1       3.770   4.160  18.059  0.00  0.00    +0.000 C 
ATOM      7  C   UNL     1       3.680   3.083  19.152  0.00  0.00    +0.000 C 
ATOM      8  C   UNL     1       2.905   3.766  20.267  0.00  0.00    +0.000 C 
ATOM      9  N   UNL     1       1.900   4.537  19.536  0.00  0.00    +0.000 NA
ATOM     10  C   UNL     1       2.539   5.043  18.314  0.00  0.00    +0.000 C 
ATOM     11  C   UNL     1       5.061   4.987  18.188  0.00  0.00    +0.000 C 
ENDROOT
BRANCH   2  12
ATOM     12  C   UNL     1       7.419   6.677  17.324  0.00  0.00    +0.000 A 
ATOM     13  C   UNL     1       7.979   6.258  18.539  0.00  0.00    +0.000 A 
ATOM     14  C   UNL     1       8.596   7.171  19.407  0.00  0.00    +0.000 A 
ATOM     15  C   UNL     1       8.662   8.511  19.001  0.00  0.00    +0.000 A 
ATOM     16  N   UNL     1       9.223   9.610  19.610  0.00  0.00    +0.000 N 
ATOM     17  C   UNL     1       9.067  10.721  18.820  0.00  0.00    +0.000 A 
ATOM     18  C   UNL     1       8.373  10.344  17.695  0.00  0.00    +0.000 A 
ATOM     19  C   UNL     1       8.097   8.957  17.810  0.00  0.00    +0.000 A 
ATOM     20  C   UNL     1       7.414   8.038  16.999  0.00  0.00    +0.000 A 
ATOM     21  H   UNL     1       9.684   9.598  20.508  0.00  0.00    +0.000 HD
ENDBRANCH   2  12
BRANCH   9  22
ATOM     22  C   UNL     1       1.318   5.608  20.358  0.00  0.00    +0.000 C 
BRANCH  22  23
ATOM     23  C   UNL     1       2.271   6.803  20.536  0.00  0.00    +0.000 C 
BRANCH  23  24
ATOM     24  C   UNL     1       1.526   8.115  20.512  0.00  0.00    +0.000 A 
ATOM     25  C   UNL     1       0.974   8.640  21.690  0.00  0.00    +0.000 A 
ATOM     26  C   UNL     1       0.284   9.853  21.656  0.00  0.00    +0.000 A 
ATOM     27  C   UNL     1       0.138  10.549  20.454  0.00  0.00    +0.000 A 
ATOM     28  C   UNL     1       0.691  10.035  19.282  0.00  0.00    +0.000 A 
ATOM     29  C   UNL     1       1.383   8.828  19.322  0.00  0.00    +0.000 A 
ATOM     30  F   UNL     1       1.914   8.349  18.186  0.00  0.00    +0.000 F 
ENDBRANCH  23  24
ENDBRANCH  22  23
ENDBRANCH   9  22
TORSDOF 4
ENDMDL
MODEL 7
REMARK VINA RESULT:      -7.3      4.589      9.277
REMARK  Name = 
REMARK  4 active torsions:
REMARK  status: ('A' for Active; 'I' for Inactive)
REMARK    1  A    between atoms: C_2  and  C_3
REMARK    2  A    between atoms: N_18  and  C_19
REMARK    3  A    between atoms: C_19  and  C_20
REMARK    4  A    between atoms: C_20  and  C_21
REMARK                            x       y       z     vdW  Elec       q    Type
REMARK                         _______ _______ _______ _____ _____    ______ ____
ROOT
ATOM      1  O   UNL     1      -2.265  13.539  19.993  0.00  0.00    +0.000 OA
ATOM      2  C   UNL     1      -2.120  12.354  19.700  0.00  0.00    +0.000 C 
ATOM      3  N   UNL     1      -1.299  11.500  20.428  0.00  0.00    +0.000 N 
ATOM      4  C   UNL     1      -0.726  11.909  21.690  0.00  0.00    +0.000 C 
ATOM      5  C   UNL     1       0.538  11.077  21.835  0.00  0.00    +0.000 C 
ATOM      6  C   UNL     1       0.312   9.812  20.987  0.00  0.00    +0.000 C 
ATOM      7  C   UNL     1       0.063   8.550  21.827  0.00  0.00    +0.000 C 
ATOM      8  C   UNL     1       0.630   7.430  20.971  0.00  0.00    +0.000 C 
ATOM      9  N   UNL     1       1.836   8.034  20.405  0.00  0.00    +0.000 NA
ATOM     10  C   UNL     1       1.529   9.443  20.126  0.00  0.00    +0.000 C 
ATOM     11  C   UNL     1      -0.897  10.143  20.095  0.00  0.00    +0.000 C 
ENDROOT
BRANCH   2  12
ATOM     12  C   UNL     1      -2.846  11.830  18.509  0.00  0.00    +0.000 A 
ATOM     13  C   UNL     1      -4.246  11.898  18.474  0.00  0.00    +0.000 A 
ATOM     14  C   UNL     1      -4.967  11.426  17.367  0.00  0.00    +0.000 A 
ATOM     15  C   UNL     1      -4.236  10.917  16.284  0.00  0.00    +0.000 A 
ATOM     16  N   UNL     1      -4.653  10.422  15.069  0.00  0.00    +0.000 N 
ATOM     17  C   UNL     1      -3.570  10.060  14.308  0.00  0.00    +0.000 A 
ATOM     18  C   UNL     1      -2.437  10.299  15.048  0.00  0.00    +0.000 A 
ATOM     19  C   UNL     1      -2.848  10.821  16.301  0.00  0.00    +0.000 A 
ATOM     20  C   UNL     1      -2.156  11.223  17.454  0.00  0.00    +0.000 A 
ATOM     21  H   UNL     1      -5.617  10.340  14.781  0.00  0.00    +0.000 HD
ENDBRANCH   2  12
BRANCH   9  22
ATOM     22  C   UNL     1       2.314   7.310  19.219  0.00  0.00    +0.000 C 
BRANCH  22  23
ATOM     23  C   UNL     1       3.169   6.083  19.578  0.00  0.00    +0.000 C 
BRANCH  23  24
ATOM     24  C   UNL     1       2.384   4.801  19.443  0.00  0.00    +0.000 A 
ATOM     25  C   UNL     1       2.036   4.313  18.175  0.00  0.00    +0.000 A 
ATOM     26  C   UNL     1       1.306   3.128  18.061  0.00  0.00    +0.000 A 
ATOM     27  C   UNL     1       0.919   2.425  19.204  0.00  0.00    +0.000 A 
ATOM     28  C   UNL     1       1.270   2.902  20.466  0.00  0.00    +0.000 A 
ATOM     29  C   UNL     1       2.002   4.080  20.575  0.00  0.00    +0.000 A 
ATOM     30  F   UNL     1       2.336   4.524  21.796  0.00  0.00    +0.000 F 
ENDBRANCH  23  24
ENDBRANCH  22  23
ENDBRANCH   9  22
TORSDOF 4
ENDMDL
MODEL 8
REMARK VINA RESULT:      -7.3      4.977      9.135
REMARK  Name = 
REMARK  4 active torsions:
REMARK  status: ('A' for Active; 'I' for Inactive)
REMARK    1  A    between atoms: C_2  and  C_3
REMARK    2  A    between atoms: N_18  and  C_19
REMARK    3  A    between atoms: C_19  and  C_20
REMARK    4  A    between atoms: C_20  and  C_21
REMARK                            x       y       z     vdW  Elec       q    Type
REMARK                         _______ _______ _______ _____ _____    ______ ____
ROOT
ATOM      1  O   UNL     1      -1.053  10.534  17.851  0.00  0.00    +0.000 OA
ATOM      2  C   UNL     1      -0.063  10.758  18.544  0.00  0.00    +0.000 C 
ATOM      3  N   UNL     1       0.334  12.046  18.886  0.00  0.00    +0.000 N 
ATOM      4  C   UNL     1      -0.511  13.185  18.612  0.00  0.00    +0.000 C 
ATOM      5  C   UNL     1       0.444  14.362  18.492  0.00  0.00    +0.000 C 
ATOM      6  C   UNL     1       1.693  13.978  19.305  0.00  0.00    +0.000 C 
ATOM      7  C   UNL     1       1.817  14.741  20.634  0.00  0.00    +0.000 C 
ATOM      8  C   UNL     1       3.317  14.840  20.854  0.00  0.00    +0.000 C 
ATOM      9  N   UNL     1       3.825  15.089  19.505  0.00  0.00    +0.000 NA
ATOM     10  C   UNL     1       3.006  14.301  18.576  0.00  0.00    +0.000 C 
ATOM     11  C   UNL     1       1.566  12.461  19.536  0.00  0.00    +0.000 C 
ENDROOT
BRANCH   2  12
ATOM     12  C   UNL     1       0.742   9.595  19.017  0.00  0.00    +0.000 A 
ATOM     13  C   UNL     1       0.630   9.180  20.351  0.00  0.00    +0.000 A 
ATOM     14  C   UNL     1       1.362   8.084  20.834  0.00  0.00    +0.000 A 
ATOM     15  C   UNL     1       2.181   7.400  19.925  0.00  0.00    +0.000 A 
ATOM     16  N   UNL     1       2.977   6.289  20.090  0.00  0.00    +0.000 N 
ATOM     17  C   UNL     1       3.579   5.957  18.903  0.00  0.00    +0.000 A 
ATOM     18  C   UNL     1       3.190   6.879  17.961  0.00  0.00    +0.000 A 
ATOM     19  C   UNL     1       2.324   7.803  18.601  0.00  0.00    +0.000 A 
ATOM     20  C   UNL     1       1.645   8.951  18.165  0.00  0.00    +0.000 A 
ATOM     21  H   UNL     1       3.097   5.791  20.960  0.00  0.00    +0.000 HD
ENDBRANCH   2  12
BRANCH   9  22
ATOM     22  C   UNL     1       5.261  14.792  19.390  0.00  0.00    +0.000 C 
BRANCH  22  23
ATOM     23  C   UNL     1       5.777  14.915  17.945  0.00  0.00    +0.000 C 
BRANCH  23  24
ATOM     24  C   UNL     1       7.247  14.589  17.852  0.00  0.00    +0.000 A 
ATOM     25  C   UNL     1       7.671  13.266  17.658  0.00  0.00    +0.000 A 
ATOM     26  C   UNL     1       9.034  12.975  17.576  0.00  0.00    +0.000 A 
ATOM     27  C   UNL     1       9.981  13.996  17.690  0.00  0.00    +0.000 A 
ATOM     28  C   UNL     1       9.565  15.313  17.875  0.00  0.00    +0.000 A 
ATOM     29  C   UNL     1       8.205  15.599  17.950  0.00  0.00    +0.000 A 
ATOM     30  F   UNL     1       7.820  16.873  18.125  0.00  0.00    +0.000 F 
ENDBRANCH  23  24
ENDBRANCH  22  23
ENDBRANCH   9  22
TORSDOF 4
ENDMDL
MODEL 9
REMARK VINA RESULT:      -7.3      5.135      9.844
REMARK  Name = 
REMARK  4 active torsions:
REMARK  status: ('A' for Active; 'I' for Inactive)
REMARK    1  A    between atoms: C_2  and  C_3
REMARK    2  A    between atoms: N_18  and  C_19
REMARK    3  A    between atoms: C_19  and  C_20
REMARK    4  A    between atoms: C_20  and  C_21
REMARK                            x       y       z     vdW  Elec       q    Type
REMARK                         _______ _______ _______ _____ _____    ______ ____
ROOT
ATOM      1  O   UNL     1      -0.863  12.367  18.602  0.00  0.00    +0.000 OA
ATOM      2  C   UNL     1       0.315  12.255  18.936  0.00  0.00    +0.000 C 
ATOM      3  N   UNL     1       1.159  13.351  19.076  0.00  0.00    +0.000 N 
ATOM      4  C   UNL     1       0.645  14.700  19.033  0.00  0.00    +0.000 C 
ATOM      5  C   UNL     1       1.814  15.550  18.564  0.00  0.00    +0.000 C 
ATOM      6  C   UNL     1       3.085  14.776  18.956  0.00  0.00    +0.000 C 
ATOM      7  C   UNL     1       3.840  15.398  20.141  0.00  0.00    +0.000 C 
ATOM      8  C   UNL     1       5.293  15.043  19.870  0.00  0.00    +0.000 C 
ATOM      9  N   UNL     1       5.398  15.203  18.420  0.00  0.00    +0.000 NA
ATOM     10  C   UNL     1       4.134  14.739  17.835  0.00  0.00    +0.000 C 
ATOM     11  C   UNL     1       2.598  13.353  19.283  0.00  0.00    +0.000 C 
ENDROOT
BRANCH   2  12
ATOM     12  C   UNL     1       0.849  10.885  19.181  0.00  0.00    +0.000 A 
ATOM     13  C   UNL     1       0.631  10.275  20.424  0.00  0.00    +0.000 A 
ATOM     14  C   UNL     1       1.107   8.983  20.692  0.00  0.00    +0.000 A 
ATOM     15  C   UNL     1       1.778   8.311  19.660  0.00  0.00    +0.000 A 
ATOM     16  N   UNL     1       2.320   7.047  19.611  0.00  0.00    +0.000 N 
ATOM     17  C   UNL     1       2.858   6.809  18.372  0.00  0.00    +0.000 A 
ATOM     18  C   UNL     1       2.687   7.942  17.614  0.00  0.00    +0.000 A 
ATOM     19  C   UNL     1       2.024   8.901  18.424  0.00  0.00    +0.000 A 
ATOM     20  C   UNL     1       1.610  10.224  18.210  0.00  0.00    +0.000 A 
ATOM     21  H   UNL     1       2.318   6.390  20.378  0.00  0.00    +0.000 HD
ENDBRANCH   2  12
BRANCH   9  22
ATOM     22  C   UNL     1       6.570  14.506  17.869  0.00  0.00    +0.000 C 
BRANCH  22  23
ATOM     23  C   UNL     1       7.722  14.392  18.883  0.00  0.00    +0.000 C 
BRANCH  23  24
ATOM     24  C   UNL     1       9.045  14.158  18.195  0.00  0.00    +0.000 A 
ATOM     25  C   UNL     1       9.853  15.244  17.825  0.00  0.00    +0.000 A 
ATOM     26  C   UNL     1      11.074  15.017  17.186  0.00  0.00    +0.000 A 
ATOM     27  C   UNL     1      11.496  13.714  16.911  0.00  0.00    +0.000 A 
ATOM     28  C   UNL     1      10.699  12.633  17.284  0.00  0.00    +0.000 A 
ATOM     29  C   UNL     1       9.486  12.863  17.926  0.00  0.00    +0.000 A 
ATOM     30  F   UNL     1       8.733  11.811  18.283  0.00  0.00    +0.000 F 
ENDBRANCH  23  24
ENDBRANCH  22  23
ENDBRANCH   9  22
TORSDOF 4
ENDMDL
