MODEL 1
REMARK VINA RESULT:      -8.4      0.000      0.000
REMARK  Name = 
REMARK  4 active torsions:
REMARK  status: ('A' for Active; 'I' for Inactive)
REMARK    1  A    between atoms: N_3  and  C_4
REMARK    2  A    between atoms: N_13  and  C_14
REMARK    3  A    between atoms: C_14  and  C_15
REMARK    4  A    between atoms: C_14  and  C_21
REMARK                            x       y       z     vdW  Elec       q    Type
REMARK                         _______ _______ _______ _____ _____    ______ ____
ROOT
ATOM      1  O   UNL     1       8.343   7.217  18.708  0.00  0.00    +0.000 OA
ATOM      2  C   UNL     1       7.808   7.933  17.873  0.00  0.00    +0.000 C 
ATOM      3  N   UNL     1       8.041   9.277  17.667  0.00  0.00    +0.000 N 
ATOM      4  N   UNL     1       6.868   7.444  16.999  0.00  0.00    +0.000 N 
ATOM      5  H   UNL     1       7.396   9.755  17.057  0.00  0.00    +0.000 HD
ATOM      6  H   UNL     1       6.394   8.072  16.369  0.00  0.00    +0.000 HD
ENDROOT
BRANCH   3   7
ATOM      7  C   UNL     1       8.954  10.097  18.368  0.00  0.00    +0.000 A 
ATOM      8  C   UNL     1       8.958  10.220  19.761  0.00  0.00    +0.000 A 
ATOM      9  C   UNL     1       9.846  11.079  20.425  0.00  0.00    +0.000 A 
ATOM     10  C   UNL     1      10.725  11.817  19.635  0.00  0.00    +0.000 A 
ATOM     11  N   UNL     1      11.676  12.750  19.956  0.00  0.00    +0.000 N 
ATOM     12  N   UNL     1      12.333  13.251  18.895  0.00  0.00    +0.000 NA
ATOM     13  C   UNL     1      11.780  12.612  17.860  0.00  0.00    +0.000 A 
ATOM     14  C   UNL     1      10.771  11.706  18.250  0.00  0.00    +0.000 A 
ATOM     15  C   UNL     1       9.888  10.819  17.604  0.00  0.00    +0.000 A 
ATOM     16  H   UNL     1      11.919  13.092  20.879  0.00  0.00    +0.000 HD
ENDBRANCH   3   7
BRANCH   4  17
ATOM     17  C   UNL     1       6.364   6.059  17.094  0.00  0.00    +0.000 C 
BRANCH  17  18
ATOM     18  C   UNL     1       5.061   6.053  17.884  0.00  0.00    +0.000 A 
ATOM     19  C   UNL     1       4.001   6.911  17.545  0.00  0.00    +0.000 A 
ATOM     20  C   UNL     1       2.811   6.895  18.275  0.00  0.00    +0.000 A 
ATOM     21  C   UNL     1       2.664   6.020  19.349  0.00  0.00    +0.000 A 
ATOM     22  C   UNL     1       3.706   5.165  19.698  0.00  0.00    +0.000 A 
ATOM     23  C   UNL     1       4.899   5.183  18.973  0.00  0.00    +0.000 A 
ENDBRANCH  17  18
BRANCH  17  24
ATOM     24  C   UNL     1       6.250   5.349  15.716  0.00  0.00    +0.000 C 
ATOM     25  F   UNL     1       5.567   4.179  15.830  0.00  0.00    +0.000 F 
ATOM     26  F   UNL     1       5.582   6.114  14.820  0.00  0.00    +0.000 F 
ATOM     27  F   UNL     1       7.444   5.038  15.164  0.00  0.00    +0.000 F 
ENDBRANCH  17  24
ENDBRANCH   4  17
TORSDOF 4
ENDMDL
MODEL 2
REMARK VINA RESULT:      -8.1      6.007      7.830
REMARK  Name = 
REMARK  4 active torsions:
REMARK  status: ('A' for Active; 'I' for Inactive)
REMARK    1  A    between atoms: N_3  and  C_4
REMARK    2  A    between atoms: N_13  and  C_14
REMARK    3  A    between atoms: C_14  and  C_15
REMARK    4  A    between atoms: C_14  and  C_21
REMARK                            x       y       z     vdW  Elec       q    Type
REMARK                         _______ _______ _______ _____ _____    ______ ____
ROOT
ATOM      1  O   UNL     1       1.770   5.813  18.111  0.00  0.00    +0.000 OA
ATOM      2  C   UNL     1       2.519   5.804  19.078  0.00  0.00    +0.000 C 
ATOM      3  N   UNL     1       2.568   6.737  20.092  0.00  0.00    +0.000 N 
ATOM      4  N   UNL     1       3.439   4.802  19.269  0.00  0.00    +0.000 N 
ATOM      5  H   UNL     1       3.355   6.675  20.720  0.00  0.00    +0.000 HD
ATOM      6  H   UNL     1       4.089   4.859  20.037  0.00  0.00    +0.000 HD
ENDROOT
BRANCH   3   7
ATOM      7  C   UNL     1       1.755   7.885  20.229  0.00  0.00    +0.000 A 
ATOM      8  C   UNL     1       1.583   8.826  19.209  0.00  0.00    +0.000 A 
ATOM      9  C   UNL     1       0.809   9.981  19.392  0.00  0.00    +0.000 A 
ATOM     10  C   UNL     1       0.218  10.159  20.641  0.00  0.00    +0.000 A 
ATOM     11  N   UNL     1      -0.556  11.169  21.148  0.00  0.00    +0.000 N 
ATOM     12  N   UNL     1      -0.942  10.977  22.422  0.00  0.00    +0.000 NA
ATOM     13  C   UNL     1      -0.394   9.799  22.737  0.00  0.00    +0.000 A 
ATOM     14  C   UNL     1       0.342   9.236  21.673  0.00  0.00    +0.000 A 
ATOM     15  C   UNL     1       1.105   8.071  21.461  0.00  0.00    +0.000 A 
ATOM     16  H   UNL     1      -0.848  12.019  20.680  0.00  0.00    +0.000 HD
ENDBRANCH   3   7
BRANCH   4  17
ATOM     17  C   UNL     1       3.660   3.746  18.260  0.00  0.00    +0.000 C 
BRANCH  17  18
ATOM     18  C   UNL     1       4.916   4.069  17.461  0.00  0.00    +0.000 A 
ATOM     19  C   UNL     1       6.100   4.476  18.100  0.00  0.00    +0.000 A 
ATOM     20  C   UNL     1       7.245   4.767  17.358  0.00  0.00    +0.000 A 
ATOM     21  C   UNL     1       7.224   4.654  15.969  0.00  0.00    +0.000 A 
ATOM     22  C   UNL     1       6.058   4.254  15.322  0.00  0.00    +0.000 A 
ATOM     23  C   UNL     1       4.909   3.967  16.062  0.00  0.00    +0.000 A 
ENDBRANCH  17  18
BRANCH  17  24
ATOM     24  C   UNL     1       3.666   2.313  18.861  0.00  0.00    +0.000 C 
ATOM     25  F   UNL     1       3.827   1.379  17.885  0.00  0.00    +0.000 F 
ATOM     26  F   UNL     1       4.685   2.150  19.739  0.00  0.00    +0.000 F 
ATOM     27  F   UNL     1       2.524   1.989  19.510  0.00  0.00    +0.000 F 
ENDBRANCH  17  24
ENDBRANCH   4  17
TORSDOF 4
ENDMDL
MODEL 3
REMARK VINA RESULT:      -8.1      5.999      7.810
REMARK  Name = 
REMARK  4 active torsions:
REMARK  status: ('A' for Active; 'I' for Inactive)
REMARK    1  A    between atoms: N_3  and  C_4
REMARK    2  A    between atoms: N_13  and  C_14
REMARK    3  A    between atoms: C_14  and  C_15
REMARK    4  A    between atoms: C_14  and  C_21
REMARK                            x       y       z     vdW  Elec       q    Type
REMARK                         _______ _______ _______ _____ _____    ______ ____
ROOT
ATOM      1  O   UNL     1       1.725   5.792  18.227  0.00  0.00    +0.000 OA
ATOM      2  C   UNL     1       2.521   5.813  19.156  0.00  0.00    +0.000 C 
ATOM      3  N   UNL     1       2.599   6.760  20.155  0.00  0.00    +0.000 N 
ATOM      4  N   UNL     1       3.474   4.835  19.311  0.00  0.00    +0.000 N 
ATOM      5  H   UNL     1       3.417   6.725  20.743  0.00  0.00    +0.000 HD
ATOM      6  H   UNL     1       4.160   4.917  20.044  0.00  0.00    +0.000 HD
ENDROOT
BRANCH   3   7
ATOM      7  C   UNL     1       1.767   7.891  20.318  0.00  0.00    +0.000 A 
ATOM      8  C   UNL     1       1.568   8.846  19.317  0.00  0.00    +0.000 A 
ATOM      9  C   UNL     1       0.774   9.983  19.526  0.00  0.00    +0.000 A 
ATOM     10  C   UNL     1       0.192  10.128  20.783  0.00  0.00    +0.000 A 
ATOM     11  N   UNL     1      -0.596  11.115  21.316  0.00  0.00    +0.000 N 
ATOM     12  N   UNL     1      -0.967  10.893  22.589  0.00  0.00    +0.000 NA
ATOM     13  C   UNL     1      -0.394   9.721  22.878  0.00  0.00    +0.000 A 
ATOM     14  C   UNL     1       0.343   9.190  21.798  0.00  0.00    +0.000 A 
ATOM     15  C   UNL     1       1.125   8.043  21.560  0.00  0.00    +0.000 A 
ATOM     16  H   UNL     1      -0.907  11.967  20.864  0.00  0.00    +0.000 HD
ENDBRANCH   3   7
BRANCH   4  17
ATOM     17  C   UNL     1       3.669   3.772  18.305  0.00  0.00    +0.000 C 
BRANCH  17  18
ATOM     18  C   UNL     1       4.920   4.075  17.490  0.00  0.00    +0.000 A 
ATOM     19  C   UNL     1       4.933   3.920  16.094  0.00  0.00    +0.000 A 
ATOM     20  C   UNL     1       6.084   4.203  15.357  0.00  0.00    +0.000 A 
ATOM     21  C   UNL     1       7.235   4.645  16.005  0.00  0.00    +0.000 A 
ATOM     22  C   UNL     1       7.238   4.802  17.389  0.00  0.00    +0.000 A 
ATOM     23  C   UNL     1       6.090   4.515  18.129  0.00  0.00    +0.000 A 
ENDBRANCH  17  18
BRANCH  17  24
ATOM     24  C   UNL     1       3.663   2.341  18.913  0.00  0.00    +0.000 C 
ATOM     25  F   UNL     1       4.705   2.174  19.770  0.00  0.00    +0.000 F 
ATOM     26  F   UNL     1       2.528   2.108  19.616  0.00  0.00    +0.000 F 
ATOM     27  F   UNL     1       3.769   1.358  17.991  0.00  0.00    +0.000 F 
ENDBRANCH  17  24
ENDBRANCH   4  17
TORSDOF 4
ENDMDL
MODEL 4
REMARK VINA RESULT:      -8.1      4.865      7.715
REMARK  Name = 
REMARK  4 active torsions:
REMARK  status: ('A' for Active; 'I' for Inactive)
REMARK    1  A    between atoms: N_3  and  C_4
REMARK    2  A    between atoms: N_13  and  C_14
REMARK    3  A    between atoms: C_14  and  C_15
REMARK    4  A    between atoms: C_14  and  C_21
REMARK                            x       y       z     vdW  Elec       q    Type
REMARK                         _______ _______ _______ _____ _____    ______ ____
ROOT
ATOM      1  O   UNL     1       2.735   7.864  17.946  0.00  0.00    +0.000 OA
ATOM      2  C   UNL     1       2.636   7.098  18.895  0.00  0.00    +0.000 C 
ATOM      3  N   UNL     1       1.963   7.331  20.077  0.00  0.00    +0.000 N 
ATOM      4  N   UNL     1       3.215   5.853  18.882  0.00  0.00    +0.000 N 
ATOM      5  H   UNL     1       2.122   6.669  20.821  0.00  0.00    +0.000 HD
ATOM      6  H   UNL     1       3.176   5.273  19.705  0.00  0.00    +0.000 HD
ENDROOT
BRANCH   3   7
ATOM      7  C   UNL     1       1.238   8.494  20.425  0.00  0.00    +0.000 A 
ATOM      8  C   UNL     1       1.075   9.581  19.561  0.00  0.00    +0.000 A 
ATOM      9  C   UNL     1       0.392  10.741  19.953  0.00  0.00    +0.000 A 
ATOM     10  C   UNL     1      -0.116  10.771  21.250  0.00  0.00    +0.000 A 
ATOM     11  N   UNL     1      -0.790  11.742  21.943  0.00  0.00    +0.000 N 
ATOM     12  N   UNL     1      -1.118  11.390  23.199  0.00  0.00    +0.000 NA
ATOM     13  C   UNL     1      -0.635  10.150  23.309  0.00  0.00    +0.000 A 
ATOM     14  C   UNL     1       0.002   9.703  22.132  0.00  0.00    +0.000 A 
ATOM     15  C   UNL     1       0.671   8.537  21.710  0.00  0.00    +0.000 A 
ATOM     16  H   UNL     1      -1.050  12.666  21.618  0.00  0.00    +0.000 HD
ENDBRANCH   3   7
BRANCH   4  17
ATOM     17  C   UNL     1       4.088   5.413  17.774  0.00  0.00    +0.000 C 
BRANCH  17  18
ATOM     18  C   UNL     1       5.514   5.875  18.045  0.00  0.00    +0.000 A 
ATOM     19  C   UNL     1       6.261   5.343  19.110  0.00  0.00    +0.000 A 
ATOM     20  C   UNL     1       7.568   5.773  19.346  0.00  0.00    +0.000 A 
ATOM     21  C   UNL     1       8.146   6.736  18.522  0.00  0.00    +0.000 A 
ATOM     22  C   UNL     1       7.418   7.274  17.464  0.00  0.00    +0.000 A 
ATOM     23  C   UNL     1       6.108   6.850  17.228  0.00  0.00    +0.000 A 
ENDBRANCH  17  18
BRANCH  17  24
ATOM     24  C   UNL     1       3.982   3.892  17.474  0.00  0.00    +0.000 C 
ATOM     25  F   UNL     1       5.017   3.479  16.695  0.00  0.00    +0.000 F 
ATOM     26  F   UNL     1       4.024   3.159  18.613  0.00  0.00    +0.000 F 
ATOM     27  F   UNL     1       2.852   3.544  16.817  0.00  0.00    +0.000 F 
ENDBRANCH  17  24
ENDBRANCH   4  17
TORSDOF 4
ENDMDL
MODEL 5
REMARK VINA RESULT:      -8.0      5.840      7.985
REMARK  Name = 
REMARK  4 active torsions:
REMARK  status: ('A' for Active; 'I' for Inactive)
REMARK    1  A    between atoms: N_3  and  C_4
REMARK    2  A    between atoms: N_13  and  C_14
REMARK    3  A    between atoms: C_14  and  C_15
REMARK    4  A    between atoms: C_14  and  C_21
REMARK                            x       y       z     vdW  Elec       q    Type
REMARK                         _______ _______ _______ _____ _____    ______ ____
ROOT
ATOM      1  O   UNL     1       2.026   7.844  20.016  0.00  0.00    +0.000 OA
ATOM      2  C   UNL     1       2.265   7.865  18.816  0.00  0.00    +0.000 C 
ATOM      3  N   UNL     1       1.742   8.738  17.886  0.00  0.00    +0.000 N 
ATOM      4  N   UNL     1       3.132   6.970  18.238  0.00  0.00    +0.000 N 
ATOM      5  H   UNL     1       1.907   8.513  16.917  0.00  0.00    +0.000 HD
ATOM      6  H   UNL     1       3.254   6.967  17.237  0.00  0.00    +0.000 HD
ENDROOT
BRANCH   3   7
ATOM      7  C   UNL     1       0.836   9.796  18.131  0.00  0.00    +0.000 A 
ATOM      8  C   UNL     1       1.222  11.019  18.686  0.00  0.00    +0.000 A 
ATOM      9  C   UNL     1       0.292  12.032  18.962  0.00  0.00    +0.000 A 
ATOM     10  C   UNL     1      -1.043  11.766  18.665  0.00  0.00    +0.000 A 
ATOM     11  N   UNL     1      -2.181  12.509  18.837  0.00  0.00    +0.000 N 
ATOM     12  N   UNL     1      -3.304  11.897  18.420  0.00  0.00    +0.000 NA
ATOM     13  C   UNL     1      -2.864  10.720  17.966  0.00  0.00    +0.000 A 
ATOM     14  C   UNL     1      -1.466  10.573  18.089  0.00  0.00    +0.000 A 
ATOM     15  C   UNL     1      -0.512   9.578  17.798  0.00  0.00    +0.000 A 
ATOM     16  H   UNL     1      -2.259  13.436  19.239  0.00  0.00    +0.000 HD
ENDBRANCH   3   7
BRANCH   4  17
ATOM     17  C   UNL     1       3.733   5.861  19.006  0.00  0.00    +0.000 C 
BRANCH  17  18
ATOM     18  C   UNL     1       2.681   4.784  19.237  0.00  0.00    +0.000 A 
ATOM     19  C   UNL     1       2.064   4.126  18.160  0.00  0.00    +0.000 A 
ATOM     20  C   UNL     1       1.103   3.139  18.385  0.00  0.00    +0.000 A 
ATOM     21  C   UNL     1       0.749   2.794  19.687  0.00  0.00    +0.000 A 
ATOM     22  C   UNL     1       1.351   3.438  20.766  0.00  0.00    +0.000 A 
ATOM     23  C   UNL     1       2.308   4.429  20.543  0.00  0.00    +0.000 A 
ENDBRANCH  17  18
BRANCH  17  24
ATOM     24  C   UNL     1       5.044   5.314  18.375  0.00  0.00    +0.000 C 
ATOM     25  F   UNL     1       5.298   4.050  18.805  0.00  0.00    +0.000 F 
ATOM     26  F   UNL     1       4.958   5.264  17.023  0.00  0.00    +0.000 F 
ATOM     27  F   UNL     1       6.140   6.045  18.678  0.00  0.00    +0.000 F 
ENDBRANCH  17  24
ENDBRANCH   4  17
TORSDOF 4
ENDMDL
MODEL 6
REMARK VINA RESULT:      -8.0      5.834      8.049
REMARK  Name = 
REMARK  4 active torsions:
REMARK  status: ('A' for Active; 'I' for Inactive)
REMARK    1  A    between atoms: N_3  and  C_4
REMARK    2  A    between atoms: N_13  and  C_14
REMARK    3  A    between atoms: C_14  and  C_15
REMARK    4  A    between atoms: C_14  and  C_21
REMARK                            x       y       z     vdW  Elec       q    Type
REMARK                         _______ _______ _______ _____ _____    ______ ____
ROOT
ATOM      1  O   UNL     1       2.044   7.859  19.988  0.00  0.00    +0.000 OA
ATOM      2  C   UNL     1       2.262   7.882  18.785  0.00  0.00    +0.000 C 
ATOM      3  N   UNL     1       1.720   8.755  17.865  0.00  0.00    +0.000 N 
ATOM      4  N   UNL     1       3.123   6.992  18.190  0.00  0.00    +0.000 N 
ATOM      5  H   UNL     1       1.869   8.531  16.893  0.00  0.00    +0.000 HD
ATOM      6  H   UNL     1       3.227   6.990  17.188  0.00  0.00    +0.000 HD
ENDROOT
BRANCH   3   7
ATOM      7  C   UNL     1       0.815   9.809  18.127  0.00  0.00    +0.000 A 
ATOM      8  C   UNL     1       1.201  11.024  18.699  0.00  0.00    +0.000 A 
ATOM      9  C   UNL     1       0.272  12.033  18.992  0.00  0.00    +0.000 A 
ATOM     10  C   UNL     1      -1.063  11.771  18.693  0.00  0.00    +0.000 A 
ATOM     11  N   UNL     1      -2.201  12.512  18.878  0.00  0.00    +0.000 N 
ATOM     12  N   UNL     1      -3.325  11.906  18.455  0.00  0.00    +0.000 NA
ATOM     13  C   UNL     1      -2.885  10.736  17.982  0.00  0.00    +0.000 A 
ATOM     14  C   UNL     1      -1.487  10.587  18.101  0.00  0.00    +0.000 A 
ATOM     15  C   UNL     1      -0.534   9.596  17.793  0.00  0.00    +0.000 A 
ATOM     16  H   UNL     1      -2.278  13.433  19.294  0.00  0.00    +0.000 HD
ENDBRANCH   3   7
BRANCH   4  17
ATOM     17  C   UNL     1       3.741   5.884  18.946  0.00  0.00    +0.000 C 
BRANCH  17  18
ATOM     18  C   UNL     1       2.692   4.812  19.213  0.00  0.00    +0.000 A 
ATOM     19  C   UNL     1       2.324   4.466  20.524  0.00  0.00    +0.000 A 
ATOM     20  C   UNL     1       1.359   3.484  20.757  0.00  0.00    +0.000 A 
ATOM     21  C   UNL     1       0.750   2.837  19.684  0.00  0.00    +0.000 A 
ATOM     22  C   UNL     1       1.105   3.168  18.379  0.00  0.00    +0.000 A 
ATOM     23  C   UNL     1       2.073   4.146  18.144  0.00  0.00    +0.000 A 
ENDBRANCH  17  18
BRANCH  17  24
ATOM     24  C   UNL     1       5.031   5.329  18.280  0.00  0.00    +0.000 C 
ATOM     25  F   UNL     1       6.097   6.129  18.548  0.00  0.00    +0.000 F 
ATOM     26  F   UNL     1       5.334   4.093  18.746  0.00  0.00    +0.000 F 
ATOM     27  F   UNL     1       4.953   5.239  16.933  0.00  0.00    +0.000 F 
ENDBRANCH  17  24
ENDBRANCH   4  17
TORSDOF 4
ENDMDL
MODEL 7
REMARK VINA RESULT:      -8.0      5.886      7.434
REMARK  Name = 
REMARK  4 active torsions:
REMARK  status: ('A' for Active; 'I' for Inactive)
REMARK    1  A    between atoms: N_3  and  C_4
REMARK    2  A    between atoms: N_13  and  C_14
REMARK    3  A    between atoms: C_14  and  C_15
REMARK    4  A    between atoms: C_14  and  C_21
REMARK                            x       y       z     vdW  Elec       q    Type
REMARK                         _______ _______ _______ _____ _____    ______ ____
ROOT
ATOM      1  O   UNL     1       1.991   7.852  20.147  0.00  0.00    +0.000 OA
ATOM      2  C   UNL     1       2.267   7.836  18.955  0.00  0.00    +0.000 C 
ATOM      3  N   UNL     1       1.794   8.698  17.988  0.00  0.00    +0.000 N 
ATOM      4  N   UNL     1       3.129   6.907  18.425  0.00  0.00    +0.000 N 
ATOM      5  H   UNL     1       1.983   8.444  17.030  0.00  0.00    +0.000 HD
ATOM      6  H   UNL     1       3.281   6.875  17.430  0.00  0.00    +0.000 HD
ENDROOT
BRANCH   3   7
ATOM      7  C   UNL     1       0.909   9.783  18.178  0.00  0.00    +0.000 A 
ATOM      8  C   UNL     1      -0.468   9.697  17.949  0.00  0.00    +0.000 A 
ATOM      9  C   UNL     1      -1.314  10.805  18.100  0.00  0.00    +0.000 A 
ATOM     10  C   UNL     1      -0.723  12.007  18.483  0.00  0.00    +0.000 A 
ATOM     11  N   UNL     1      -1.247  13.257  18.684  0.00  0.00    +0.000 N 
ATOM     12  N   UNL     1      -0.340  14.179  19.053  0.00  0.00    +0.000 NA
ATOM     13  C   UNL     1       0.804  13.489  19.090  0.00  0.00    +0.000 A 
ATOM     14  C   UNL     1       0.636  12.131  18.745  0.00  0.00    +0.000 A 
ATOM     15  C   UNL     1       1.465  11.000  18.611  0.00  0.00    +0.000 A 
ATOM     16  H   UNL     1      -2.212  13.547  18.577  0.00  0.00    +0.000 HD
ENDBRANCH   3   7
BRANCH   4  17
ATOM     17  C   UNL     1       3.678   5.803  19.239  0.00  0.00    +0.000 C 
BRANCH  17  18
ATOM     18  C   UNL     1       2.621   4.716  19.389  0.00  0.00    +0.000 A 
ATOM     19  C   UNL     1       2.173   4.309  20.657  0.00  0.00    +0.000 A 
ATOM     20  C   UNL     1       1.202   3.314  20.783  0.00  0.00    +0.000 A 
ATOM     21  C   UNL     1       0.666   2.715  19.645  0.00  0.00    +0.000 A 
ATOM     22  C   UNL     1       1.101   3.107  18.381  0.00  0.00    +0.000 A 
ATOM     23  C   UNL     1       2.075   4.099  18.253  0.00  0.00    +0.000 A 
ENDBRANCH  17  18
BRANCH  17  24
ATOM     24  C   UNL     1       5.038   5.268  18.712  0.00  0.00    +0.000 C 
ATOM     25  F   UNL     1       5.204   3.959  19.040  0.00  0.00    +0.000 F 
ATOM     26  F   UNL     1       5.112   5.352  17.361  0.00  0.00    +0.000 F 
ATOM     27  F   UNL     1       6.112   5.922  19.211  0.00  0.00    +0.000 F 
ENDBRANCH  17  24
ENDBRANCH   4  17
TORSDOF 4
ENDMDL
MODEL 8
REMARK VINA RESULT:      -8.0      6.001      7.630
REMARK  Name = 
REMARK  4 active torsions:
REMARK  status: ('A' for Active; 'I' for Inactive)
REMARK    1  A    between atoms: N_3  and  C_4
REMARK    2  A    between atoms: N_13  and  C_14
REMARK    3  A    between atoms: C_14  and  C_15
REMARK    4  A    between atoms: C_14  and  C_21
REMARK                            x       y       z     vdW  Elec       q    Type
REMARK                         _______ _______ _______ _____ _____    ______ ____
ROOT
ATOM      1  O   UNL     1       1.729   5.675  18.284  0.00  0.00    +0.000 OA
ATOM      2  C   UNL     1       2.519   5.737  19.216  0.00  0.00    +0.000 C 
ATOM      3  N   UNL     1       2.560   6.701  20.201  0.00  0.00    +0.000 N 
ATOM      4  N   UNL     1       3.503   4.795  19.391  0.00  0.00    +0.000 N 
ATOM      5  H   UNL     1       3.375   6.702  20.794  0.00  0.00    +0.000 HD
ATOM      6  H   UNL     1       4.182   4.910  20.126  0.00  0.00    +0.000 HD
ENDROOT
BRANCH   3   7
ATOM      7  C   UNL     1       1.689   7.805  20.343  0.00  0.00    +0.000 A 
ATOM      8  C   UNL     1       0.852   7.982  21.449  0.00  0.00    +0.000 A 
ATOM      9  C   UNL     1      -0.037   9.062  21.540  0.00  0.00    +0.000 A 
ATOM     10  C   UNL     1      -0.059   9.957  20.472  0.00  0.00    +0.000 A 
ATOM     11  N   UNL     1      -0.816  11.074  20.234  0.00  0.00    +0.000 N 
ATOM     12  N   UNL     1      -0.541  11.683  19.066  0.00  0.00    +0.000 NA
ATOM     13  C   UNL     1       0.426  10.925  18.542  0.00  0.00    +0.000 A 
ATOM     14  C   UNL     1       0.773   9.833  19.365  0.00  0.00    +0.000 A 
ATOM     15  C   UNL     1       1.676   8.753  19.305  0.00  0.00    +0.000 A 
ATOM     16  H   UNL     1      -1.539  11.468  20.824  0.00  0.00    +0.000 HD
ENDBRANCH   3   7
BRANCH   4  17
ATOM     17  C   UNL     1       3.739   3.724  18.402  0.00  0.00    +0.000 C 
BRANCH  17  18
ATOM     18  C   UNL     1       4.994   4.047  17.601  0.00  0.00    +0.000 A 
ATOM     19  C   UNL     1       6.155   4.528  18.230  0.00  0.00    +0.000 A 
ATOM     20  C   UNL     1       7.299   4.818  17.486  0.00  0.00    +0.000 A 
ATOM     21  C   UNL     1       7.300   4.632  16.106  0.00  0.00    +0.000 A 
ATOM     22  C   UNL     1       6.157   4.157  15.467  0.00  0.00    +0.000 A 
ATOM     23  C   UNL     1       5.009   3.871  16.209  0.00  0.00    +0.000 A 
ENDBRANCH  17  18
BRANCH  17  24
ATOM     24  C   UNL     1       3.760   2.301  19.028  0.00  0.00    +0.000 C 
ATOM     25  F   UNL     1       2.633   2.074  19.753  0.00  0.00    +0.000 F 
ATOM     26  F   UNL     1       3.818   1.342  18.072  0.00  0.00    +0.000 F 
ATOM     27  F   UNL     1       4.799   2.091  19.867  0.00  0.00    +0.000 F 
ENDBRANCH  17  24
ENDBRANCH   4  17
TORSDOF 4
ENDMDL
MODEL 9
REMARK VINA RESULT:      -7.9      5.995      7.627
REMARK  Name = 
REMARK  4 active torsions:
REMARK  status: ('A' for Active; 'I' for Inactive)
REMARK    1  A    between atoms: N_3  and  C_4
REMARK    2  A    between atoms: N_13  and  C_14
REMARK    3  A    between atoms: C_14  and  C_15
REMARK    4  A    between atoms: C_14  and  C_21
REMARK                            x       y       z     vdW  Elec       q    Type
REMARK                         _______ _______ _______ _____ _____    ______ ____
ROOT
ATOM      1  O   UNL     1       1.683   5.659  18.328  0.00  0.00    +0.000 OA
ATOM      2  C   UNL     1       2.501   5.751  19.232  0.00  0.00    +0.000 C 
ATOM      3  N   UNL     1       2.557   6.734  20.198  0.00  0.00    +0.000 N 
ATOM      4  N   UNL     1       3.507   4.829  19.392  0.00  0.00    +0.000 N 
ATOM      5  H   UNL     1       3.392   6.759  20.764  0.00  0.00    +0.000 HD
ATOM      6  H   UNL     1       4.208   4.970  20.102  0.00  0.00    +0.000 HD
ENDROOT
BRANCH   3   7
ATOM      7  C   UNL     1       1.672   7.826  20.349  0.00  0.00    +0.000 A 
ATOM      8  C   UNL     1       0.816   7.970  21.445  0.00  0.00    +0.000 A 
ATOM      9  C   UNL     1      -0.086   9.039  21.543  0.00  0.00    +0.000 A 
ATOM     10  C   UNL     1      -0.101   9.956  20.494  0.00  0.00    +0.000 A 
ATOM     11  N   UNL     1      -0.865  11.070  20.267  0.00  0.00    +0.000 N 
ATOM     12  N   UNL     1      -0.580  11.706  19.116  0.00  0.00    +0.000 NA
ATOM     13  C   UNL     1       0.404  10.968  18.592  0.00  0.00    +0.000 A 
ATOM     14  C   UNL     1       0.750   9.863  19.399  0.00  0.00    +0.000 A 
ATOM     15  C   UNL     1       1.666   8.795  19.331  0.00  0.00    +0.000 A 
ATOM     16  H   UNL     1      -1.602  11.443  20.853  0.00  0.00    +0.000 HD
ENDBRANCH   3   7
BRANCH   4  17
ATOM     17  C   UNL     1       3.730   3.744  18.415  0.00  0.00    +0.000 C 
BRANCH  17  18
ATOM     18  C   UNL     1       4.979   4.051  17.599  0.00  0.00    +0.000 A 
ATOM     19  C   UNL     1       5.014   3.831  16.212  0.00  0.00    +0.000 A 
ATOM     20  C   UNL     1       6.163   4.119  15.474  0.00  0.00    +0.000 A 
ATOM     21  C   UNL     1       7.291   4.631  16.112  0.00  0.00    +0.000 A 
ATOM     22  C   UNL     1       7.272   4.854  17.487  0.00  0.00    +0.000 A 
ATOM     23  C   UNL     1       6.125   4.562  18.227  0.00  0.00    +0.000 A 
ENDBRANCH  17  18
BRANCH  17  24
ATOM     24  C   UNL     1       3.750   2.330  19.059  0.00  0.00    +0.000 C 
ATOM     25  F   UNL     1       4.803   2.199  19.909  0.00  0.00    +0.000 F 
ATOM     26  F   UNL     1       2.626   2.100  19.782  0.00  0.00    +0.000 F 
ATOM     27  F   UNL     1       3.859   1.324  18.162  0.00  0.00    +0.000 F 
ENDBRANCH  17  24
ENDBRANCH   4  17
TORSDOF 4
ENDMDL
