MODEL 1
REMARK VINA RESULT:      -8.4      0.000      0.000
REMARK  Name = 
REMARK  7 active torsions:
REMARK  status: ('A' for Active; 'I' for Inactive)
REMARK    1  A    between atoms: C_1  and  N_2
REMARK    2  A    between atoms: C_6  and  C_7
REMARK    3  A    between atoms: C_7  and  C_8
REMARK    4  A    between atoms: C_8  and  C_9
REMARK    5  A    between atoms: C_13  and  N_14
REMARK    6  A    between atoms: C_17  and  C_18
REMARK    7  A    between atoms: N_20  and  C_21
REMARK                            x       y       z     vdW  Elec       q    Type
REMARK                         _______ _______ _______ _____ _____    ______ ____
ROOT
ATOM      1  C   UNL     1       2.658   7.202  18.545  0.00  0.00    +0.000 A 
ATOM      2  C   UNL     1       2.872   8.123  17.506  0.00  0.00    +0.000 A 
ATOM      3  C   UNL     1       2.294   9.389  17.526  0.00  0.00    +0.000 A 
ATOM      4  C   UNL     1       1.502   9.782  18.607  0.00  0.00    +0.000 A 
ATOM      5  C   UNL     1       1.297   8.943  19.705  0.00  0.00    +0.000 A 
ATOM      6  C   UNL     1       1.870   7.658  19.624  0.00  0.00    +0.000 A 
ENDROOT
BRANCH   5   7
ATOM      7  N   UNL     1       0.567   9.325  20.811  0.00  0.00    +0.000 N 
ATOM      8  C   UNL     1       0.816   8.717  22.114  0.00  0.00    +0.000 C 
ATOM      9  C   UNL     1       0.124   9.636  23.058  0.00  0.00    +0.000 C 
ATOM     10  C   UNL     1      -0.398  10.689  22.409  0.00  0.00    +0.000 C 
ATOM     11  C   UNL     1      -0.116  10.623  20.943  0.00  0.00    +0.000 C 
BRANCH  10  12
ATOM     12  C   UNL     1      -1.130  11.854  22.951  0.00  0.00    +0.000 C 
ATOM     13  O   UNL     1      -0.529  12.867  23.280  0.00  0.00    +0.000 OA
ATOM     14  N   UNL     1      -2.490  11.694  23.061  0.00  0.00    +0.000 N 
ATOM     15  H   UNL     1      -2.924  10.869  22.675  0.00  0.00    +0.000 HD
BRANCH  14  16
ATOM     16  C   UNL     1      -3.369  12.760  23.538  0.00  0.00    +0.000 C 
ATOM     17  C   UNL     1      -4.527  12.134  24.323  0.00  0.00    +0.000 C 
ATOM     18  C   UNL     1      -5.617  13.122  24.729  0.00  0.00    +0.000 C 
ATOM     19  C   UNL     1      -6.720  13.251  23.681  0.00  0.00    +0.000 C 
ATOM     20  C   UNL     1      -6.311  13.930  22.378  0.00  0.00    +0.000 C 
ATOM     21  C   UNL     1      -5.085  13.338  21.679  0.00  0.00    +0.000 C 
ATOM     22  C   UNL     1      -3.773  13.690  22.382  0.00  0.00    +0.000 C 
ENDBRANCH  14  16
ENDBRANCH  10  12
ENDBRANCH   5   7
BRANCH   1  23
ATOM     23  C   UNL     1       3.249   5.711  18.501  0.00  0.00    +0.000 C 
ATOM     24  C   UNL     1       4.180   5.326  17.314  0.00  0.00    +0.000 C 
ATOM     25  O   UNL     1       5.307   5.097  18.184  0.00  0.00    +0.000 OA
ATOM     26  C   UNL     1       4.548   5.497  19.338  0.00  0.00    +0.000 C 
BRANCH  23  27
ATOM     27  C   UNL     1       2.162   4.674  18.849  0.00  0.00    +0.000 C 
BRANCH  27  33
ATOM     28  C   UNL     1       3.753   1.894  19.237  0.00  0.00    +0.000 C 
ATOM     29  N   UNL     1       3.030   2.661  20.216  0.00  0.00    +0.000 N 
ATOM     30  C   UNL     1       2.831   2.253  21.503  0.00  0.00    +0.000 A 
ATOM     31  N   UNL     1       2.128   3.152  22.147  0.00  0.00    +0.000 NA
ATOM     32  N   UNL     1       1.853   4.167  21.266  0.00  0.00    +0.000 NA
ATOM     33  C   UNL     1       2.382   3.871  20.093  0.00  0.00    +0.000 A 
ENDBRANCH  27  33
ENDBRANCH  23  27
ENDBRANCH   1  23
TORSDOF 6
ENDMDL
MODEL 2
REMARK VINA RESULT:      -8.3      0.970      1.154
REMARK  Name = 
REMARK  7 active torsions:
REMARK  status: ('A' for Active; 'I' for Inactive)
REMARK    1  A    between atoms: C_1  and  N_2
REMARK    2  A    between atoms: C_6  and  C_7
REMARK    3  A    between atoms: C_7  and  C_8
REMARK    4  A    between atoms: C_8  and  C_9
REMARK    5  A    between atoms: C_13  and  N_14
REMARK    6  A    between atoms: C_17  and  C_18
REMARK    7  A    between atoms: N_20  and  C_21
REMARK                            x       y       z     vdW  Elec       q    Type
REMARK                         _______ _______ _______ _____ _____    ______ ____
ROOT
ATOM      1  C   UNL     1       2.591   7.310  18.918  0.00  0.00    +0.000 A 
ATOM      2  C   UNL     1       2.779   8.152  17.810  0.00  0.00    +0.000 A 
ATOM      3  C   UNL     1       2.126   9.378  17.710  0.00  0.00    +0.000 A 
ATOM      4  C   UNL     1       1.283   9.810  18.735  0.00  0.00    +0.000 A 
ATOM      5  C   UNL     1       1.098   9.054  19.896  0.00  0.00    +0.000 A 
ATOM      6  C   UNL     1       1.748   7.804  19.937  0.00  0.00    +0.000 A 
ENDROOT
BRANCH   5   7
ATOM      7  N   UNL     1       0.315   9.481  20.949  0.00  0.00    +0.000 N 
ATOM      8  C   UNL     1       0.593   9.036  22.311  0.00  0.00    +0.000 C 
ATOM      9  C   UNL     1      -0.196   9.982  23.147  0.00  0.00    +0.000 C 
ATOM     10  C   UNL     1      -0.796  10.911  22.385  0.00  0.00    +0.000 C 
ATOM     11  C   UNL     1      -0.481  10.719  20.938  0.00  0.00    +0.000 C 
BRANCH  10  12
ATOM     12  C   UNL     1      -1.638  12.055  22.796  0.00  0.00    +0.000 C 
ATOM     13  O   UNL     1      -1.221  12.877  23.600  0.00  0.00    +0.000 OA
ATOM     14  N   UNL     1      -2.888  12.100  22.226  0.00  0.00    +0.000 N 
ATOM     15  H   UNL     1      -3.121  11.444  21.496  0.00  0.00    +0.000 HD
BRANCH  14  16
ATOM     16  C   UNL     1      -3.831  13.184  22.489  0.00  0.00    +0.000 C 
ATOM     17  C   UNL     1      -4.608  12.865  23.771  0.00  0.00    +0.000 C 
ATOM     18  C   UNL     1      -5.752  13.830  24.068  0.00  0.00    +0.000 C 
ATOM     19  C   UNL     1      -7.076  13.389  23.448  0.00  0.00    +0.000 C 
ATOM     20  C   UNL     1      -7.144  13.461  21.927  0.00  0.00    +0.000 C 
ATOM     21  C   UNL     1      -6.025  12.735  21.178  0.00  0.00    +0.000 C 
ATOM     22  C   UNL     1      -4.688  13.473  21.245  0.00  0.00    +0.000 C 
ENDBRANCH  14  16
ENDBRANCH  10  12
ENDBRANCH   5   7
BRANCH   1  23
ATOM     23  C   UNL     1       3.271   5.859  19.015  0.00  0.00    +0.000 C 
ATOM     24  C   UNL     1       3.543   5.088  17.690  0.00  0.00    +0.000 C 
ATOM     25  O   UNL     1       4.971   5.102  17.898  0.00  0.00    +0.000 OA
ATOM     26  C   UNL     1       4.828   5.871  19.104  0.00  0.00    +0.000 C 
BRANCH  23  27
ATOM     27  C   UNL     1       2.635   5.023  20.145  0.00  0.00    +0.000 C 
BRANCH  27  33
ATOM     28  C   UNL     1       4.027   2.140  19.748  0.00  0.00    +0.000 C 
ATOM     29  N   UNL     1       2.654   2.512  19.538  0.00  0.00    +0.000 N 
ATOM     30  C   UNL     1       1.708   1.670  19.028  0.00  0.00    +0.000 A 
ATOM     31  N   UNL     1       0.561   2.296  18.941  0.00  0.00    +0.000 NA
ATOM     32  N   UNL     1       0.755   3.576  19.394  0.00  0.00    +0.000 NA
ATOM     33  C   UNL     1       2.021   3.720  19.743  0.00  0.00    +0.000 A 
ENDBRANCH  27  33
ENDBRANCH  23  27
ENDBRANCH   1  23
TORSDOF 6
ENDMDL
MODEL 3
REMARK VINA RESULT:      -8.3      1.907     10.645
REMARK  Name = 
REMARK  7 active torsions:
REMARK  status: ('A' for Active; 'I' for Inactive)
REMARK    1  A    between atoms: C_1  and  N_2
REMARK    2  A    between atoms: C_6  and  C_7
REMARK    3  A    between atoms: C_7  and  C_8
REMARK    4  A    between atoms: C_8  and  C_9
REMARK    5  A    between atoms: C_13  and  N_14
REMARK    6  A    between atoms: C_17  and  C_18
REMARK    7  A    between atoms: N_20  and  C_21
REMARK                            x       y       z     vdW  Elec       q    Type
REMARK                         _______ _______ _______ _____ _____    ______ ____
ROOT
ATOM      1  C   UNL     1      -1.006  11.750  22.060  0.00  0.00    +0.000 A 
ATOM      2  C   UNL     1      -1.030  10.940  23.207  0.00  0.00    +0.000 A 
ATOM      3  C   UNL     1      -0.532   9.640  23.189  0.00  0.00    +0.000 A 
ATOM      4  C   UNL     1       0.033   9.121  22.022  0.00  0.00    +0.000 A 
ATOM      5  C   UNL     1       0.148   9.891  20.862  0.00  0.00    +0.000 A 
ATOM      6  C   UNL     1      -0.403  11.186  20.914  0.00  0.00    +0.000 A 
ENDROOT
BRANCH   5   7
ATOM      7  N   UNL     1       0.752   9.424  19.712  0.00  0.00    +0.000 N 
ATOM      8  C   UNL     1       1.116  10.341  18.637  0.00  0.00    +0.000 C 
ATOM      9  C   UNL     1       2.043   9.533  17.798  0.00  0.00    +0.000 C 
ATOM     10  C   UNL     1       2.259   8.327  18.346  0.00  0.00    +0.000 C 
ATOM     11  C   UNL     1       1.516   8.168  19.632  0.00  0.00    +0.000 C 
BRANCH  10  12
ATOM     12  C   UNL     1       3.131   7.228  17.875  0.00  0.00    +0.000 C 
ATOM     13  O   UNL     1       4.173   7.473  17.283  0.00  0.00    +0.000 OA
ATOM     14  N   UNL     1       2.674   5.960  18.140  0.00  0.00    +0.000 N 
ATOM     15  H   UNL     1       1.858   5.840  18.722  0.00  0.00    +0.000 HD
BRANCH  14  16
ATOM     16  C   UNL     1       3.432   4.763  17.782  0.00  0.00    +0.000 C 
ATOM     17  C   UNL     1       2.450   3.620  17.503  0.00  0.00    +0.000 C 
ATOM     18  C   UNL     1       3.112   2.262  17.289  0.00  0.00    +0.000 C 
ATOM     19  C   UNL     1       3.280   1.473  18.585  0.00  0.00    +0.000 C 
ATOM     20  C   UNL     1       4.298   2.038  19.570  0.00  0.00    +0.000 C 
ATOM     21  C   UNL     1       4.107   3.507  19.951  0.00  0.00    +0.000 C 
ATOM     22  C   UNL     1       4.515   4.470  18.835  0.00  0.00    +0.000 C 
ENDBRANCH  14  16
ENDBRANCH  10  12
ENDBRANCH   5   7
BRANCH   1  23
ATOM     23  C   UNL     1      -1.647  13.221  22.039  0.00  0.00    +0.000 C 
ATOM     24  C   UNL     1      -0.835  14.366  21.365  0.00  0.00    +0.000 C 
ATOM     25  O   UNL     1      -1.839  14.572  20.351  0.00  0.00    +0.000 OA
ATOM     26  C   UNL     1      -2.634  13.488  20.860  0.00  0.00    +0.000 C 
BRANCH  23  27
ATOM     27  C   UNL     1      -2.272  13.573  23.404  0.00  0.00    +0.000 C 
BRANCH  27  33
ATOM     28  C   UNL     1      -4.729  15.644  23.121  0.00  0.00    +0.000 C 
ATOM     29  N   UNL     1      -4.765  14.247  23.464  0.00  0.00    +0.000 N 
ATOM     30  C   UNL     1      -5.902  13.583  23.823  0.00  0.00    +0.000 A 
ATOM     31  N   UNL     1      -5.616  12.333  24.090  0.00  0.00    +0.000 NA
ATOM     32  N   UNL     1      -4.265  12.172  23.911  0.00  0.00    +0.000 NA
ATOM     33  C   UNL     1      -3.741  13.328  23.547  0.00  0.00    +0.000 A 
ENDBRANCH  27  33
ENDBRANCH  23  27
ENDBRANCH   1  23
TORSDOF 6
ENDMDL
MODEL 4
REMARK VINA RESULT:      -8.2      1.826      2.446
REMARK  Name = 
REMARK  7 active torsions:
REMARK  status: ('A' for Active; 'I' for Inactive)
REMARK    1  A    between atoms: C_1  and  N_2
REMARK    2  A    between atoms: C_6  and  C_7
REMARK    3  A    between atoms: C_7  and  C_8
REMARK    4  A    between atoms: C_8  and  C_9
REMARK    5  A    between atoms: C_13  and  N_14
REMARK    6  A    between atoms: C_17  and  C_18
REMARK    7  A    between atoms: N_20  and  C_21
REMARK                            x       y       z     vdW  Elec       q    Type
REMARK                         _______ _______ _______ _____ _____    ______ ____
ROOT
ATOM      1  C   UNL     1       2.445   7.566  18.586  0.00  0.00    +0.000 A 
ATOM      2  C   UNL     1       2.672   8.568  17.628  0.00  0.00    +0.000 A 
ATOM      3  C   UNL     1       2.082   9.824  17.737  0.00  0.00    +0.000 A 
ATOM      4  C   UNL     1       1.264  10.124  18.827  0.00  0.00    +0.000 A 
ATOM      5  C   UNL     1       1.044   9.198  19.851  0.00  0.00    +0.000 A 
ATOM      6  C   UNL     1       1.630   7.928  19.681  0.00  0.00    +0.000 A 
ENDROOT
BRANCH   5   7
ATOM      7  N   UNL     1       0.287   9.485  20.968  0.00  0.00    +0.000 N 
ATOM      8  C   UNL     1       0.669   8.970  22.279  0.00  0.00    +0.000 C 
ATOM      9  C   UNL     1      -0.146   9.788  23.218  0.00  0.00    +0.000 C 
ATOM     10  C   UNL     1      -0.855  10.716  22.556  0.00  0.00    +0.000 C 
ATOM     11  C   UNL     1      -0.603  10.652  21.085  0.00  0.00    +0.000 C 
BRANCH  10  12
ATOM     12  C   UNL     1      -1.762  11.757  23.089  0.00  0.00    +0.000 C 
ATOM     13  O   UNL     1      -2.814  11.446  23.628  0.00  0.00    +0.000 OA
ATOM     14  N   UNL     1      -1.337  13.052  22.916  0.00  0.00    +0.000 N 
ATOM     15  H   UNL     1      -0.411  13.223  22.553  0.00  0.00    +0.000 HD
BRANCH  14  16
ATOM     16  C   UNL     1      -2.090  14.198  23.419  0.00  0.00    +0.000 C 
ATOM     17  C   UNL     1      -2.522  15.067  22.232  0.00  0.00    +0.000 C 
ATOM     18  C   UNL     1      -3.167  16.392  22.626  0.00  0.00    +0.000 C 
ATOM     19  C   UNL     1      -2.153  17.525  22.771  0.00  0.00    +0.000 C 
ATOM     20  C   UNL     1      -1.201  17.406  23.956  0.00  0.00    +0.000 C 
ATOM     21  C   UNL     1      -0.430  16.088  24.057  0.00  0.00    +0.000 C 
ATOM     22  C   UNL     1      -1.304  14.923  24.524  0.00  0.00    +0.000 C 
ENDBRANCH  14  16
ENDBRANCH  10  12
ENDBRANCH   5   7
BRANCH   1  23
ATOM     23  C   UNL     1       3.051   6.087  18.437  0.00  0.00    +0.000 C 
ATOM     24  C   UNL     1       4.253   5.881  17.469  0.00  0.00    +0.000 C 
ATOM     25  O   UNL     1       5.131   5.478  18.540  0.00  0.00    +0.000 OA
ATOM     26  C   UNL     1       4.103   5.699  19.520  0.00  0.00    +0.000 C 
BRANCH  23  27
ATOM     27  C   UNL     1       1.927   5.037  18.323  0.00  0.00    +0.000 C 
BRANCH  27  33
ATOM     28  C   UNL     1       3.168   2.068  18.554  0.00  0.00    +0.000 C 
ATOM     29  N   UNL     1       2.330   2.767  19.491  0.00  0.00    +0.000 N 
ATOM     30  C   UNL     1       1.841   2.210  20.636  0.00  0.00    +0.000 A 
ATOM     31  N   UNL     1       1.101   3.084  21.272  0.00  0.00    +0.000 NA
ATOM     32  N   UNL     1       1.095   4.237  20.528  0.00  0.00    +0.000 NA
ATOM     33  C   UNL     1       1.823   4.049  19.442  0.00  0.00    +0.000 A 
ENDBRANCH  27  33
ENDBRANCH  23  27
ENDBRANCH   1  23
TORSDOF 6
ENDMDL
MODEL 5
REMARK VINA RESULT:      -8.2      1.974      2.736
REMARK  Name = 
REMARK  7 active torsions:
REMARK  status: ('A' for Active; 'I' for Inactive)
REMARK    1  A    between atoms: C_1  and  N_2
REMARK    2  A    between atoms: C_6  and  C_7
REMARK    3  A    between atoms: C_7  and  C_8
REMARK    4  A    between atoms: C_8  and  C_9
REMARK    5  A    between atoms: C_13  and  N_14
REMARK    6  A    between atoms: C_17  and  C_18
REMARK    7  A    between atoms: N_20  and  C_21
REMARK                            x       y       z     vdW  Elec       q    Type
REMARK                         _______ _______ _______ _____ _____    ______ ____
ROOT
ATOM      1  C   UNL     1       2.390   7.690  18.619  0.00  0.00    +0.000 A 
ATOM      2  C   UNL     1       2.592   8.698  17.663  0.00  0.00    +0.000 A 
ATOM      3  C   UNL     1       1.980   9.943  17.778  0.00  0.00    +0.000 A 
ATOM      4  C   UNL     1       1.165  10.226  18.875  0.00  0.00    +0.000 A 
ATOM      5  C   UNL     1       0.968   9.294  19.898  0.00  0.00    +0.000 A 
ATOM      6  C   UNL     1       1.576   8.035  19.721  0.00  0.00    +0.000 A 
ENDROOT
BRANCH   5   7
ATOM      7  N   UNL     1       0.214   9.564  21.021  0.00  0.00    +0.000 N 
ATOM      8  C   UNL     1       0.592   9.021  22.321  0.00  0.00    +0.000 C 
ATOM      9  C   UNL     1      -0.216   9.826  23.277  0.00  0.00    +0.000 C 
ATOM     10  C   UNL     1      -0.918  10.772  22.634  0.00  0.00    +0.000 C 
ATOM     11  C   UNL     1      -0.667  10.736  21.162  0.00  0.00    +0.000 C 
BRANCH  10  12
ATOM     12  C   UNL     1      -1.817  11.809  23.188  0.00  0.00    +0.000 C 
ATOM     13  O   UNL     1      -2.938  11.516  23.576  0.00  0.00    +0.000 OA
ATOM     14  N   UNL     1      -1.301  13.083  23.210  0.00  0.00    +0.000 N 
ATOM     15  H   UNL     1      -0.333  13.228  22.967  0.00  0.00    +0.000 HD
BRANCH  14  16
ATOM     16  C   UNL     1      -2.038  14.217  23.763  0.00  0.00    +0.000 C 
ATOM     17  C   UNL     1      -2.808  14.907  22.631  0.00  0.00    +0.000 C 
ATOM     18  C   UNL     1      -3.482  16.214  23.036  0.00  0.00    +0.000 C 
ATOM     19  C   UNL     1      -2.582  17.432  22.835  0.00  0.00    +0.000 C 
ATOM     20  C   UNL     1      -1.385  17.525  23.775  0.00  0.00    +0.000 C 
ATOM     21  C   UNL     1      -0.480  16.292  23.821  0.00  0.00    +0.000 C 
ATOM     22  C   UNL     1      -1.105  15.123  24.584  0.00  0.00    +0.000 C 
ENDBRANCH  14  16
ENDBRANCH  10  12
ENDBRANCH   5   7
BRANCH   1  23
ATOM     23  C   UNL     1       3.021   6.223  18.463  0.00  0.00    +0.000 C 
ATOM     24  C   UNL     1       4.461   6.103  17.884  0.00  0.00    +0.000 C 
ATOM     25  O   UNL     1       4.976   5.533  19.105  0.00  0.00    +0.000 OA
ATOM     26  C   UNL     1       3.698   5.661  19.751  0.00  0.00    +0.000 C 
BRANCH  23  27
ATOM     27  C   UNL     1       1.991   5.236  17.875  0.00  0.00    +0.000 C 
BRANCH  27  33
ATOM     28  C   UNL     1       0.906   3.331  20.241  0.00  0.00    +0.000 C 
ATOM     29  N   UNL     1       1.805   3.006  19.166  0.00  0.00    +0.000 N 
ATOM     30  C   UNL     1       2.431   1.800  19.037  0.00  0.00    +0.000 A 
ATOM     31  N   UNL     1       3.195   1.811  17.973  0.00  0.00    +0.000 NA
ATOM     32  N   UNL     1       3.076   3.049  17.394  0.00  0.00    +0.000 NA
ATOM     33  C   UNL     1       2.250   3.782  18.117  0.00  0.00    +0.000 A 
ENDBRANCH  27  33
ENDBRANCH  23  27
ENDBRANCH   1  23
TORSDOF 6
ENDMDL
MODEL 6
REMARK VINA RESULT:      -8.1      2.929      4.525
REMARK  Name = 
REMARK  7 active torsions:
REMARK  status: ('A' for Active; 'I' for Inactive)
REMARK    1  A    between atoms: C_1  and  N_2
REMARK    2  A    between atoms: C_6  and  C_7
REMARK    3  A    between atoms: C_7  and  C_8
REMARK    4  A    between atoms: C_8  and  C_9
REMARK    5  A    between atoms: C_13  and  N_14
REMARK    6  A    between atoms: C_17  and  C_18
REMARK    7  A    between atoms: N_20  and  C_21
REMARK                            x       y       z     vdW  Elec       q    Type
REMARK                         _______ _______ _______ _____ _____    ______ ____
ROOT
ATOM      1  C   UNL     1       2.749   4.325  19.116  0.00  0.00    +0.000 A 
ATOM      2  C   UNL     1       2.192   3.945  20.348  0.00  0.00    +0.000 A 
ATOM      3  C   UNL     1       1.640   4.882  21.217  0.00  0.00    +0.000 A 
ATOM      4  C   UNL     1       1.605   6.232  20.863  0.00  0.00    +0.000 A 
ATOM      5  C   UNL     1       2.083   6.675  19.626  0.00  0.00    +0.000 A 
ATOM      6  C   UNL     1       2.667   5.698  18.795  0.00  0.00    +0.000 A 
ENDROOT
BRANCH   5   7
ATOM      7  N   UNL     1       2.010   7.993  19.226  0.00  0.00    +0.000 N 
ATOM      8  C   UNL     1       2.673   8.438  18.004  0.00  0.00    +0.000 C 
ATOM      9  C   UNL     1       2.055   9.768  17.745  0.00  0.00    +0.000 C 
ATOM     10  C   UNL     1       1.099  10.038  18.648  0.00  0.00    +0.000 C 
ATOM     11  C   UNL     1       0.940   8.921  19.627  0.00  0.00    +0.000 C 
BRANCH  10  12
ATOM     12  C   UNL     1       0.213  11.218  18.747  0.00  0.00    +0.000 C 
ATOM     13  O   UNL     1       0.682  12.335  18.907  0.00  0.00    +0.000 OA
ATOM     14  N   UNL     1      -1.133  10.951  18.661  0.00  0.00    +0.000 N 
ATOM     15  H   UNL     1      -1.437  10.018  18.427  0.00  0.00    +0.000 HD
BRANCH  14  16
ATOM     16  C   UNL     1      -2.145  12.005  18.698  0.00  0.00    +0.000 C 
ATOM     17  C   UNL     1      -2.559  12.244  20.154  0.00  0.00    +0.000 C 
ATOM     18  C   UNL     1      -3.738  13.197  20.322  0.00  0.00    +0.000 C 
ATOM     19  C   UNL     1      -5.086  12.479  20.315  0.00  0.00    +0.000 C 
ATOM     20  C   UNL     1      -5.503  11.881  18.975  0.00  0.00    +0.000 C 
ATOM     21  C   UNL     1      -4.484  10.945  18.322  0.00  0.00    +0.000 C 
ATOM     22  C   UNL     1      -3.291  11.691  17.721  0.00  0.00    +0.000 C 
ENDBRANCH  14  16
ENDBRANCH  10  12
ENDBRANCH   5   7
BRANCH   1  23
ATOM     23  C   UNL     1       3.462   3.272  18.138  0.00  0.00    +0.000 C 
ATOM     24  C   UNL     1       4.212   2.067  18.779  0.00  0.00    +0.000 C 
ATOM     25  O   UNL     1       3.322   1.106  18.175  0.00  0.00    +0.000 OA
ATOM     26  C   UNL     1       2.526   2.151  17.590  0.00  0.00    +0.000 C 
BRANCH  23  27
ATOM     27  C   UNL     1       4.222   3.993  17.006  0.00  0.00    +0.000 C 
BRANCH  27  33
ATOM     28  C   UNL     1       6.680   4.287  14.937  0.00  0.00    +0.000 C 
ATOM     29  N   UNL     1       6.693   4.402  16.371  0.00  0.00    +0.000 N 
ATOM     30  C   UNL     1       7.828   4.576  17.109  0.00  0.00    +0.000 A 
ATOM     31  N   UNL     1       7.523   4.631  18.381  0.00  0.00    +0.000 NA
ATOM     32  N   UNL     1       6.163   4.482  18.485  0.00  0.00    +0.000 NA
ATOM     33  C   UNL     1       5.656   4.328  17.276  0.00  0.00    +0.000 A 
ENDBRANCH  27  33
ENDBRANCH  23  27
ENDBRANCH   1  23
TORSDOF 6
ENDMDL
MODEL 7
REMARK VINA RESULT:      -8.1      2.086      2.858
REMARK  Name = 
REMARK  7 active torsions:
REMARK  status: ('A' for Active; 'I' for Inactive)
REMARK    1  A    between atoms: C_1  and  N_2
REMARK    2  A    between atoms: C_6  and  C_7
REMARK    3  A    between atoms: C_7  and  C_8
REMARK    4  A    between atoms: C_8  and  C_9
REMARK    5  A    between atoms: C_13  and  N_14
REMARK    6  A    between atoms: C_17  and  C_18
REMARK    7  A    between atoms: N_20  and  C_21
REMARK                            x       y       z     vdW  Elec       q    Type
REMARK                         _______ _______ _______ _____ _____    ______ ____
ROOT
ATOM      1  C   UNL     1       2.916   5.944  18.699  0.00  0.00    +0.000 A 
ATOM      2  C   UNL     1       3.410   6.694  17.619  0.00  0.00    +0.000 A 
ATOM      3  C   UNL     1       3.103   8.044  17.471  0.00  0.00    +0.000 A 
ATOM      4  C   UNL     1       2.310   8.692  18.420  0.00  0.00    +0.000 A 
ATOM      5  C   UNL     1       1.836   8.025  19.554  0.00  0.00    +0.000 A 
ATOM      6  C   UNL     1       2.140   6.652  19.643  0.00  0.00    +0.000 A 
ENDROOT
BRANCH   5   7
ATOM      7  N   UNL     1       1.098   8.652  20.536  0.00  0.00    +0.000 N 
ATOM      8  C   UNL     1       1.334   8.359  21.946  0.00  0.00    +0.000 C 
ATOM      9  C   UNL     1       0.639   9.473  22.647  0.00  0.00    +0.000 C 
ATOM     10  C   UNL     1       0.128  10.350  21.769  0.00  0.00    +0.000 C 
ATOM     11  C   UNL     1       0.422   9.948  20.360  0.00  0.00    +0.000 C 
BRANCH  10  12
ATOM     12  C   UNL     1      -0.603  11.611  22.023  0.00  0.00    +0.000 C 
ATOM     13  O   UNL     1      -0.070  12.524  22.637  0.00  0.00    +0.000 OA
ATOM     14  N   UNL     1      -1.888  11.653  21.538  0.00  0.00    +0.000 N 
ATOM     15  H   UNL     1      -2.221  10.901  20.955  0.00  0.00    +0.000 HD
BRANCH  14  16
ATOM     16  C   UNL     1      -2.735  12.837  21.665  0.00  0.00    +0.000 C 
ATOM     17  C   UNL     1      -3.554  12.725  22.956  0.00  0.00    +0.000 C 
ATOM     18  C   UNL     1      -4.611  13.812  23.125  0.00  0.00    +0.000 C 
ATOM     19  C   UNL     1      -5.961  13.424  22.525  0.00  0.00    +0.000 C 
ATOM     20  C   UNL     1      -6.003  13.339  21.003  0.00  0.00    +0.000 C 
ATOM     21  C   UNL     1      -4.943  12.443  20.360  0.00  0.00    +0.000 C 
ATOM     22  C   UNL     1      -3.546  13.066  20.379  0.00  0.00    +0.000 C 
ENDBRANCH  14  16
ENDBRANCH  10  12
ENDBRANCH   5   7
BRANCH   1  23
ATOM     23  C   UNL     1       3.193   4.370  18.844  0.00  0.00    +0.000 C 
ATOM     24  C   UNL     1       2.994   3.716  20.244  0.00  0.00    +0.000 C 
ATOM     25  O   UNL     1       1.927   2.869  19.770  0.00  0.00    +0.000 OA
ATOM     26  C   UNL     1       1.989   3.456  18.459  0.00  0.00    +0.000 C 
BRANCH  23  27
ATOM     27  C   UNL     1       4.485   3.964  18.106  0.00  0.00    +0.000 C 
BRANCH  27  33
ATOM     28  C   UNL     1       7.037   4.846  16.341  0.00  0.00    +0.000 C 
ATOM     29  N   UNL     1       6.835   4.981  17.759  0.00  0.00    +0.000 N 
ATOM     30  C   UNL     1       7.784   5.448  18.620  0.00  0.00    +0.000 A 
ATOM     31  N   UNL     1       7.313   5.441  19.842  0.00  0.00    +0.000 NA
ATOM     32  N   UNL     1       6.032   4.952  19.787  0.00  0.00    +0.000 NA
ATOM     33  C   UNL     1       5.741   4.657  18.533  0.00  0.00    +0.000 A 
ENDBRANCH  27  33
ENDBRANCH  23  27
ENDBRANCH   1  23
TORSDOF 6
ENDMDL
MODEL 8
REMARK VINA RESULT:      -8.1      2.788      4.387
REMARK  Name = 
REMARK  7 active torsions:
REMARK  status: ('A' for Active; 'I' for Inactive)
REMARK    1  A    between atoms: C_1  and  N_2
REMARK    2  A    between atoms: C_6  and  C_7
REMARK    3  A    between atoms: C_7  and  C_8
REMARK    4  A    between atoms: C_8  and  C_9
REMARK    5  A    between atoms: C_13  and  N_14
REMARK    6  A    between atoms: C_17  and  C_18
REMARK    7  A    between atoms: N_20  and  C_21
REMARK                            x       y       z     vdW  Elec       q    Type
REMARK                         _______ _______ _______ _____ _____    ______ ____
ROOT
ATOM      1  C   UNL     1       2.684   4.829  18.913  0.00  0.00    +0.000 A 
ATOM      2  C   UNL     1       2.174   4.358  20.134  0.00  0.00    +0.000 A 
ATOM      3  C   UNL     1       1.633   5.225  21.080  0.00  0.00    +0.000 A 
ATOM      4  C   UNL     1       1.562   6.594  20.817  0.00  0.00    +0.000 A 
ATOM      5  C   UNL     1       1.991   7.127  19.598  0.00  0.00    +0.000 A 
ATOM      6  C   UNL     1       2.566   6.218  18.687  0.00  0.00    +0.000 A 
ENDROOT
BRANCH   5   7
ATOM      7  N   UNL     1       1.882   8.466  19.289  0.00  0.00    +0.000 N 
ATOM      8  C   UNL     1       2.368   8.978  18.012  0.00  0.00    +0.000 C 
ATOM      9  C   UNL     1       1.740  10.324  17.921  0.00  0.00    +0.000 C 
ATOM     10  C   UNL     1       0.929  10.548  18.967  0.00  0.00    +0.000 C 
ATOM     11  C   UNL     1       0.895   9.377  19.893  0.00  0.00    +0.000 C 
BRANCH  10  12
ATOM     12  C   UNL     1       0.083  11.726  19.260  0.00  0.00    +0.000 C 
ATOM     13  O   UNL     1      -0.624  12.214  18.391  0.00  0.00    +0.000 OA
ATOM     14  N   UNL     1       0.175  12.210  20.543  0.00  0.00    +0.000 N 
ATOM     15  H   UNL     1       0.702  11.692  21.230  0.00  0.00    +0.000 HD
BRANCH  14  16
ATOM     16  C   UNL     1      -0.623  13.341  21.013  0.00  0.00    +0.000 C 
ATOM     17  C   UNL     1       0.142  14.055  22.133  0.00  0.00    +0.000 C 
ATOM     18  C   UNL     1      -0.654  15.151  22.835  0.00  0.00    +0.000 C 
ATOM     19  C   UNL     1      -1.441  14.634  24.037  0.00  0.00    +0.000 C 
ATOM     20  C   UNL     1      -2.614  13.716  23.708  0.00  0.00    +0.000 C 
ATOM     21  C   UNL     1      -2.284  12.511  22.825  0.00  0.00    +0.000 C 
ATOM     22  C   UNL     1      -2.051  12.890  21.362  0.00  0.00    +0.000 C 
ENDBRANCH  14  16
ENDBRANCH  10  12
ENDBRANCH   5   7
BRANCH   1  23
ATOM     23  C   UNL     1       3.384   3.857  17.846  0.00  0.00    +0.000 C 
ATOM     24  C   UNL     1       4.007   2.527  18.364  0.00  0.00    +0.000 C 
ATOM     25  O   UNL     1       3.093   1.721  17.591  0.00  0.00    +0.000 OA
ATOM     26  C   UNL     1       2.410   2.888  17.106  0.00  0.00    +0.000 C 
BRANCH  23  27
ATOM     27  C   UNL     1       4.262   4.655  16.861  0.00  0.00    +0.000 C 
BRANCH  27  33
ATOM     28  C   UNL     1       6.117   5.410  19.389  0.00  0.00    +0.000 C 
ATOM     29  N   UNL     1       6.513   4.892  18.107  0.00  0.00    +0.000 N 
ATOM     30  C   UNL     1       7.811   4.717  17.726  0.00  0.00    +0.000 A 
ATOM     31  N   UNL     1       7.853   4.246  16.505  0.00  0.00    +0.000 NA
ATOM     32  N   UNL     1       6.559   4.114  16.070  0.00  0.00    +0.000 NA
ATOM     33  C   UNL     1       5.742   4.516  17.027  0.00  0.00    +0.000 A 
ENDBRANCH  27  33
ENDBRANCH  23  27
ENDBRANCH   1  23
TORSDOF 6
ENDMDL
MODEL 9
REMARK VINA RESULT:      -8.0      3.323      4.495
REMARK  Name = 
REMARK  7 active torsions:
REMARK  status: ('A' for Active; 'I' for Inactive)
REMARK    1  A    between atoms: C_1  and  N_2
REMARK    2  A    between atoms: C_6  and  C_7
REMARK    3  A    between atoms: C_7  and  C_8
REMARK    4  A    between atoms: C_8  and  C_9
REMARK    5  A    between atoms: C_13  and  N_14
REMARK    6  A    between atoms: C_17  and  C_18
REMARK    7  A    between atoms: N_20  and  C_21
REMARK                            x       y       z     vdW  Elec       q    Type
REMARK                         _______ _______ _______ _____ _____    ______ ____
ROOT
ATOM      1  C   UNL     1       3.007   5.746  18.617  0.00  0.00    +0.000 A 
ATOM      2  C   UNL     1       3.578   6.333  17.476  0.00  0.00    +0.000 A 
ATOM      3  C   UNL     1       3.359   7.671  17.161  0.00  0.00    +0.000 A 
ATOM      4  C   UNL     1       2.579   8.471  17.997  0.00  0.00    +0.000 A 
ATOM      5  C   UNL     1       2.031   7.972  19.182  0.00  0.00    +0.000 A 
ATOM      6  C   UNL     1       2.247   6.604  19.442  0.00  0.00    +0.000 A 
ENDROOT
BRANCH   5   7
ATOM      7  N   UNL     1       1.304   8.753  20.056  0.00  0.00    +0.000 N 
ATOM      8  C   UNL     1       1.178   8.378  21.461  0.00  0.00    +0.000 C 
ATOM      9  C   UNL     1       0.670   9.622  22.102  0.00  0.00    +0.000 C 
ATOM     10  C   UNL     1       0.584  10.622  21.210  0.00  0.00    +0.000 C 
ATOM     11  C   UNL     1       1.031  10.186  19.854  0.00  0.00    +0.000 C 
BRANCH  10  12
ATOM     12  C   UNL     1       0.167  12.026  21.417  0.00  0.00    +0.000 C 
ATOM     13  O   UNL     1      -0.611  12.318  22.314  0.00  0.00    +0.000 OA
ATOM     14  N   UNL     1       0.702  12.933  20.534  0.00  0.00    +0.000 N 
ATOM     15  H   UNL     1       1.414  12.632  19.886  0.00  0.00    +0.000 HD
BRANCH  14  16
ATOM     16  C   UNL     1       0.429  14.367  20.621  0.00  0.00    +0.000 C 
ATOM     17  C   UNL     1      -0.804  14.689  19.770  0.00  0.00    +0.000 C 
ATOM     18  C   UNL     1      -1.096  16.180  19.630  0.00  0.00    +0.000 C 
ATOM     19  C   UNL     1      -0.403  16.809  18.424  0.00  0.00    +0.000 C 
ATOM     20  C   UNL     1       1.116  16.913  18.520  0.00  0.00    +0.000 C 
ATOM     21  C   UNL     1       1.849  15.609  18.840  0.00  0.00    +0.000 C 
ATOM     22  C   UNL     1       1.694  15.181  20.300  0.00  0.00    +0.000 C 
ENDBRANCH  14  16
ENDBRANCH  10  12
ENDBRANCH   5   7
BRANCH   1  23
ATOM     23  C   UNL     1       3.181   4.187  18.955  0.00  0.00    +0.000 C 
ATOM     24  C   UNL     1       2.825   3.703  20.392  0.00  0.00    +0.000 C 
ATOM     25  O   UNL     1       1.758   2.859  19.915  0.00  0.00    +0.000 OA
ATOM     26  C   UNL     1       1.967   3.291  18.560  0.00  0.00    +0.000 C 
BRANCH  23  27
ATOM     27  C   UNL     1       4.508   3.642  18.388  0.00  0.00    +0.000 C 
BRANCH  27  33
ATOM     28  C   UNL     1       6.878   4.538  16.391  0.00  0.00    +0.000 C 
ATOM     29  N   UNL     1       6.754   4.779  17.803  0.00  0.00    +0.000 N 
ATOM     30  C   UNL     1       7.718   5.379  18.559  0.00  0.00    +0.000 A 
ATOM     31  N   UNL     1       7.325   5.444  19.807  0.00  0.00    +0.000 NA
ATOM     32  N   UNL     1       6.081   4.869  19.876  0.00  0.00    +0.000 NA
ATOM     33  C   UNL     1       5.735   4.451  18.673  0.00  0.00    +0.000 A 
ENDBRANCH  27  33
ENDBRANCH  23  27
ENDBRANCH   1  23
TORSDOF 6
ENDMDL
