MODEL 1
REMARK VINA RESULT:      -9.3      0.000      0.000
REMARK  Name = 
REMARK  3 active torsions:
REMARK  status: ('A' for Active; 'I' for Inactive)
REMARK    1  A    between atoms: C_8  and  S_9
REMARK    2  A    between atoms: S_9  and  N_12
REMARK    3  A    between atoms: C_18  and  C_19
REMARK                            x       y       z     vdW  Elec       q    Type
REMARK                         _______ _______ _______ _____ _____    ______ ____
ROOT
ATOM      1  S   UNL     1       2.571   4.517  19.635  0.00  0.00    +0.000 S 
ATOM      2  O   UNL     1       2.963   4.413  21.020  0.00  0.00    +0.000 OA
ATOM      3  O   UNL     1       1.456   3.760  19.103  0.00  0.00    +0.000 OA
ENDROOT
BRANCH   1  11
ATOM      4  O   UNL     1       0.919  12.346  19.350  0.00  0.00    +0.000 OA
ATOM      5  C   UNL     1       1.088  11.153  19.582  0.00  0.00    +0.000 A 
ATOM      6  N   UNL     1       0.799  10.601  20.795  0.00  0.00    +0.000 N 
ATOM      7  C   UNL     1       1.021   9.296  21.167  0.00  0.00    +0.000 A 
ATOM      8  O   UNL     1       0.827   8.896  22.308  0.00  0.00    +0.000 OA
ATOM      9  C   UNL     1       1.522   8.399  20.109  0.00  0.00    +0.000 A 
ATOM     10  C   UNL     1       1.730   7.042  20.358  0.00  0.00    +0.000 A 
ATOM     11  C   UNL     1       2.220   6.237  19.325  0.00  0.00    +0.000 A 
ATOM     12  C   UNL     1       2.442   6.769  18.049  0.00  0.00    +0.000 A 
ATOM     13  C   UNL     1       2.232   8.130  17.812  0.00  0.00    +0.000 A 
ATOM     14  C   UNL     1       1.780   8.944  18.851  0.00  0.00    +0.000 A 
ATOM     15  N   UNL     1       1.580  10.308  18.629  0.00  0.00    +0.000 N 
ATOM     16  H   UNL     1       0.443  11.229  21.503  0.00  0.00    +0.000 HD
ATOM     17  H   UNL     1       1.786  10.725  17.732  0.00  0.00    +0.000 HD
ENDBRANCH   1  11
BRANCH   1  18
ATOM     18  N   UNL     1       3.895   4.220  18.648  0.00  0.00    +0.000 NA
ATOM     19  C   UNL     1       5.265   4.463  19.122  0.00  0.00    +0.000 C 
ATOM     20  C   UNL     1       5.998   5.486  18.259  0.00  0.00    +0.000 C 
ATOM     21  C   UNL     1       5.975   5.071  16.814  0.00  0.00    +0.000 A 
ATOM     22  C   UNL     1       7.029   5.424  15.964  0.00  0.00    +0.000 A 
ATOM     23  C   UNL     1       7.045   4.977  14.646  0.00  0.00    +0.000 A 
ATOM     24  C   UNL     1       6.005   4.177  14.152  0.00  0.00    +0.000 A 
ATOM     25  C   UNL     1       4.913   3.887  14.991  0.00  0.00    +0.000 A 
ATOM     26  C   UNL     1       4.887   4.332  16.322  0.00  0.00    +0.000 A 
ATOM     27  C   UNL     1       3.677   4.066  17.197  0.00  0.00    +0.000 C 
BRANCH  24  28
ATOM     28  C   UNL     1       6.065   3.615  12.753  0.00  0.00    +0.000 C 
ATOM     29  F   UNL     1       6.401   2.296  12.707  0.00  0.00    +0.000 F 
ATOM     30  F   UNL     1       4.870   3.715  12.105  0.00  0.00    +0.000 F 
ATOM     31  F   UNL     1       6.970   4.260  11.967  0.00  0.00    +0.000 F 
ENDBRANCH  24  28
ENDBRANCH   1  18
TORSDOF 3
ENDMDL
MODEL 2
REMARK VINA RESULT:      -9.2      1.235      1.910
REMARK  Name = 
REMARK  3 active torsions:
REMARK  status: ('A' for Active; 'I' for Inactive)
REMARK    1  A    between atoms: C_8  and  S_9
REMARK    2  A    between atoms: S_9  and  N_12
REMARK    3  A    between atoms: C_18  and  C_19
REMARK                            x       y       z     vdW  Elec       q    Type
REMARK                         _______ _______ _______ _____ _____    ______ ____
ROOT
ATOM      1  S   UNL     1       2.623   3.568  19.551  0.00  0.00    +0.000 S 
ATOM      2  O   UNL     1       2.967   3.099  20.871  0.00  0.00    +0.000 OA
ATOM      3  O   UNL     1       1.543   2.972  18.791  0.00  0.00    +0.000 OA
ENDROOT
BRANCH   1  11
ATOM      4  O   UNL     1       1.180  11.432  19.126  0.00  0.00    +0.000 OA
ATOM      5  C   UNL     1       1.508  10.254  19.017  0.00  0.00    +0.000 A 
ATOM      6  N   UNL     1       2.184   9.787  17.928  0.00  0.00    +0.000 N 
ATOM      7  C   UNL     1       2.528   8.478  17.687  0.00  0.00    +0.000 A 
ATOM      8  O   UNL     1       3.049   8.118  16.639  0.00  0.00    +0.000 OA
ATOM      9  C   UNL     1       2.223   7.520  18.766  0.00  0.00    +0.000 A 
ATOM     10  C   UNL     1       2.578   6.176  18.654  0.00  0.00    +0.000 A 
ATOM     11  C   UNL     1       2.252   5.305  19.699  0.00  0.00    +0.000 A 
ATOM     12  C   UNL     1       1.634   5.784  20.861  0.00  0.00    +0.000 A 
ATOM     13  C   UNL     1       1.281   7.132  20.960  0.00  0.00    +0.000 A 
ATOM     14  C   UNL     1       1.570   7.996  19.904  0.00  0.00    +0.000 A 
ATOM     15  N   UNL     1       1.209   9.341  19.987  0.00  0.00    +0.000 N 
ATOM     16  H   UNL     1       2.396  10.461  17.206  0.00  0.00    +0.000 HD
ATOM     17  H   UNL     1       0.712   9.699  20.792  0.00  0.00    +0.000 HD
ENDBRANCH   1  11
BRANCH   1  18
ATOM     18  N   UNL     1       3.987   3.557  18.573  0.00  0.00    +0.000 NA
ATOM     19  C   UNL     1       5.298   3.971  19.094  0.00  0.00    +0.000 C 
ATOM     20  C   UNL     1       5.871   5.159  18.328  0.00  0.00    +0.000 C 
ATOM     21  C   UNL     1       5.927   4.862  16.856  0.00  0.00    +0.000 A 
ATOM     22  C   UNL     1       6.922   5.439  16.059  0.00  0.00    +0.000 A 
ATOM     23  C   UNL     1       7.021   5.105  14.711  0.00  0.00    +0.000 A 
ATOM     24  C   UNL     1       6.123   4.195  14.135  0.00  0.00    +0.000 A 
ATOM     25  C   UNL     1       5.081   3.675  14.925  0.00  0.00    +0.000 A 
ATOM     26  C   UNL     1       4.973   4.005  16.285  0.00  0.00    +0.000 A 
ATOM     27  C   UNL     1       3.810   3.486  17.110  0.00  0.00    +0.000 C 
BRANCH  24  28
ATOM     28  C   UNL     1       6.283   3.762  12.698  0.00  0.00    +0.000 C 
ATOM     29  F   UNL     1       6.720   2.480  12.560  0.00  0.00    +0.000 F 
ATOM     30  F   UNL     1       5.112   3.830  12.005  0.00  0.00    +0.000 F 
ATOM     31  F   UNL     1       7.169   4.535  12.012  0.00  0.00    +0.000 F 
ENDBRANCH  24  28
ENDBRANCH   1  18
TORSDOF 3
ENDMDL
MODEL 3
REMARK VINA RESULT:      -9.0      5.287      8.368
REMARK  Name = 
REMARK  3 active torsions:
REMARK  status: ('A' for Active; 'I' for Inactive)
REMARK    1  A    between atoms: C_8  and  S_9
REMARK    2  A    between atoms: S_9  and  N_12
REMARK    3  A    between atoms: C_18  and  C_19
REMARK                            x       y       z     vdW  Elec       q    Type
REMARK                         _______ _______ _______ _____ _____    ______ ____
ROOT
ATOM      1  S   UNL     1       3.726   3.433  18.769  0.00  0.00    +0.000 S 
ATOM      2  O   UNL     1       3.095   2.319  18.103  0.00  0.00    +0.000 OA
ATOM      3  O   UNL     1       4.337   3.289  20.074  0.00  0.00    +0.000 OA
ENDROOT
BRANCH   1  11
ATOM      4  O   UNL     1       8.703   5.919  13.012  0.00  0.00    +0.000 OA
ATOM      5  C   UNL     1       7.850   5.429  13.745  0.00  0.00    +0.000 A 
ATOM      6  N   UNL     1       6.843   4.646  13.263  0.00  0.00    +0.000 N 
ATOM      7  C   UNL     1       5.807   4.114  13.995  0.00  0.00    +0.000 A 
ATOM      8  O   UNL     1       4.882   3.502  13.476  0.00  0.00    +0.000 OA
ATOM      9  C   UNL     1       5.865   4.335  15.452  0.00  0.00    +0.000 A 
ATOM     10  C   UNL     1       4.898   3.794  16.299  0.00  0.00    +0.000 A 
ATOM     11  C   UNL     1       4.989   4.045  17.672  0.00  0.00    +0.000 A 
ATOM     12  C   UNL     1       6.064   4.776  18.194  0.00  0.00    +0.000 A 
ATOM     13  C   UNL     1       7.025   5.314  17.335  0.00  0.00    +0.000 A 
ATOM     14  C   UNL     1       6.916   5.098  15.961  0.00  0.00    +0.000 A 
ATOM     15  N   UNL     1       7.863   5.644  15.094  0.00  0.00    +0.000 N 
ATOM     16  H   UNL     1       6.828   4.495  12.264  0.00  0.00    +0.000 HD
ATOM     17  H   UNL     1       8.616   6.222  15.441  0.00  0.00    +0.000 HD
ENDBRANCH   1  11
BRANCH   1  18
ATOM     18  N   UNL     1       2.652   4.719  18.860  0.00  0.00    +0.000 NA
ATOM     19  C   UNL     1       2.189   5.409  17.647  0.00  0.00    +0.000 C 
ATOM     20  C   UNL     1       2.552   6.891  17.655  0.00  0.00    +0.000 C 
ATOM     21  C   UNL     1       2.036   7.554  18.902  0.00  0.00    +0.000 A 
ATOM     22  C   UNL     1       1.668   8.904  18.880  0.00  0.00    +0.000 A 
ATOM     23  C   UNL     1       1.120   9.498  20.013  0.00  0.00    +0.000 A 
ATOM     24  C   UNL     1       0.938   8.757  21.189  0.00  0.00    +0.000 A 
ATOM     25  C   UNL     1       1.378   7.421  21.225  0.00  0.00    +0.000 A 
ATOM     26  C   UNL     1       1.931   6.811  20.088  0.00  0.00    +0.000 A 
ATOM     27  C   UNL     1       2.457   5.391  20.159  0.00  0.00    +0.000 C 
BRANCH  24  28
ATOM     28  C   UNL     1       0.261   9.373  22.389  0.00  0.00    +0.000 C 
ATOM     29  F   UNL     1      -0.906   8.760  22.732  0.00  0.00    +0.000 F 
ATOM     30  F   UNL     1       1.045   9.328  23.503  0.00  0.00    +0.000 F 
ATOM     31  F   UNL     1      -0.047  10.685  22.202  0.00  0.00    +0.000 F 
ENDBRANCH  24  28
ENDBRANCH   1  18
TORSDOF 3
ENDMDL
MODEL 4
REMARK VINA RESULT:      -8.9      4.100      6.461
REMARK  Name = 
REMARK  3 active torsions:
REMARK  status: ('A' for Active; 'I' for Inactive)
REMARK    1  A    between atoms: C_8  and  S_9
REMARK    2  A    between atoms: S_9  and  N_12
REMARK    3  A    between atoms: C_18  and  C_19
REMARK                            x       y       z     vdW  Elec       q    Type
REMARK                         _______ _______ _______ _____ _____    ______ ____
ROOT
ATOM      1  S   UNL     1       0.829  11.244  19.674  0.00  0.00    +0.000 S 
ATOM      2  O   UNL     1       1.602  11.786  18.581  0.00  0.00    +0.000 OA
ATOM      3  O   UNL     1       1.088  11.624  21.047  0.00  0.00    +0.000 OA
ENDROOT
BRANCH   1  11
ATOM      4  O   UNL     1      -6.757  12.279  17.336  0.00  0.00    +0.000 OA
ATOM      5  C   UNL     1      -5.563  12.051  17.503  0.00  0.00    +0.000 A 
ATOM      6  N   UNL     1      -4.800  11.447  16.548  0.00  0.00    +0.000 N 
ATOM      7  C   UNL     1      -3.478  11.089  16.672  0.00  0.00    +0.000 A 
ATOM      8  O   UNL     1      -2.884  10.460  15.806  0.00  0.00    +0.000 OA
ATOM      9  C   UNL     1      -2.813  11.498  17.923  0.00  0.00    +0.000 A 
ATOM     10  C   UNL     1      -1.458  11.238  18.134  0.00  0.00    +0.000 A 
ATOM     11  C   UNL     1      -0.878  11.633  19.343  0.00  0.00    +0.000 A 
ATOM     12  C   UNL     1      -1.626  12.330  20.301  0.00  0.00    +0.000 A 
ATOM     13  C   UNL     1      -2.982  12.583  20.079  0.00  0.00    +0.000 A 
ATOM     14  C   UNL     1      -3.574  12.156  18.889  0.00  0.00    +0.000 A 
ATOM     15  N   UNL     1      -4.931  12.391  18.665  0.00  0.00    +0.000 N 
ATOM     16  H   UNL     1      -5.270  11.187  15.692  0.00  0.00    +0.000 HD
ATOM     17  H   UNL     1      -5.505  12.843  19.364  0.00  0.00    +0.000 HD
ENDBRANCH   1  11
BRANCH   1  18
ATOM     18  N   UNL     1       0.853   9.567  19.606  0.00  0.00    +0.000 NA
ATOM     19  C   UNL     1       0.210   8.756  20.651  0.00  0.00    +0.000 C 
ATOM     20  C   UNL     1       1.203   7.836  21.355  0.00  0.00    +0.000 C 
ATOM     21  C   UNL     1       1.931   6.980  20.356  0.00  0.00    +0.000 A 
ATOM     22  C   UNL     1       2.372   5.702  20.714  0.00  0.00    +0.000 A 
ATOM     23  C   UNL     1       2.978   4.879  19.768  0.00  0.00    +0.000 A 
ATOM     24  C   UNL     1       3.161   5.324  18.451  0.00  0.00    +0.000 A 
ATOM     25  C   UNL     1       2.780   6.637  18.118  0.00  0.00    +0.000 A 
ATOM     26  C   UNL     1       2.167   7.474  19.063  0.00  0.00    +0.000 A 
ATOM     27  C   UNL     1       1.819   8.906  18.708  0.00  0.00    +0.000 C 
BRANCH  24  28
ATOM     28  C   UNL     1       3.734   4.403  17.402  0.00  0.00    +0.000 C 
ATOM     29  F   UNL     1       4.399   5.055  16.408  0.00  0.00    +0.000 F 
ATOM     30  F   UNL     1       4.627   3.517  17.925  0.00  0.00    +0.000 F 
ATOM     31  F   UNL     1       2.780   3.653  16.785  0.00  0.00    +0.000 F 
ENDBRANCH  24  28
ENDBRANCH   1  18
TORSDOF 3
ENDMDL
MODEL 5
REMARK VINA RESULT:      -8.5      4.210      6.519
REMARK  Name = 
REMARK  3 active torsions:
REMARK  status: ('A' for Active; 'I' for Inactive)
REMARK    1  A    between atoms: C_8  and  S_9
REMARK    2  A    between atoms: S_9  and  N_12
REMARK    3  A    between atoms: C_18  and  C_19
REMARK                            x       y       z     vdW  Elec       q    Type
REMARK                         _______ _______ _______ _____ _____    ______ ____
ROOT
ATOM      1  S   UNL     1       0.692  11.698  19.296  0.00  0.00    +0.000 S 
ATOM      2  O   UNL     1       1.293  12.393  18.183  0.00  0.00    +0.000 OA
ATOM      3  O   UNL     1       1.032  12.023  20.666  0.00  0.00    +0.000 OA
ENDROOT
BRANCH   1  11
ATOM      4  O   UNL     1      -7.147  11.956  17.692  0.00  0.00    +0.000 OA
ATOM      5  C   UNL     1      -5.925  11.863  17.740  0.00  0.00    +0.000 A 
ATOM      6  N   UNL     1      -5.190  11.411  16.684  0.00  0.00    +0.000 N 
ATOM      7  C   UNL     1      -3.830  11.206  16.670  0.00  0.00    +0.000 A 
ATOM      8  O   UNL     1      -3.251  10.703  15.715  0.00  0.00    +0.000 OA
ATOM      9  C   UNL     1      -3.102  11.618  17.884  0.00  0.00    +0.000 A 
ATOM     10  C   UNL     1      -1.713  11.509  17.961  0.00  0.00    +0.000 A 
ATOM     11  C   UNL     1      -1.072  11.899  19.140  0.00  0.00    +0.000 A 
ATOM     12  C   UNL     1      -1.802  12.445  20.203  0.00  0.00    +0.000 A 
ATOM     13  C   UNL     1      -3.193  12.547  20.116  0.00  0.00    +0.000 A 
ATOM     14  C   UNL     1      -3.840  12.123  18.955  0.00  0.00    +0.000 A 
ATOM     15  N   UNL     1      -5.230  12.208  18.864  0.00  0.00    +0.000 N 
ATOM     16  H   UNL     1      -5.705  11.147  15.856  0.00  0.00    +0.000 HD
ATOM     17  H   UNL     1      -5.784  12.546  19.639  0.00  0.00    +0.000 HD
ENDBRANCH   1  11
BRANCH   1  18
ATOM     18  N   UNL     1       0.899  10.043  19.108  0.00  0.00    +0.000 NA
ATOM     19  C   UNL     1       0.234   9.088  20.006  0.00  0.00    +0.000 C 
ATOM     20  C   UNL     1       1.234   8.211  20.754  0.00  0.00    +0.000 C 
ATOM     21  C   UNL     1       2.154   7.517  19.788  0.00  0.00    +0.000 A 
ATOM     22  C   UNL     1       2.685   6.261  20.101  0.00  0.00    +0.000 A 
ATOM     23  C   UNL     1       3.475   5.585  19.176  0.00  0.00    +0.000 A 
ATOM     24  C   UNL     1       3.755   6.156  17.927  0.00  0.00    +0.000 A 
ATOM     25  C   UNL     1       3.279   7.450  17.648  0.00  0.00    +0.000 A 
ATOM     26  C   UNL     1       2.479   8.140  18.573  0.00  0.00    +0.000 A 
ATOM     27  C   UNL     1       2.023   9.558  18.286  0.00  0.00    +0.000 C 
BRANCH  24  28
ATOM     28  C   UNL     1       4.536   5.388  16.888  0.00  0.00    +0.000 C 
ATOM     29  F   UNL     1       3.908   4.258  16.458  0.00  0.00    +0.000 F 
ATOM     30  F   UNL     1       4.773   6.128  15.769  0.00  0.00    +0.000 F 
ATOM     31  F   UNL     1       5.757   4.989  17.338  0.00  0.00    +0.000 F 
ENDBRANCH  24  28
ENDBRANCH   1  18
TORSDOF 3
ENDMDL
MODEL 6
REMARK VINA RESULT:      -8.5      4.734      8.166
REMARK  Name = 
REMARK  3 active torsions:
REMARK  status: ('A' for Active; 'I' for Inactive)
REMARK    1  A    between atoms: C_8  and  S_9
REMARK    2  A    between atoms: S_9  and  N_12
REMARK    3  A    between atoms: C_18  and  C_19
REMARK                            x       y       z     vdW  Elec       q    Type
REMARK                         _______ _______ _______ _____ _____    ______ ____
ROOT
ATOM      1  S   UNL     1       3.492   3.560  18.022  0.00  0.00    +0.000 S 
ATOM      2  O   UNL     1       2.355   3.347  17.158  0.00  0.00    +0.000 OA
ATOM      3  O   UNL     1       4.014   2.502  18.863  0.00  0.00    +0.000 OA
ENDROOT
BRANCH   1  11
ATOM      4  O   UNL     1       8.856   5.763  12.503  0.00  0.00    +0.000 OA
ATOM      5  C   UNL     1       7.947   5.318  13.196  0.00  0.00    +0.000 A 
ATOM      6  N   UNL     1       6.934   4.572  12.671  0.00  0.00    +0.000 N 
ATOM      7  C   UNL     1       5.840   4.093  13.354  0.00  0.00    +0.000 A 
ATOM      8  O   UNL     1       4.918   3.514  12.794  0.00  0.00    +0.000 OA
ATOM      9  C   UNL     1       5.834   4.330  14.810  0.00  0.00    +0.000 A 
ATOM     10  C   UNL     1       4.802   3.840  15.612  0.00  0.00    +0.000 A 
ATOM     11  C   UNL     1       4.835   4.104  16.985  0.00  0.00    +0.000 A 
ATOM     12  C   UNL     1       5.912   4.796  17.553  0.00  0.00    +0.000 A 
ATOM     13  C   UNL     1       6.937   5.283  16.740  0.00  0.00    +0.000 A 
ATOM     14  C   UNL     1       6.888   5.054  15.364  0.00  0.00    +0.000 A 
ATOM     15  N   UNL     1       7.901   5.550  14.541  0.00  0.00    +0.000 N 
ATOM     16  H   UNL     1       6.963   4.409  11.674  0.00  0.00    +0.000 HD
ATOM     17  H   UNL     1       8.660   6.099  14.921  0.00  0.00    +0.000 HD
ENDBRANCH   1  11
BRANCH   1  18
ATOM     18  N   UNL     1       3.214   4.890  19.006  0.00  0.00    +0.000 NA
ATOM     19  C   UNL     1       3.049   4.738  20.459  0.00  0.00    +0.000 C 
ATOM     20  C   UNL     1       1.690   5.241  20.938  0.00  0.00    +0.000 C 
ATOM     21  C   UNL     1       1.468   6.662  20.499  0.00  0.00    +0.000 A 
ATOM     22  C   UNL     1       0.687   7.524  21.276  0.00  0.00    +0.000 A 
ATOM     23  C   UNL     1       0.543   8.860  20.910  0.00  0.00    +0.000 A 
ATOM     24  C   UNL     1       1.170   9.353  19.757  0.00  0.00    +0.000 A 
ATOM     25  C   UNL     1       1.893   8.463  18.942  0.00  0.00    +0.000 A 
ATOM     26  C   UNL     1       2.045   7.115  19.302  0.00  0.00    +0.000 A 
ATOM     27  C   UNL     1       2.774   6.153  18.384  0.00  0.00    +0.000 C 
BRANCH  24  28
ATOM     28  C   UNL     1       1.091  10.819  19.407  0.00  0.00    +0.000 C 
ATOM     29  F   UNL     1      -0.150  11.221  19.016  0.00  0.00    +0.000 F 
ATOM     30  F   UNL     1       1.425  11.620  20.458  0.00  0.00    +0.000 F 
ATOM     31  F   UNL     1       1.932  11.163  18.394  0.00  0.00    +0.000 F 
ENDBRANCH  24  28
ENDBRANCH   1  18
TORSDOF 3
ENDMDL
MODEL 7
REMARK VINA RESULT:      -8.3      1.611      2.067
REMARK  Name = 
REMARK  3 active torsions:
REMARK  status: ('A' for Active; 'I' for Inactive)
REMARK    1  A    between atoms: C_8  and  S_9
REMARK    2  A    between atoms: S_9  and  N_12
REMARK    3  A    between atoms: C_18  and  C_19
REMARK                            x       y       z     vdW  Elec       q    Type
REMARK                         _______ _______ _______ _____ _____    ______ ____
ROOT
ATOM      1  S   UNL     1       5.150   4.631  19.133  0.00  0.00    +0.000 S 
ATOM      2  O   UNL     1       6.192   5.133  19.997  0.00  0.00    +0.000 OA
ATOM      3  O   UNL     1       4.267   3.562  19.552  0.00  0.00    +0.000 OA
ENDROOT
BRANCH   1  11
ATOM      4  O   UNL     1       0.208  10.877  18.320  0.00  0.00    +0.000 OA
ATOM      5  C   UNL     1       0.858   9.880  18.617  0.00  0.00    +0.000 A 
ATOM      6  N   UNL     1       0.663   9.208  19.787  0.00  0.00    +0.000 N 
ATOM      7  C   UNL     1       1.389   8.129  20.234  0.00  0.00    +0.000 A 
ATOM      8  O   UNL     1       1.220   7.638  21.343  0.00  0.00    +0.000 OA
ATOM      9  C   UNL     1       2.400   7.599  19.301  0.00  0.00    +0.000 A 
ATOM     10  C   UNL     1       3.157   6.473  19.626  0.00  0.00    +0.000 A 
ATOM     11  C   UNL     1       4.114   6.019  18.713  0.00  0.00    +0.000 A 
ATOM     12  C   UNL     1       4.269   6.647  17.470  0.00  0.00    +0.000 A 
ATOM     13  C   UNL     1       3.507   7.775  17.157  0.00  0.00    +0.000 A 
ATOM     14  C   UNL     1       2.579   8.253  18.082  0.00  0.00    +0.000 A 
ATOM     15  N   UNL     1       1.823   9.388  17.784  0.00  0.00    +0.000 N 
ATOM     16  H   UNL     1      -0.044   9.578  20.407  0.00  0.00    +0.000 HD
ATOM     17  H   UNL     1       1.956   9.891  16.917  0.00  0.00    +0.000 HD
ENDBRANCH   1  11
BRANCH   1  18
ATOM     18  N   UNL     1       5.805   4.189  17.653  0.00  0.00    +0.000 NA
ATOM     19  C   UNL     1       7.236   4.370  17.371  0.00  0.00    +0.000 C 
ATOM     20  C   UNL     1       7.474   5.289  16.177  0.00  0.00    +0.000 C 
ATOM     21  C   UNL     1       6.730   4.791  14.970  0.00  0.00    +0.000 A 
ATOM     22  C   UNL     1       7.236   5.022  13.686  0.00  0.00    +0.000 A 
ATOM     23  C   UNL     1       6.587   4.496  12.572  0.00  0.00    +0.000 A 
ATOM     24  C   UNL     1       5.418   3.737  12.722  0.00  0.00    +0.000 A 
ATOM     25  C   UNL     1       4.875   3.570  14.010  0.00  0.00    +0.000 A 
ATOM     26  C   UNL     1       5.522   4.096  15.140  0.00  0.00    +0.000 A 
ATOM     27  C   UNL     1       4.895   3.962  16.514  0.00  0.00    +0.000 C 
BRANCH  24  28
ATOM     28  C   UNL     1       4.763   3.089  11.527  0.00  0.00    +0.000 C 
ATOM     29  F   UNL     1       3.462   2.743  11.737  0.00  0.00    +0.000 F 
ATOM     30  F   UNL     1       4.757   3.906  10.436  0.00  0.00    +0.000 F 
ATOM     31  F   UNL     1       5.395   1.949  11.136  0.00  0.00    +0.000 F 
ENDBRANCH  24  28
ENDBRANCH   1  18
TORSDOF 3
ENDMDL
MODEL 8
REMARK VINA RESULT:      -8.3      4.957      7.600
REMARK  Name = 
REMARK  3 active torsions:
REMARK  status: ('A' for Active; 'I' for Inactive)
REMARK    1  A    between atoms: C_8  and  S_9
REMARK    2  A    between atoms: S_9  and  N_12
REMARK    3  A    between atoms: C_18  and  C_19
REMARK                            x       y       z     vdW  Elec       q    Type
REMARK                         _______ _______ _______ _____ _____    ______ ____
ROOT
ATOM      1  S   UNL     1      -0.715  12.060  22.478  0.00  0.00    +0.000 S 
ATOM      2  O   UNL     1      -0.285  13.375  22.891  0.00  0.00    +0.000 OA
ATOM      3  O   UNL     1      -1.129  11.061  23.442  0.00  0.00    +0.000 OA
ENDROOT
BRANCH   1  11
ATOM      4  O   UNL     1      -6.283  12.416  16.737  0.00  0.00    +0.000 OA
ATOM      5  C   UNL     1      -5.302  12.302  17.466  0.00  0.00    +0.000 A 
ATOM      6  N   UNL     1      -4.116  11.805  17.013  0.00  0.00    +0.000 N 
ATOM      7  C   UNL     1      -2.991  11.575  17.770  0.00  0.00    +0.000 A 
ATOM      8  O   UNL     1      -1.992  11.033  17.314  0.00  0.00    +0.000 OA
ATOM      9  C   UNL     1      -3.059  12.009  19.177  0.00  0.00    +0.000 A 
ATOM     10  C   UNL     1      -1.958  11.876  20.024  0.00  0.00    +0.000 A 
ATOM     11  C   UNL     1      -2.078  12.290  21.354  0.00  0.00    +0.000 A 
ATOM     12  C   UNL     1      -3.262  12.880  21.814  0.00  0.00    +0.000 A 
ATOM     13  C   UNL     1      -4.359  13.006  20.958  0.00  0.00    +0.000 A 
ATOM     14  C   UNL     1      -4.254  12.559  19.640  0.00  0.00    +0.000 A 
ATOM     15  N   UNL     1      -5.349  12.667  18.781  0.00  0.00    +0.000 N 
ATOM     16  H   UNL     1      -4.085  11.526  16.043  0.00  0.00    +0.000 HD
ATOM     17  H   UNL     1      -6.232  13.038  19.105  0.00  0.00    +0.000 HD
ENDBRANCH   1  11
BRANCH   1  18
ATOM     18  N   UNL     1       0.460  11.360  21.506  0.00  0.00    +0.000 NA
ATOM     19  C   UNL     1       1.181  12.150  20.497  0.00  0.00    +0.000 C 
ATOM     20  C   UNL     1       0.979  11.602  19.087  0.00  0.00    +0.000 C 
ATOM     21  C   UNL     1       1.356  10.148  19.027  0.00  0.00    +0.000 A 
ATOM     22  C   UNL     1       1.862   9.601  17.843  0.00  0.00    +0.000 A 
ATOM     23  C   UNL     1       2.283   8.274  17.808  0.00  0.00    +0.000 A 
ATOM     24  C   UNL     1       2.196   7.470  18.953  0.00  0.00    +0.000 A 
ATOM     25  C   UNL     1       1.618   8.005  20.119  0.00  0.00    +0.000 A 
ATOM     26  C   UNL     1       1.192   9.342  20.165  0.00  0.00    +0.000 A 
ATOM     27  C   UNL     1       0.515   9.889  21.407  0.00  0.00    +0.000 C 
BRANCH  24  28
ATOM     28  C   UNL     1       2.734   6.060  18.944  0.00  0.00    +0.000 C 
ATOM     29  F   UNL     1       4.083   5.988  19.119  0.00  0.00    +0.000 F 
ATOM     30  F   UNL     1       2.192   5.294  19.933  0.00  0.00    +0.000 F 
ATOM     31  F   UNL     1       2.472   5.405  17.780  0.00  0.00    +0.000 F 
ENDBRANCH  24  28
ENDBRANCH   1  18
TORSDOF 3
ENDMDL
MODEL 9
REMARK VINA RESULT:      -8.2      3.891      5.581
REMARK  Name = 
REMARK  3 active torsions:
REMARK  status: ('A' for Active; 'I' for Inactive)
REMARK    1  A    between atoms: C_8  and  S_9
REMARK    2  A    between atoms: S_9  and  N_12
REMARK    3  A    between atoms: C_18  and  C_19
REMARK                            x       y       z     vdW  Elec       q    Type
REMARK                         _______ _______ _______ _____ _____    ______ ____
ROOT
ATOM      1  S   UNL     1       0.891  10.742  19.406  0.00  0.00    +0.000 S 
ATOM      2  O   UNL     1       1.705  11.636  18.617  0.00  0.00    +0.000 OA
ATOM      3  O   UNL     1       0.819  10.857  20.848  0.00  0.00    +0.000 OA
ENDROOT
BRANCH   1  11
ATOM      4  O   UNL     1      -6.705  12.232  17.366  0.00  0.00    +0.000 OA
ATOM      5  C   UNL     1      -5.586  12.107  17.851  0.00  0.00    +0.000 A 
ATOM      6  N   UNL     1      -5.231  12.710  19.021  0.00  0.00    +0.000 N 
ATOM      7  C   UNL     1      -3.985  12.685  19.602  0.00  0.00    +0.000 A 
ATOM      8  O   UNL     1      -3.714  13.334  20.605  0.00  0.00    +0.000 OA
ATOM      9  C   UNL     1      -2.979  11.835  18.938  0.00  0.00    +0.000 A 
ATOM     10  C   UNL     1      -1.697  11.690  19.470  0.00  0.00    +0.000 A 
ATOM     11  C   UNL     1      -0.776  10.884  18.793  0.00  0.00    +0.000 A 
ATOM     12  C   UNL     1      -1.149  10.189  17.636  0.00  0.00    +0.000 A 
ATOM     13  C   UNL     1      -2.435  10.345  17.112  0.00  0.00    +0.000 A 
ATOM     14  C   UNL     1      -3.345  11.178  17.763  0.00  0.00    +0.000 A 
ATOM     15  N   UNL     1      -4.627  11.351  17.239  0.00  0.00    +0.000 N 
ATOM     16  H   UNL     1      -5.937  13.277  19.469  0.00  0.00    +0.000 HD
ATOM     17  H   UNL     1      -4.902  10.905  16.375  0.00  0.00    +0.000 HD
ENDBRANCH   1  11
BRANCH   1  18
ATOM     18  N   UNL     1       1.289   9.151  19.049  0.00  0.00    +0.000 NA
ATOM     19  C   UNL     1       0.860   8.048  19.921  0.00  0.00    +0.000 C 
ATOM     20  C   UNL     1       2.044   7.264  20.480  0.00  0.00    +0.000 C 
ATOM     21  C   UNL     1       2.930   6.780  19.366  0.00  0.00    +0.000 A 
ATOM     22  C   UNL     1       3.651   5.590  19.508  0.00  0.00    +0.000 A 
ATOM     23  C   UNL     1       4.412   5.101  18.449  0.00  0.00    +0.000 A 
ATOM     24  C   UNL     1       4.471   5.798  17.234  0.00  0.00    +0.000 A 
ATOM     25  C   UNL     1       3.802   7.031  17.124  0.00  0.00    +0.000 A 
ATOM     26  C   UNL     1       3.031   7.532  18.185  0.00  0.00    +0.000 A 
ATOM     27  C   UNL     1       2.365   8.890  18.075  0.00  0.00    +0.000 C 
BRANCH  24  28
ATOM     28  C   UNL     1       5.220   5.226  16.056  0.00  0.00    +0.000 C 
ATOM     29  F   UNL     1       4.724   4.036  15.619  0.00  0.00    +0.000 F 
ATOM     30  F   UNL     1       5.195   6.057  14.975  0.00  0.00    +0.000 F 
ATOM     31  F   UNL     1       6.536   5.007  16.327  0.00  0.00    +0.000 F 
ENDBRANCH  24  28
ENDBRANCH   1  18
TORSDOF 3
ENDMDL
