MODEL 1
REMARK VINA RESULT:      -9.7      0.000      0.000
REMARK  Name = 
REMARK  2 active torsions:
REMARK  status: ('A' for Active; 'I' for Inactive)
REMARK    1  A    between atoms: C_1  and  N_2
REMARK    2  A    between atoms: C_10  and  N_11
REMARK                            x       y       z     vdW  Elec       q    Type
REMARK                         _______ _______ _______ _____ _____    ______ ____
ROOT
ATOM      1  N   UNL     1       8.904   9.124  19.279  0.00  0.00    +0.000 N 
ATOM      2  C   UNL     1       8.098   8.853  18.191  0.00  0.00    +0.000 C 
ATOM      3  O   UNL     1       7.802   9.701  17.348  0.00  0.00    +0.000 OA
ATOM      4  N   UNL     1       7.635   7.544  18.068  0.00  0.00    +0.000 N 
ATOM      5  C   UNL     1       7.968   6.418  18.949  0.00  0.00    +0.000 C 
ATOM      6  C   UNL     1       8.207   5.110  18.202  0.00  0.00    +0.000 C 
ATOM      7  C   UNL     1       6.952   4.362  17.739  0.00  0.00    +0.000 C 
ATOM      8  N   UNL     1       5.705   5.099  17.671  0.00  0.00    +0.000 N 
ATOM      9  C   UNL     1       5.576   6.431  17.352  0.00  0.00    +0.000 A 
ATOM     10  C   UNL     1       4.232   6.745  17.423  0.00  0.00    +0.000 A 
ATOM     11  C   UNL     1       3.515   5.560  17.719  0.00  0.00    +0.000 A 
ATOM     12  C   UNL     1       2.144   5.263  17.850  0.00  0.00    +0.000 A 
ATOM     13  C   UNL     1       1.745   3.952  18.124  0.00  0.00    +0.000 A 
ATOM     14  C   UNL     1       2.691   2.944  18.272  0.00  0.00    +0.000 A 
ATOM     15  C   UNL     1       4.059   3.215  18.148  0.00  0.00    +0.000 A 
ATOM     16  C   UNL     1       4.453   4.535  17.868  0.00  0.00    +0.000 A 
ATOM     17  C   UNL     1       6.718   7.298  16.951  0.00  0.00    +0.000 C 
ATOM     18  H   UNL     1       9.270   8.350  19.804  0.00  0.00    +0.000 HD
ENDROOT
BRANCH   1  28
ATOM     19  C   UNL     1      11.413  12.630  16.521  0.00  0.00    +0.000 C 
ATOM     20  N   UNL     1      11.273  13.170  17.862  0.00  0.00    +0.000 N 
ATOM     21  C   UNL     1      11.780  14.441  18.115  0.00  0.00    +0.000 A 
ATOM     22  O   UNL     1      12.333  15.153  17.279  0.00  0.00    +0.000 OA
ATOM     23  C   UNL     1      11.642  14.964  19.496  0.00  0.00    +0.000 A 
ATOM     24  C   UNL     1      11.049  14.257  20.462  0.00  0.00    +0.000 A 
ATOM     25  C   UNL     1      10.511  12.933  20.169  0.00  0.00    +0.000 A 
ATOM     26  C   UNL     1       9.878  12.197  21.173  0.00  0.00    +0.000 A 
ATOM     27  C   UNL     1       9.355  10.936  20.897  0.00  0.00    +0.000 A 
ATOM     28  C   UNL     1       9.442  10.388  19.620  0.00  0.00    +0.000 A 
ATOM     29  C   UNL     1      10.100  11.118  18.618  0.00  0.00    +0.000 A 
ATOM     30  C   UNL     1      10.629  12.396  18.877  0.00  0.00    +0.000 A 
ENDBRANCH   1  28
TORSDOF 1
ENDMDL
MODEL 2
REMARK VINA RESULT:      -9.6      1.679      2.399
REMARK  Name = 
REMARK  2 active torsions:
REMARK  status: ('A' for Active; 'I' for Inactive)
REMARK    1  A    between atoms: C_1  and  N_2
REMARK    2  A    between atoms: C_10  and  N_11
REMARK                            x       y       z     vdW  Elec       q    Type
REMARK                         _______ _______ _______ _____ _____    ______ ____
ROOT
ATOM      1  N   UNL     1       8.832   8.983  19.029  0.00  0.00    +0.000 N 
ATOM      2  C   UNL     1       7.984   8.681  17.982  0.00  0.00    +0.000 C 
ATOM      3  O   UNL     1       7.677   9.496  17.111  0.00  0.00    +0.000 OA
ATOM      4  N   UNL     1       7.492   7.377  17.933  0.00  0.00    +0.000 N 
ATOM      5  C   UNL     1       7.833   6.285  18.853  0.00  0.00    +0.000 C 
ATOM      6  C   UNL     1       8.021   4.940  18.159  0.00  0.00    +0.000 C 
ATOM      7  C   UNL     1       6.737   4.199  17.772  0.00  0.00    +0.000 C 
ATOM      8  N   UNL     1       5.503   4.958  17.711  0.00  0.00    +0.000 N 
ATOM      9  C   UNL     1       5.389   6.277  17.336  0.00  0.00    +0.000 A 
ATOM     10  C   UNL     1       4.055   6.622  17.437  0.00  0.00    +0.000 A 
ATOM     11  C   UNL     1       3.325   5.466  17.810  0.00  0.00    +0.000 A 
ATOM     12  C   UNL     1       1.954   5.205  17.999  0.00  0.00    +0.000 A 
ATOM     13  C   UNL     1       1.539   3.916  18.345  0.00  0.00    +0.000 A 
ATOM     14  C   UNL     1       2.470   2.896  18.508  0.00  0.00    +0.000 A 
ATOM     15  C   UNL     1       3.837   3.133  18.327  0.00  0.00    +0.000 A 
ATOM     16  C   UNL     1       4.247   4.430  17.975  0.00  0.00    +0.000 A 
ATOM     17  C   UNL     1       6.534   7.102  16.859  0.00  0.00    +0.000 C 
ATOM     18  H   UNL     1       9.200   8.226  19.577  0.00  0.00    +0.000 HD
ENDROOT
BRANCH   1  28
ATOM     19  C   UNL     1       7.936  12.442  22.694  0.00  0.00    +0.000 C 
ATOM     20  N   UNL     1       9.010  12.969  21.871  0.00  0.00    +0.000 N 
ATOM     21  C   UNL     1       9.564  14.197  22.220  0.00  0.00    +0.000 A 
ATOM     22  O   UNL     1       9.217  14.871  23.188  0.00  0.00    +0.000 OA
ATOM     23  C   UNL     1      10.646  14.723  21.354  0.00  0.00    +0.000 A 
ATOM     24  C   UNL     1      11.087  14.051  20.287  0.00  0.00    +0.000 A 
ATOM     25  C   UNL     1      10.501  12.758  19.949  0.00  0.00    +0.000 A 
ATOM     26  C   UNL     1      10.968  12.046  18.842  0.00  0.00    +0.000 A 
ATOM     27  C   UNL     1      10.419  10.807  18.521  0.00  0.00    +0.000 A 
ATOM     28  C   UNL     1       9.405  10.249  19.295  0.00  0.00    +0.000 A 
ATOM     29  C   UNL     1       8.919  10.977  20.393  0.00  0.00    +0.000 A 
ATOM     30  C   UNL     1       9.466  12.227  20.737  0.00  0.00    +0.000 A 
ENDBRANCH   1  28
TORSDOF 1
ENDMDL
MODEL 3
REMARK VINA RESULT:      -8.8      5.990      9.947
REMARK  Name = 
REMARK  2 active torsions:
REMARK  status: ('A' for Active; 'I' for Inactive)
REMARK    1  A    between atoms: C_1  and  N_2
REMARK    2  A    between atoms: C_10  and  N_11
REMARK                            x       y       z     vdW  Elec       q    Type
REMARK                         _______ _______ _______ _____ _____    ______ ____
ROOT
ATOM      1  N   UNL     1       2.047   7.899  19.315  0.00  0.00    +0.000 N 
ATOM      2  C   UNL     1       1.410   8.980  18.738  0.00  0.00    +0.000 C 
ATOM      3  O   UNL     1       1.223   9.077  17.524  0.00  0.00    +0.000 OA
ATOM      4  N   UNL     1       0.956   9.973  19.604  0.00  0.00    +0.000 N 
ATOM      5  C   UNL     1       1.040   9.952  21.070  0.00  0.00    +0.000 C 
ATOM      6  C   UNL     1      -0.212  10.485  21.758  0.00  0.00    +0.000 C 
ATOM      7  C   UNL     1      -0.360  12.009  21.800  0.00  0.00    +0.000 C 
ATOM      8  N   UNL     1       0.434  12.796  20.875  0.00  0.00    +0.000 N 
ATOM      9  C   UNL     1       0.798  12.415  19.605  0.00  0.00    +0.000 A 
ATOM     10  C   UNL     1       1.565  13.433  19.071  0.00  0.00    +0.000 A 
ATOM     11  C   UNL     1       1.607  14.495  20.010  0.00  0.00    +0.000 A 
ATOM     12  C   UNL     1       2.175  15.784  19.991  0.00  0.00    +0.000 A 
ATOM     13  C   UNL     1       2.010  16.626  21.094  0.00  0.00    +0.000 A 
ATOM     14  C   UNL     1       1.295  16.198  22.207  0.00  0.00    +0.000 A 
ATOM     15  C   UNL     1       0.724  14.921  22.249  0.00  0.00    +0.000 A 
ATOM     16  C   UNL     1       0.890  14.080  21.135  0.00  0.00    +0.000 A 
ATOM     17  C   UNL     1       0.355  11.146  18.964  0.00  0.00    +0.000 C 
ATOM     18  H   UNL     1       1.981   7.785  20.311  0.00  0.00    +0.000 HD
ENDROOT
BRANCH   1  28
ATOM     19  C   UNL     1       6.647   7.256  17.166  0.00  0.00    +0.000 C 
ATOM     20  N   UNL     1       5.920   6.012  16.985  0.00  0.00    +0.000 N 
ATOM     21  C   UNL     1       6.565   4.960  16.342  0.00  0.00    +0.000 A 
ATOM     22  O   UNL     1       7.720   5.002  15.919  0.00  0.00    +0.000 OA
ATOM     23  C   UNL     1       5.797   3.707  16.152  0.00  0.00    +0.000 A 
ATOM     24  C   UNL     1       4.540   3.576  16.587  0.00  0.00    +0.000 A 
ATOM     25  C   UNL     1       3.890   4.687  17.273  0.00  0.00    +0.000 A 
ATOM     26  C   UNL     1       2.581   4.550  17.740  0.00  0.00    +0.000 A 
ATOM     27  C   UNL     1       1.958   5.604  18.404  0.00  0.00    +0.000 A 
ATOM     28  C   UNL     1       2.623   6.807  18.624  0.00  0.00    +0.000 A 
ATOM     29  C   UNL     1       3.930   6.952  18.131  0.00  0.00    +0.000 A 
ATOM     30  C   UNL     1       4.578   5.897  17.464  0.00  0.00    +0.000 A 
ENDBRANCH   1  28
TORSDOF 1
ENDMDL
MODEL 4
REMARK VINA RESULT:      -8.7      1.405      1.488
REMARK  Name = 
REMARK  2 active torsions:
REMARK  status: ('A' for Active; 'I' for Inactive)
REMARK    1  A    between atoms: C_1  and  N_2
REMARK    2  A    between atoms: C_10  and  N_11
REMARK                            x       y       z     vdW  Elec       q    Type
REMARK                         _______ _______ _______ _____ _____    ______ ____
ROOT
ATOM      1  N   UNL     1       8.865   9.212  19.053  0.00  0.00    +0.000 N 
ATOM      2  C   UNL     1       8.059   8.854  17.990  0.00  0.00    +0.000 C 
ATOM      3  O   UNL     1       7.782   9.624  17.070  0.00  0.00    +0.000 OA
ATOM      4  N   UNL     1       7.575   7.546  17.987  0.00  0.00    +0.000 N 
ATOM      5  C   UNL     1       7.885   6.502  18.971  0.00  0.00    +0.000 C 
ATOM      6  C   UNL     1       8.104   5.126  18.351  0.00  0.00    +0.000 C 
ATOM      7  C   UNL     1       6.840   4.360  17.952  0.00  0.00    +0.000 C 
ATOM      8  N   UNL     1       5.605   5.107  17.809  0.00  0.00    +0.000 N 
ATOM      9  C   UNL     1       5.500   6.406  17.365  0.00  0.00    +0.000 A 
ATOM     10  C   UNL     1       4.162   6.748  17.399  0.00  0.00    +0.000 A 
ATOM     11  C   UNL     1       3.423   5.607  17.800  0.00  0.00    +0.000 A 
ATOM     12  C   UNL     1       2.047   5.346  17.950  0.00  0.00    +0.000 A 
ATOM     13  C   UNL     1       1.624   4.073  18.343  0.00  0.00    +0.000 A 
ATOM     14  C   UNL     1       2.552   3.068  18.590  0.00  0.00    +0.000 A 
ATOM     15  C   UNL     1       3.925   3.304  18.449  0.00  0.00    +0.000 A 
ATOM     16  C   UNL     1       4.343   4.585  18.050  0.00  0.00    +0.000 A 
ATOM     17  C   UNL     1       6.659   7.213  16.892  0.00  0.00    +0.000 C 
ATOM     18  H   UNL     1       9.215   8.484  19.650  0.00  0.00    +0.000 HD
ENDROOT
BRANCH   1  28
ATOM     19  C   UNL     1       7.412  13.885  17.555  0.00  0.00    +0.000 C 
ATOM     20  N   UNL     1       8.602  14.055  18.371  0.00  0.00    +0.000 N 
ATOM     21  C   UNL     1       9.067  15.347  18.595  0.00  0.00    +0.000 A 
ATOM     22  O   UNL     1       8.536  16.367  18.159  0.00  0.00    +0.000 OA
ATOM     23  C   UNL     1      10.294  15.494  19.414  0.00  0.00    +0.000 A 
ATOM     24  C   UNL     1      10.929  14.438  19.931  0.00  0.00    +0.000 A 
ATOM     25  C   UNL     1      10.414  13.094  19.696  0.00  0.00    +0.000 A 
ATOM     26  C   UNL     1      11.067  11.988  20.244  0.00  0.00    +0.000 A 
ATOM     27  C   UNL     1      10.574  10.703  20.031  0.00  0.00    +0.000 A 
ATOM     28  C   UNL     1       9.423  10.493  19.278  0.00  0.00    +0.000 A 
ATOM     29  C   UNL     1       8.781  11.602  18.705  0.00  0.00    +0.000 A 
ATOM     30  C   UNL     1       9.260  12.908  18.916  0.00  0.00    +0.000 A 
ENDBRANCH   1  28
TORSDOF 1
ENDMDL
MODEL 5
REMARK VINA RESULT:      -8.6      7.237     11.157
REMARK  Name = 
REMARK  2 active torsions:
REMARK  status: ('A' for Active; 'I' for Inactive)
REMARK    1  A    between atoms: C_1  and  N_2
REMARK    2  A    between atoms: C_10  and  N_11
REMARK                            x       y       z     vdW  Elec       q    Type
REMARK                         _______ _______ _______ _____ _____    ______ ____
ROOT
ATOM      1  N   UNL     1       1.516   8.477  20.191  0.00  0.00    +0.000 N 
ATOM      2  C   UNL     1       0.641   9.453  19.759  0.00  0.00    +0.000 C 
ATOM      3  O   UNL     1       0.356   9.619  18.572  0.00  0.00    +0.000 OA
ATOM      4  N   UNL     1       0.061  10.252  20.743  0.00  0.00    +0.000 N 
ATOM      5  C   UNL     1       0.247  10.117  22.193  0.00  0.00    +0.000 C 
ATOM      6  C   UNL     1      -1.035  10.321  22.993  0.00  0.00    +0.000 C 
ATOM      7  C   UNL     1      -1.477  11.773  23.196  0.00  0.00    +0.000 C 
ATOM      8  N   UNL     1      -0.920  12.785  22.318  0.00  0.00    +0.000 N 
ATOM      9  C   UNL     1      -0.576  12.601  20.999  0.00  0.00    +0.000 A 
ATOM     10  C   UNL     1      -0.063  13.797  20.534  0.00  0.00    +0.000 A 
ATOM     11  C   UNL     1      -0.167  14.757  21.572  0.00  0.00    +0.000 A 
ATOM     12  C   UNL     1       0.133  16.131  21.656  0.00  0.00    +0.000 A 
ATOM     13  C   UNL     1      -0.119  16.820  22.846  0.00  0.00    +0.000 A 
ATOM     14  C   UNL     1      -0.657  16.158  23.943  0.00  0.00    +0.000 A 
ATOM     15  C   UNL     1      -0.961  14.793  23.884  0.00  0.00    +0.000 A 
ATOM     16  C   UNL     1      -0.709  14.106  22.684  0.00  0.00    +0.000 A 
ATOM     17  C   UNL     1      -0.802  11.331  20.255  0.00  0.00    +0.000 C 
ATOM     18  H   UNL     1       1.543   8.263  21.172  0.00  0.00    +0.000 HD
ENDROOT
BRANCH   1  28
ATOM     19  C   UNL     1       2.367   3.439  20.489  0.00  0.00    +0.000 C 
ATOM     20  N   UNL     1       3.025   3.906  19.282  0.00  0.00    +0.000 N 
ATOM     21  C   UNL     1       3.682   2.972  18.487  0.00  0.00    +0.000 A 
ATOM     22  O   UNL     1       3.741   1.767  18.727  0.00  0.00    +0.000 OA
ATOM     23  C   UNL     1       4.362   3.476  17.270  0.00  0.00    +0.000 A 
ATOM     24  C   UNL     1       4.342   4.769  16.934  0.00  0.00    +0.000 A 
ATOM     25  C   UNL     1       3.633   5.727  17.774  0.00  0.00    +0.000 A 
ATOM     26  C   UNL     1       3.598   7.078  17.419  0.00  0.00    +0.000 A 
ATOM     27  C   UNL     1       2.915   7.996  18.212  0.00  0.00    +0.000 A 
ATOM     28  C   UNL     1       2.248   7.591  19.365  0.00  0.00    +0.000 A 
ATOM     29  C   UNL     1       2.305   6.238  19.735  0.00  0.00    +0.000 A 
ATOM     30  C   UNL     1       2.984   5.294  18.942  0.00  0.00    +0.000 A 
ENDBRANCH   1  28
TORSDOF 1
ENDMDL
MODEL 6
REMARK VINA RESULT:      -8.5      7.453     10.824
REMARK  Name = 
REMARK  2 active torsions:
REMARK  status: ('A' for Active; 'I' for Inactive)
REMARK    1  A    between atoms: C_1  and  N_2
REMARK    2  A    between atoms: C_10  and  N_11
REMARK                            x       y       z     vdW  Elec       q    Type
REMARK                         _______ _______ _______ _____ _____    ______ ____
ROOT
ATOM      1  N   UNL     1       0.912   8.470  19.938  0.00  0.00    +0.000 N 
ATOM      2  C   UNL     1       0.922   9.406  20.953  0.00  0.00    +0.000 C 
ATOM      3  O   UNL     1       1.646   9.312  21.945  0.00  0.00    +0.000 OA
ATOM      4  N   UNL     1       0.075  10.503  20.799  0.00  0.00    +0.000 N 
ATOM      5  C   UNL     1      -0.780  10.784  19.640  0.00  0.00    +0.000 C 
ATOM      6  C   UNL     1      -0.802  12.257  19.242  0.00  0.00    +0.000 C 
ATOM      7  C   UNL     1      -1.683  13.171  20.100  0.00  0.00    +0.000 C 
ATOM      8  N   UNL     1      -2.088  12.696  21.409  0.00  0.00    +0.000 N 
ATOM      9  C   UNL     1      -1.342  11.888  22.236  0.00  0.00    +0.000 A 
ATOM     10  C   UNL     1      -2.094  11.650  23.370  0.00  0.00    +0.000 A 
ATOM     11  C   UNL     1      -3.298  12.391  23.267  0.00  0.00    +0.000 A 
ATOM     12  C   UNL     1      -4.395  12.582  24.130  0.00  0.00    +0.000 A 
ATOM     13  C   UNL     1      -5.442  13.422  23.738  0.00  0.00    +0.000 A 
ATOM     14  C   UNL     1      -5.407  14.064  22.505  0.00  0.00    +0.000 A 
ATOM     15  C   UNL     1      -4.328  13.887  21.631  0.00  0.00    +0.000 A 
ATOM     16  C   UNL     1      -3.277  13.045  22.033  0.00  0.00    +0.000 A 
ATOM     17  C   UNL     1       0.044  11.442  21.924  0.00  0.00    +0.000 C 
ATOM     18  H   UNL     1       0.460   8.711  19.074  0.00  0.00    +0.000 HD
ENDROOT
BRANCH   1  28
ATOM     19  C   UNL     1       4.714   6.862  16.914  0.00  0.00    +0.000 C 
ATOM     20  N   UNL     1       4.478   5.811  17.888  0.00  0.00    +0.000 N 
ATOM     21  C   UNL     1       5.279   4.675  17.837  0.00  0.00    +0.000 A 
ATOM     22  O   UNL     1       6.188   4.496  17.028  0.00  0.00    +0.000 OA
ATOM     23  C   UNL     1       5.007   3.608  18.829  0.00  0.00    +0.000 A 
ATOM     24  C   UNL     1       4.042   3.725  19.746  0.00  0.00    +0.000 A 
ATOM     25  C   UNL     1       3.225   4.933  19.791  0.00  0.00    +0.000 A 
ATOM     26  C   UNL     1       2.224   5.066  20.755  0.00  0.00    +0.000 A 
ATOM     27  C   UNL     1       1.448   6.221  20.808  0.00  0.00    +0.000 A 
ATOM     28  C   UNL     1       1.654   7.266  19.912  0.00  0.00    +0.000 A 
ATOM     29  C   UNL     1       2.643   7.120  18.926  0.00  0.00    +0.000 A 
ATOM     30  C   UNL     1       3.443   5.965  18.862  0.00  0.00    +0.000 A 
ENDBRANCH   1  28
TORSDOF 1
ENDMDL
MODEL 7
REMARK VINA RESULT:      -8.5      7.019     11.113
REMARK  Name = 
REMARK  2 active torsions:
REMARK  status: ('A' for Active; 'I' for Inactive)
REMARK    1  A    between atoms: C_1  and  N_2
REMARK    2  A    between atoms: C_10  and  N_11
REMARK                            x       y       z     vdW  Elec       q    Type
REMARK                         _______ _______ _______ _____ _____    ______ ____
ROOT
ATOM      1  N   UNL     1       1.825   8.688  19.422  0.00  0.00    +0.000 N 
ATOM      2  C   UNL     1       0.842   9.456  18.830  0.00  0.00    +0.000 C 
ATOM      3  O   UNL     1       0.402   9.228  17.702  0.00  0.00    +0.000 OA
ATOM      4  N   UNL     1       0.337  10.514  19.585  0.00  0.00    +0.000 N 
ATOM      5  C   UNL     1       0.709  10.853  20.964  0.00  0.00    +0.000 C 
ATOM      6  C   UNL     1      -0.476  11.273  21.828  0.00  0.00    +0.000 C 
ATOM      7  C   UNL     1      -0.982  12.704  21.624  0.00  0.00    +0.000 C 
ATOM      8  N   UNL     1      -0.604  13.395  20.406  0.00  0.00    +0.000 N 
ATOM      9  C   UNL     1      -0.414  12.807  19.177  0.00  0.00    +0.000 A 
ATOM     10  C   UNL     1      -0.042  13.804  18.295  0.00  0.00    +0.000 A 
ATOM     11  C   UNL     1      -0.078  15.042  18.984  0.00  0.00    +0.000 A 
ATOM     12  C   UNL     1       0.139  16.377  18.591  0.00  0.00    +0.000 A 
ATOM     13  C   UNL     1      -0.008  17.404  19.528  0.00  0.00    +0.000 A 
ATOM     14  C   UNL     1      -0.363  17.115  20.841  0.00  0.00    +0.000 A 
ATOM     15  C   UNL     1      -0.582  15.796  21.254  0.00  0.00    +0.000 A 
ATOM     16  C   UNL     1      -0.436  14.768  20.307  0.00  0.00    +0.000 A 
ATOM     17  C   UNL     1      -0.648  11.361  18.907  0.00  0.00    +0.000 C 
ATOM     18  H   UNL     1       1.986   8.800  20.407  0.00  0.00    +0.000 HD
ENDROOT
BRANCH   1  28
ATOM     19  C   UNL     1       1.512   3.633  20.159  0.00  0.00    +0.000 C 
ATOM     20  N   UNL     1       2.486   3.846  19.102  0.00  0.00    +0.000 N 
ATOM     21  C   UNL     1       3.078   2.729  18.520  0.00  0.00    +0.000 A 
ATOM     22  O   UNL     1       2.830   1.565  18.829  0.00  0.00    +0.000 OA
ATOM     23  C   UNL     1       4.082   2.971  17.456  0.00  0.00    +0.000 A 
ATOM     24  C   UNL     1       4.405   4.205  17.057  0.00  0.00    +0.000 A 
ATOM     25  C   UNL     1       3.759   5.360  17.671  0.00  0.00    +0.000 A 
ATOM     26  C   UNL     1       4.084   6.651  17.248  0.00  0.00    +0.000 A 
ATOM     27  C   UNL     1       3.463   7.756  17.824  0.00  0.00    +0.000 A 
ATOM     28  C   UNL     1       2.505   7.602  18.823  0.00  0.00    +0.000 A 
ATOM     29  C   UNL     1       2.198   6.305  19.265  0.00  0.00    +0.000 A 
ATOM     30  C   UNL     1       2.809   5.176  18.690  0.00  0.00    +0.000 A 
ENDBRANCH   1  28
TORSDOF 1
ENDMDL
MODEL 8
REMARK VINA RESULT:      -8.4      7.511     11.076
REMARK  Name = 
REMARK  2 active torsions:
REMARK  status: ('A' for Active; 'I' for Inactive)
REMARK    1  A    between atoms: C_1  and  N_2
REMARK    2  A    between atoms: C_10  and  N_11
REMARK                            x       y       z     vdW  Elec       q    Type
REMARK                         _______ _______ _______ _____ _____    ______ ____
ROOT
ATOM      1  N   UNL     1       0.848   9.098  18.890  0.00  0.00    +0.000 N 
ATOM      2  C   UNL     1       0.892  10.139  19.795  0.00  0.00    +0.000 C 
ATOM      3  O   UNL     1       1.885  10.390  20.480  0.00  0.00    +0.000 OA
ATOM      4  N   UNL     1      -0.252  10.930  19.894  0.00  0.00    +0.000 N 
ATOM      5  C   UNL     1      -1.472  10.796  19.090  0.00  0.00    +0.000 C 
ATOM      6  C   UNL     1      -2.066  12.133  18.658  0.00  0.00    +0.000 C 
ATOM      7  C   UNL     1      -2.865  12.889  19.725  0.00  0.00    +0.000 C 
ATOM      8  N   UNL     1      -2.671  12.518  21.114  0.00  0.00    +0.000 N 
ATOM      9  C   UNL     1      -1.493  12.072  21.667  0.00  0.00    +0.000 A 
ATOM     10  C   UNL     1      -1.737  11.806  23.001  0.00  0.00    +0.000 A 
ATOM     11  C   UNL     1      -3.077  12.170  23.287  0.00  0.00    +0.000 A 
ATOM     12  C   UNL     1      -3.848  12.180  24.466  0.00  0.00    +0.000 A 
ATOM     13  C   UNL     1      -5.168  12.638  24.422  0.00  0.00    +0.000 A 
ATOM     14  C   UNL     1      -5.722  13.078  23.226  0.00  0.00    +0.000 A 
ATOM     15  C   UNL     1      -4.976  13.075  22.042  0.00  0.00    +0.000 A 
ATOM     16  C   UNL     1      -3.648  12.618  22.093  0.00  0.00    +0.000 A 
ATOM     17  C   UNL     1      -0.210  11.979  20.917  0.00  0.00    +0.000 C 
ATOM     18  H   UNL     1       0.095   9.078  18.225  0.00  0.00    +0.000 HD
ENDROOT
BRANCH   1  28
ATOM     19  C   UNL     1       1.825   4.545  21.013  0.00  0.00    +0.000 C 
ATOM     20  N   UNL     1       2.839   4.761  19.996  0.00  0.00    +0.000 N 
ATOM     21  C   UNL     1       3.787   3.764  19.790  0.00  0.00    +0.000 A 
ATOM     22  O   UNL     1       3.825   2.698  20.402  0.00  0.00    +0.000 OA
ATOM     23  C   UNL     1       4.823   4.016  18.760  0.00  0.00    +0.000 A 
ATOM     24  C   UNL     1       4.849   5.145  18.046  0.00  0.00    +0.000 A 
ATOM     25  C   UNL     1       3.835   6.170  18.269  0.00  0.00    +0.000 A 
ATOM     26  C   UNL     1       3.851   7.346  17.516  0.00  0.00    +0.000 A 
ATOM     27  C   UNL     1       2.880   8.323  17.718  0.00  0.00    +0.000 A 
ATOM     28  C   UNL     1       1.873   8.149  18.663  0.00  0.00    +0.000 A 
ATOM     29  C   UNL     1       1.873   6.978  19.438  0.00  0.00    +0.000 A 
ATOM     30  C   UNL     1       2.841   5.976  19.242  0.00  0.00    +0.000 A 
ENDBRANCH   1  28
TORSDOF 1
ENDMDL
MODEL 9
REMARK VINA RESULT:      -8.4      6.193     10.478
REMARK  Name = 
REMARK  2 active torsions:
REMARK  status: ('A' for Active; 'I' for Inactive)
REMARK    1  A    between atoms: C_1  and  N_2
REMARK    2  A    between atoms: C_10  and  N_11
REMARK                            x       y       z     vdW  Elec       q    Type
REMARK                         _______ _______ _______ _____ _____    ______ ____
ROOT
ATOM      1  N   UNL     1       1.671   8.320  20.053  0.00  0.00    +0.000 N 
ATOM      2  C   UNL     1       1.218   9.286  19.176  0.00  0.00    +0.000 C 
ATOM      3  O   UNL     1       1.061   9.077  17.972  0.00  0.00    +0.000 OA
ATOM      4  N   UNL     1       0.918  10.533  19.721  0.00  0.00    +0.000 N 
ATOM      5  C   UNL     1       0.983  10.899  21.141  0.00  0.00    +0.000 C 
ATOM      6  C   UNL     1      -0.177  11.779  21.597  0.00  0.00    +0.000 C 
ATOM      7  C   UNL     1      -0.082  13.262  21.221  0.00  0.00    +0.000 C 
ATOM      8  N   UNL     1       0.834  13.641  20.163  0.00  0.00    +0.000 N 
ATOM      9  C   UNL     1       1.146  12.879  19.061  0.00  0.00    +0.000 A 
ATOM     10  C   UNL     1       2.069  13.588  18.316  0.00  0.00    +0.000 A 
ATOM     11  C   UNL     1       2.269  14.846  18.938  0.00  0.00    +0.000 A 
ATOM     12  C   UNL     1       3.033  15.982  18.605  0.00  0.00    +0.000 A 
ATOM     13  C   UNL     1       2.992  17.107  19.433  0.00  0.00    +0.000 A 
ATOM     14  C   UNL     1       2.207  17.109  20.581  0.00  0.00    +0.000 A 
ATOM     15  C   UNL     1       1.442  15.991  20.933  0.00  0.00    +0.000 A 
ATOM     16  C   UNL     1       1.484  14.864  20.094  0.00  0.00    +0.000 A 
ATOM     17  C   UNL     1       0.515  11.564  18.760  0.00  0.00    +0.000 C 
ATOM     18  H   UNL     1       1.578   8.492  21.038  0.00  0.00    +0.000 HD
ENDROOT
BRANCH   1  28
ATOM     19  C   UNL     1       4.817   6.552  16.425  0.00  0.00    +0.000 C 
ATOM     20  N   UNL     1       4.352   5.400  17.177  0.00  0.00    +0.000 N 
ATOM     21  C   UNL     1       4.829   4.143  16.818  0.00  0.00    +0.000 A 
ATOM     22  O   UNL     1       5.631   3.933  15.909  0.00  0.00    +0.000 OA
ATOM     23  C   UNL     1       4.326   2.980  17.588  0.00  0.00    +0.000 A 
ATOM     24  C   UNL     1       3.458   3.122  18.594  0.00  0.00    +0.000 A 
ATOM     25  C   UNL     1       2.983   4.451  18.963  0.00  0.00    +0.000 A 
ATOM     26  C   UNL     1       2.086   4.605  20.021  0.00  0.00    +0.000 A 
ATOM     27  C   UNL     1       1.637   5.872  20.384  0.00  0.00    +0.000 A 
ATOM     28  C   UNL     1       2.074   7.008  19.709  0.00  0.00    +0.000 A 
ATOM     29  C   UNL     1       2.956   6.851  18.628  0.00  0.00    +0.000 A 
ATOM     30  C   UNL     1       3.426   5.579  18.252  0.00  0.00    +0.000 A 
ENDBRANCH   1  28
TORSDOF 1
ENDMDL
