MODEL 1
REMARK VINA RESULT:      -8.1      0.000      0.000
REMARK  Name = 
REMARK  6 active torsions:
REMARK  status: ('A' for Active; 'I' for Inactive)
REMARK    1  A    between atoms: C_2  and  C_16
REMARK    2  A    between atoms: N_3  and  C_4
REMARK    3  A    between atoms: C_10  and  N_11
REMARK    4  A    between atoms: C_19  and  C_20
REMARK    5  A    between atoms: C_20  and  O_21
REMARK    6  A    between atoms: O_21  and  C_22
REMARK                            x       y       z     vdW  Elec       q    Type
REMARK                         _______ _______ _______ _____ _____    ______ ____
ROOT
ATOM      1  O   UNL     1       4.176   2.291  17.311  0.00  0.00    +0.000 OA
ATOM      2  C   UNL     1       3.811   3.449  17.519  0.00  0.00    +0.000 C 
ATOM      3  N   UNL     1       4.299   4.543  16.813  0.00  0.00    +0.000 N 
ATOM      4  H   UNL     1       4.099   5.467  17.208  0.00  0.00    +0.000 HD
ENDROOT
BRANCH   3   5
ATOM      5  C   UNL     1       5.241   4.498  15.740  0.00  0.00    +0.000 A 
ATOM      6  C   UNL     1       4.864   3.982  14.484  0.00  0.00    +0.000 A 
ATOM      7  C   UNL     1       5.774   3.870  13.434  0.00  0.00    +0.000 A 
ATOM      8 CL   UNL     1       5.279   3.178  11.937  0.00  0.00    +0.000 Cl
ATOM      9  C   UNL     1       7.077   4.308  13.590  0.00  0.00    +0.000 A 
ATOM     10  C   UNL     1       7.473   4.863  14.807  0.00  0.00    +0.000 A 
ATOM     11  C   UNL     1       6.573   4.960  15.893  0.00  0.00    +0.000 A 
BRANCH  11  12
ATOM     12  N   UNL     1       7.063   5.476  17.129  0.00  0.00    +0.000 N 
ATOM     13  C   UNL     1       7.472   6.759  17.425  0.00  0.00    +0.000 A 
ATOM     14  N   UNL     1       7.919   6.833  18.657  0.00  0.00    +0.000 NA
ATOM     15  C   UNL     1       7.760   5.560  19.107  0.00  0.00    +0.000 A 
ATOM     16  N   UNL     1       7.226   4.703  18.235  0.00  0.00    +0.000 NA
ENDBRANCH  11  12
ENDBRANCH   3   5
BRANCH   2  17
ATOM     17  C   UNL     1       2.855   3.715  18.579  0.00  0.00    +0.000 A 
ATOM     18  C   UNL     1       1.812   2.906  18.994  0.00  0.00    +0.000 A 
ATOM     19  C   UNL     1       1.128   3.595  20.013  0.00  0.00    +0.000 A 
ATOM     20  C   UNL     1       1.768   4.809  20.152  0.00  0.00    +0.000 A 
ATOM     21  O   UNL     1       2.839   4.887  19.295  0.00  0.00    +0.000 OA
BRANCH  20  22
ATOM     22  C   UNL     1       1.420   6.007  20.961  0.00  0.00    +0.000 C 
BRANCH  22  23
ATOM     23  O   UNL     1       2.297   7.070  20.593  0.00  0.00    +0.000 OA
BRANCH  23  24
ATOM     24  C   UNL     1       1.728   8.084  19.862  0.00  0.00    +0.000 A 
ATOM     25  C   UNL     1       1.934   8.327  18.502  0.00  0.00    +0.000 A 
ATOM     26  C   UNL     1       1.284   9.388  17.862  0.00  0.00    +0.000 A 
ATOM     27  C   UNL     1       0.428  10.218  18.583  0.00  0.00    +0.000 A 
ATOM     28  C   UNL     1       0.220   9.987  19.940  0.00  0.00    +0.000 A 
ATOM     29  C   UNL     1       0.865   8.923  20.577  0.00  0.00    +0.000 A 
ENDBRANCH  23  24
ENDBRANCH  22  23
ENDBRANCH  20  22
ENDBRANCH   2  17
TORSDOF 6
ENDMDL
MODEL 2
REMARK VINA RESULT:      -7.9      1.686      2.208
REMARK  Name = 
REMARK  6 active torsions:
REMARK  status: ('A' for Active; 'I' for Inactive)
REMARK    1  A    between atoms: C_2  and  C_16
REMARK    2  A    between atoms: N_3  and  C_4
REMARK    3  A    between atoms: C_10  and  N_11
REMARK    4  A    between atoms: C_19  and  C_20
REMARK    5  A    between atoms: C_20  and  O_21
REMARK    6  A    between atoms: O_21  and  C_22
REMARK                            x       y       z     vdW  Elec       q    Type
REMARK                         _______ _______ _______ _____ _____    ______ ____
ROOT
ATOM      1  O   UNL     1       4.073   7.105  17.211  0.00  0.00    +0.000 OA
ATOM      2  C   UNL     1       3.884   5.989  17.696  0.00  0.00    +0.000 C 
ATOM      3  N   UNL     1       4.427   4.823  17.166  0.00  0.00    +0.000 N 
ATOM      4  H   UNL     1       4.033   3.941  17.507  0.00  0.00    +0.000 HD
ENDROOT
BRANCH   3   5
ATOM      5  C   UNL     1       5.296   4.740  16.036  0.00  0.00    +0.000 A 
ATOM      6  C   UNL     1       4.828   4.212  14.816  0.00  0.00    +0.000 A 
ATOM      7  C   UNL     1       5.664   4.063  13.711  0.00  0.00    +0.000 A 
ATOM      8 CL   UNL     1       5.059   3.358  12.262  0.00  0.00    +0.000 Cl
ATOM      9  C   UNL     1       6.984   4.474  13.775  0.00  0.00    +0.000 A 
ATOM     10  C   UNL     1       7.470   5.040  14.954  0.00  0.00    +0.000 A 
ATOM     11  C   UNL     1       6.644   5.175  16.094  0.00  0.00    +0.000 A 
BRANCH  11  12
ATOM     12  N   UNL     1       7.225   5.699  17.287  0.00  0.00    +0.000 N 
ATOM     13  C   UNL     1       7.642   6.987  17.547  0.00  0.00    +0.000 A 
ATOM     14  N   UNL     1       8.184   7.069  18.740  0.00  0.00    +0.000 NA
ATOM     15  C   UNL     1       8.074   5.797  19.204  0.00  0.00    +0.000 A 
ATOM     16  N   UNL     1       7.482   4.931  18.379  0.00  0.00    +0.000 NA
ENDBRANCH  11  12
ENDBRANCH   3   5
BRANCH   2  17
ATOM     17  C   UNL     1       3.018   5.853  18.853  0.00  0.00    +0.000 A 
ATOM     18  C   UNL     1       2.574   4.680  19.438  0.00  0.00    +0.000 A 
ATOM     19  C   UNL     1       1.720   5.038  20.498  0.00  0.00    +0.000 A 
ATOM     20  C   UNL     1       1.657   6.416  20.491  0.00  0.00    +0.000 A 
ATOM     21  O   UNL     1       2.463   6.927  19.503  0.00  0.00    +0.000 OA
BRANCH  20  22
ATOM     22  C   UNL     1       0.812   7.357  21.274  0.00  0.00    +0.000 C 
BRANCH  22  23
ATOM     23  O   UNL     1       1.512   8.594  21.398  0.00  0.00    +0.000 OA
BRANCH  23  24
ATOM     24  C   UNL     1       0.737   9.686  21.704  0.00  0.00    +0.000 A 
ATOM     25  C   UNL     1       0.752  10.912  21.035  0.00  0.00    +0.000 A 
ATOM     26  C   UNL     1      -0.098  11.950  21.433  0.00  0.00    +0.000 A 
ATOM     27  C   UNL     1      -0.963  11.769  22.511  0.00  0.00    +0.000 A 
ATOM     28  C   UNL     1      -0.981  10.552  23.187  0.00  0.00    +0.000 A 
ATOM     29  C   UNL     1      -0.136   9.514  22.785  0.00  0.00    +0.000 A 
ENDBRANCH  23  24
ENDBRANCH  22  23
ENDBRANCH  20  22
ENDBRANCH   2  17
TORSDOF 6
ENDMDL
MODEL 3
REMARK VINA RESULT:      -7.8      3.656      5.835
REMARK  Name = 
REMARK  6 active torsions:
REMARK  status: ('A' for Active; 'I' for Inactive)
REMARK    1  A    between atoms: C_2  and  C_16
REMARK    2  A    between atoms: N_3  and  C_4
REMARK    3  A    between atoms: C_10  and  N_11
REMARK    4  A    between atoms: C_19  and  C_20
REMARK    5  A    between atoms: C_20  and  O_21
REMARK    6  A    between atoms: O_21  and  C_22
REMARK                            x       y       z     vdW  Elec       q    Type
REMARK                         _______ _______ _______ _____ _____    ______ ____
ROOT
ATOM      1  O   UNL     1       1.928   7.991  17.925  0.00  0.00    +0.000 OA
ATOM      2  C   UNL     1       2.088   7.689  19.108  0.00  0.00    +0.000 C 
ATOM      3  N   UNL     1       2.796   6.566  19.522  0.00  0.00    +0.000 N 
ATOM      4  H   UNL     1       2.682   6.291  20.502  0.00  0.00    +0.000 HD
ENDROOT
BRANCH   3   5
ATOM      5  C   UNL     1       3.464   5.634  18.671  0.00  0.00    +0.000 A 
ATOM      6  C   UNL     1       4.200   6.088  17.558  0.00  0.00    +0.000 A 
ATOM      7  C   UNL     1       4.816   5.203  16.674  0.00  0.00    +0.000 A 
ATOM      8 CL   UNL     1       5.656   5.806  15.298  0.00  0.00    +0.000 Cl
ATOM      9  C   UNL     1       4.751   3.838  16.895  0.00  0.00    +0.000 A 
ATOM     10  C   UNL     1       4.065   3.356  18.010  0.00  0.00    +0.000 A 
ATOM     11  C   UNL     1       3.411   4.236  18.903  0.00  0.00    +0.000 A 
BRANCH  11  12
ATOM     12  N   UNL     1       2.672   3.670  19.984  0.00  0.00    +0.000 N 
ATOM     13  C   UNL     1       3.131   2.907  21.035  0.00  0.00    +0.000 A 
ATOM     14  N   UNL     1       2.137   2.517  21.797  0.00  0.00    +0.000 NA
ATOM     15  C   UNL     1       1.059   3.074  21.187  0.00  0.00    +0.000 A 
ATOM     16  N   UNL     1       1.324   3.802  20.100  0.00  0.00    +0.000 NA
ENDBRANCH  11  12
ENDBRANCH   3   5
BRANCH   2  17
ATOM     17  C   UNL     1       1.480   8.509  20.141  0.00  0.00    +0.000 A 
ATOM     18  C   UNL     1       1.311   8.191  21.477  0.00  0.00    +0.000 A 
ATOM     19  C   UNL     1       0.632   9.266  22.080  0.00  0.00    +0.000 A 
ATOM     20  C   UNL     1       0.389  10.179  21.075  0.00  0.00    +0.000 A 
ATOM     21  O   UNL     1       0.921   9.737  19.888  0.00  0.00    +0.000 OA
BRANCH  20  22
ATOM     22  C   UNL     1      -0.410  11.433  21.070  0.00  0.00    +0.000 C 
BRANCH  22  23
ATOM     23  O   UNL     1      -0.069  12.189  22.232  0.00  0.00    +0.000 OA
BRANCH  23  24
ATOM     24  C   UNL     1      -1.127  12.744  22.910  0.00  0.00    +0.000 A 
ATOM     25  C   UNL     1      -1.145  14.009  23.502  0.00  0.00    +0.000 A 
ATOM     26  C   UNL     1      -2.291  14.472  24.157  0.00  0.00    +0.000 A 
ATOM     27  C   UNL     1      -3.425  13.666  24.231  0.00  0.00    +0.000 A 
ATOM     28  C   UNL     1      -3.415  12.402  23.649  0.00  0.00    +0.000 A 
ATOM     29  C   UNL     1      -2.271  11.942  22.990  0.00  0.00    +0.000 A 
ENDBRANCH  23  24
ENDBRANCH  22  23
ENDBRANCH  20  22
ENDBRANCH   2  17
TORSDOF 6
ENDMDL
MODEL 4
REMARK VINA RESULT:      -7.8      3.119      5.347
REMARK  Name = 
REMARK  6 active torsions:
REMARK  status: ('A' for Active; 'I' for Inactive)
REMARK    1  A    between atoms: C_2  and  C_16
REMARK    2  A    between atoms: N_3  and  C_4
REMARK    3  A    between atoms: C_10  and  N_11
REMARK    4  A    between atoms: C_19  and  C_20
REMARK    5  A    between atoms: C_20  and  O_21
REMARK    6  A    between atoms: O_21  and  C_22
REMARK                            x       y       z     vdW  Elec       q    Type
REMARK                         _______ _______ _______ _____ _____    ______ ____
ROOT
ATOM      1  O   UNL     1       2.388   8.156  17.841  0.00  0.00    +0.000 OA
ATOM      2  C   UNL     1       2.221   7.704  18.974  0.00  0.00    +0.000 C 
ATOM      3  N   UNL     1       2.648   6.439  19.363  0.00  0.00    +0.000 N 
ATOM      4  H   UNL     1       2.269   6.081  20.245  0.00  0.00    +0.000 HD
ENDROOT
BRANCH   3   5
ATOM      5  C   UNL     1       3.363   5.507  18.550  0.00  0.00    +0.000 A 
ATOM      6  C   UNL     1       4.071   5.951  17.415  0.00  0.00    +0.000 A 
ATOM      7  C   UNL     1       4.731   5.062  16.568  0.00  0.00    +0.000 A 
ATOM      8 CL   UNL     1       5.533   5.648  15.163  0.00  0.00    +0.000 Cl
ATOM      9  C   UNL     1       4.740   3.707  16.848  0.00  0.00    +0.000 A 
ATOM     10  C   UNL     1       4.084   3.238  17.987  0.00  0.00    +0.000 A 
ATOM     11  C   UNL     1       3.386   4.120  18.844  0.00  0.00    +0.000 A 
BRANCH  11  12
ATOM     12  N   UNL     1       2.681   3.564  19.952  0.00  0.00    +0.000 N 
ATOM     13  C   UNL     1       3.185   2.887  21.041  0.00  0.00    +0.000 A 
ATOM     14  N   UNL     1       2.215   2.472  21.822  0.00  0.00    +0.000 NA
ATOM     15  C   UNL     1       1.105   2.926  21.183  0.00  0.00    +0.000 A 
ATOM     16  N   UNL     1       1.327   3.612  20.060  0.00  0.00    +0.000 NA
ENDBRANCH  11  12
ENDBRANCH   3   5
BRANCH   2  17
ATOM     17  C   UNL     1       1.505   8.495  19.959  0.00  0.00    +0.000 A 
ATOM     18  C   UNL     1       1.328   8.208  21.301  0.00  0.00    +0.000 A 
ATOM     19  C   UNL     1       0.529   9.232  21.845  0.00  0.00    +0.000 A 
ATOM     20  C   UNL     1       0.229  10.082  20.800  0.00  0.00    +0.000 A 
ATOM     21  O   UNL     1       0.837   9.653  19.645  0.00  0.00    +0.000 OA
BRANCH  20  22
ATOM     22  C   UNL     1      -0.687  11.250  20.727  0.00  0.00    +0.000 C 
BRANCH  22  23
ATOM     23  O   UNL     1      -0.748  11.692  19.371  0.00  0.00    +0.000 OA
BRANCH  23  24
ATOM     24  C   UNL     1      -1.915  11.407  18.706  0.00  0.00    +0.000 A 
ATOM     25  C   UNL     1      -3.172  11.946  18.994  0.00  0.00    +0.000 A 
ATOM     26  C   UNL     1      -4.290  11.588  18.233  0.00  0.00    +0.000 A 
ATOM     27  C   UNL     1      -4.159  10.681  17.183  0.00  0.00    +0.000 A 
ATOM     28  C   UNL     1      -2.911  10.136  16.892  0.00  0.00    +0.000 A 
ATOM     29  C   UNL     1      -1.793  10.498  17.649  0.00  0.00    +0.000 A 
ENDBRANCH  23  24
ENDBRANCH  22  23
ENDBRANCH  20  22
ENDBRANCH   2  17
TORSDOF 6
ENDMDL
MODEL 5
REMARK VINA RESULT:      -7.7      1.290      1.745
REMARK  Name = 
REMARK  6 active torsions:
REMARK  status: ('A' for Active; 'I' for Inactive)
REMARK    1  A    between atoms: C_2  and  C_16
REMARK    2  A    between atoms: N_3  and  C_4
REMARK    3  A    between atoms: C_10  and  N_11
REMARK    4  A    between atoms: C_19  and  C_20
REMARK    5  A    between atoms: C_20  and  O_21
REMARK    6  A    between atoms: O_21  and  C_22
REMARK                            x       y       z     vdW  Elec       q    Type
REMARK                         _______ _______ _______ _____ _____    ______ ____
ROOT
ATOM      1  O   UNL     1       3.428   3.064  17.367  0.00  0.00    +0.000 OA
ATOM      2  C   UNL     1       3.477   4.245  17.715  0.00  0.00    +0.000 C 
ATOM      3  N   UNL     1       4.321   5.181  17.126  0.00  0.00    +0.000 N 
ATOM      4  H   UNL     1       4.443   6.065  17.629  0.00  0.00    +0.000 HD
ENDROOT
BRANCH   3   5
ATOM      5  C   UNL     1       5.206   4.941  16.031  0.00  0.00    +0.000 A 
ATOM      6  C   UNL     1       4.710   4.429  14.815  0.00  0.00    +0.000 A 
ATOM      7  C   UNL     1       5.554   4.129  13.746  0.00  0.00    +0.000 A 
ATOM      8 CL   UNL     1       4.907   3.451  12.303  0.00  0.00    +0.000 Cl
ATOM      9  C   UNL     1       6.914   4.370  13.842  0.00  0.00    +0.000 A 
ATOM     10  C   UNL     1       7.432   4.917  15.016  0.00  0.00    +0.000 A 
ATOM     11  C   UNL     1       6.597   5.202  16.121  0.00  0.00    +0.000 A 
BRANCH  11  12
ATOM     12  N   UNL     1       7.204   5.696  17.314  0.00  0.00    +0.000 N 
ATOM     13  C   UNL     1       7.670   6.965  17.581  0.00  0.00    +0.000 A 
ATOM     14  N   UNL     1       8.221   7.018  18.771  0.00  0.00    +0.000 NA
ATOM     15  C   UNL     1       8.068   5.746  19.226  0.00  0.00    +0.000 A 
ATOM     16  N   UNL     1       7.439   4.910  18.398  0.00  0.00    +0.000 NA
ENDBRANCH  11  12
ENDBRANCH   3   5
BRANCH   2  17
ATOM     17  C   UNL     1       2.656   4.696  18.824  0.00  0.00    +0.000 A 
ATOM     18  C   UNL     1       1.625   4.009  19.441  0.00  0.00    +0.000 A 
ATOM     19  C   UNL     1       1.089   4.857  20.427  0.00  0.00    +0.000 A 
ATOM     20  C   UNL     1       1.798   6.038  20.346  0.00  0.00    +0.000 A 
ATOM     21  O   UNL     1       2.773   5.945  19.382  0.00  0.00    +0.000 OA
BRANCH  20  22
ATOM     22  C   UNL     1       1.597   7.345  21.026  0.00  0.00    +0.000 C 
BRANCH  22  23
ATOM     23  O   UNL     1       0.195   7.572  21.161  0.00  0.00    +0.000 OA
BRANCH  23  24
ATOM     24  C   UNL     1      -0.176   8.874  21.393  0.00  0.00    +0.000 A 
ATOM     25  C   UNL     1      -0.283   9.878  20.428  0.00  0.00    +0.000 A 
ATOM     26  C   UNL     1      -0.686  11.169  20.786  0.00  0.00    +0.000 A 
ATOM     27  C   UNL     1      -0.976  11.465  22.116  0.00  0.00    +0.000 A 
ATOM     28  C   UNL     1      -0.868  10.472  23.086  0.00  0.00    +0.000 A 
ATOM     29  C   UNL     1      -0.472   9.181  22.726  0.00  0.00    +0.000 A 
ENDBRANCH  23  24
ENDBRANCH  22  23
ENDBRANCH  20  22
ENDBRANCH   2  17
TORSDOF 6
ENDMDL
MODEL 6
REMARK VINA RESULT:      -7.7      1.632      2.301
REMARK  Name = 
REMARK  6 active torsions:
REMARK  status: ('A' for Active; 'I' for Inactive)
REMARK    1  A    between atoms: C_2  and  C_16
REMARK    2  A    between atoms: N_3  and  C_4
REMARK    3  A    between atoms: C_10  and  N_11
REMARK    4  A    between atoms: C_19  and  C_20
REMARK    5  A    between atoms: C_20  and  O_21
REMARK    6  A    between atoms: O_21  and  C_22
REMARK                            x       y       z     vdW  Elec       q    Type
REMARK                         _______ _______ _______ _____ _____    ______ ____
ROOT
ATOM      1  O   UNL     1       4.114   6.973  16.952  0.00  0.00    +0.000 OA
ATOM      2  C   UNL     1       3.965   5.849  17.431  0.00  0.00    +0.000 C 
ATOM      3  N   UNL     1       4.543   4.705  16.891  0.00  0.00    +0.000 N 
ATOM      4  H   UNL     1       4.181   3.808  17.230  0.00  0.00    +0.000 HD
ENDROOT
BRANCH   3   5
ATOM      5  C   UNL     1       5.406   4.657  15.754  0.00  0.00    +0.000 A 
ATOM      6  C   UNL     1       4.963   4.077  14.549  0.00  0.00    +0.000 A 
ATOM      7  C   UNL     1       5.798   3.962  13.439  0.00  0.00    +0.000 A 
ATOM      8 CL   UNL     1       5.228   3.193  12.008  0.00  0.00    +0.000 Cl
ATOM      9  C   UNL     1       7.089   4.458  13.483  0.00  0.00    +0.000 A 
ATOM     10  C   UNL     1       7.547   5.076  14.647  0.00  0.00    +0.000 A 
ATOM     11  C   UNL     1       6.724   5.178  15.792  0.00  0.00    +0.000 A 
BRANCH  11  12
ATOM     12  N   UNL     1       7.280   5.761  16.969  0.00  0.00    +0.000 N 
ATOM     13  C   UNL     1       7.585   5.155  18.169  0.00  0.00    +0.000 A 
ATOM     14  N   UNL     1       8.023   6.036  19.038  0.00  0.00    +0.000 NA
ATOM     15  C   UNL     1       7.987   7.195  18.329  0.00  0.00    +0.000 A 
ATOM     16  N   UNL     1       7.569   7.086  17.067  0.00  0.00    +0.000 NA
ENDBRANCH  11  12
ENDBRANCH   3   5
BRANCH   2  17
ATOM     17  C   UNL     1       3.113   5.677  18.594  0.00  0.00    +0.000 A 
ATOM     18  C   UNL     1       2.566   4.498  19.069  0.00  0.00    +0.000 A 
ATOM     19  C   UNL     1       1.772   4.825  20.185  0.00  0.00    +0.000 A 
ATOM     20  C   UNL     1       1.847   6.196  20.320  0.00  0.00    +0.000 A 
ATOM     21  O   UNL     1       2.680   6.727  19.366  0.00  0.00    +0.000 OA
BRANCH  20  22
ATOM     22  C   UNL     1       1.115   7.127  21.220  0.00  0.00    +0.000 C 
BRANCH  22  23
ATOM     23  O   UNL     1       1.421   8.465  20.828  0.00  0.00    +0.000 OA
BRANCH  23  24
ATOM     24  C   UNL     1       0.668   9.445  21.426  0.00  0.00    +0.000 A 
ATOM     25  C   UNL     1      -0.092   9.297  22.589  0.00  0.00    +0.000 A 
ATOM     26  C   UNL     1      -0.810  10.378  23.112  0.00  0.00    +0.000 A 
ATOM     27  C   UNL     1      -0.778  11.614  22.469  0.00  0.00    +0.000 A 
ATOM     28  C   UNL     1      -0.027  11.770  21.307  0.00  0.00    +0.000 A 
ATOM     29  C   UNL     1       0.694  10.691  20.788  0.00  0.00    +0.000 A 
ENDBRANCH  23  24
ENDBRANCH  22  23
ENDBRANCH  20  22
ENDBRANCH   2  17
TORSDOF 6
ENDMDL
MODEL 7
REMARK VINA RESULT:      -7.6      2.748      4.901
REMARK  Name = 
REMARK  6 active torsions:
REMARK  status: ('A' for Active; 'I' for Inactive)
REMARK    1  A    between atoms: C_2  and  C_16
REMARK    2  A    between atoms: N_3  and  C_4
REMARK    3  A    between atoms: C_10  and  N_11
REMARK    4  A    between atoms: C_19  and  C_20
REMARK    5  A    between atoms: C_20  and  O_21
REMARK    6  A    between atoms: O_21  and  C_22
REMARK                            x       y       z     vdW  Elec       q    Type
REMARK                         _______ _______ _______ _____ _____    ______ ____
ROOT
ATOM      1  O   UNL     1       3.637   6.029  20.110  0.00  0.00    +0.000 OA
ATOM      2  C   UNL     1       2.964   6.633  19.273  0.00  0.00    +0.000 C 
ATOM      3  N   UNL     1       3.052   6.396  17.906  0.00  0.00    +0.000 N 
ATOM      4  H   UNL     1       2.619   7.094  17.293  0.00  0.00    +0.000 HD
ENDROOT
BRANCH   3   5
ATOM      5  C   UNL     1       3.880   5.418  17.274  0.00  0.00    +0.000 A 
ATOM      6  C   UNL     1       4.961   5.819  16.463  0.00  0.00    +0.000 A 
ATOM      7  C   UNL     1       5.754   4.894  15.787  0.00  0.00    +0.000 A 
ATOM      8 CL   UNL     1       7.026   5.436  14.762  0.00  0.00    +0.000 Cl
ATOM      9  C   UNL     1       5.520   3.537  15.930  0.00  0.00    +0.000 A 
ATOM     10  C   UNL     1       4.484   3.104  16.759  0.00  0.00    +0.000 A 
ATOM     11  C   UNL     1       3.652   4.028  17.432  0.00  0.00    +0.000 A 
BRANCH  11  12
ATOM     12  N   UNL     1       2.570   3.517  18.209  0.00  0.00    +0.000 N 
ATOM     13  C   UNL     1       2.616   2.830  19.402  0.00  0.00    +0.000 A 
ATOM     14  N   UNL     1       1.412   2.468  19.780  0.00  0.00    +0.000 NA
ATOM     15  C   UNL     1       0.629   2.965  18.786  0.00  0.00    +0.000 A 
ATOM     16  N   UNL     1       1.271   3.628  17.823  0.00  0.00    +0.000 NA
ENDBRANCH  11  12
ENDBRANCH   3   5
BRANCH   2  17
ATOM     17  C   UNL     1       2.057   7.679  19.709  0.00  0.00    +0.000 A 
ATOM     18  C   UNL     1       1.399   7.771  20.923  0.00  0.00    +0.000 A 
ATOM     19  C   UNL     1       0.594   8.924  20.877  0.00  0.00    +0.000 A 
ATOM     20  C   UNL     1       0.773   9.467  19.621  0.00  0.00    +0.000 A 
ATOM     21  O   UNL     1       1.681   8.726  18.905  0.00  0.00    +0.000 OA
BRANCH  20  22
ATOM     22  C   UNL     1       0.085  10.596  18.941  0.00  0.00    +0.000 C 
BRANCH  22  23
ATOM     23  O   UNL     1      -1.296  10.566  19.301  0.00  0.00    +0.000 OA
BRANCH  23  24
ATOM     24  C   UNL     1      -2.183  10.676  18.259  0.00  0.00    +0.000 A 
ATOM     25  C   UNL     1      -3.332  11.470  18.245  0.00  0.00    +0.000 A 
ATOM     26  C   UNL     1      -4.155  11.510  17.114  0.00  0.00    +0.000 A 
ATOM     27  C   UNL     1      -3.837  10.749  15.992  0.00  0.00    +0.000 A 
ATOM     28  C   UNL     1      -2.696   9.951  15.998  0.00  0.00    +0.000 A 
ATOM     29  C   UNL     1      -1.871   9.915  17.126  0.00  0.00    +0.000 A 
ENDBRANCH  23  24
ENDBRANCH  22  23
ENDBRANCH  20  22
ENDBRANCH   2  17
TORSDOF 6
ENDMDL
MODEL 8
REMARK VINA RESULT:      -7.6      3.588      5.837
REMARK  Name = 
REMARK  6 active torsions:
REMARK  status: ('A' for Active; 'I' for Inactive)
REMARK    1  A    between atoms: C_2  and  C_16
REMARK    2  A    between atoms: N_3  and  C_4
REMARK    3  A    between atoms: C_10  and  N_11
REMARK    4  A    between atoms: C_19  and  C_20
REMARK    5  A    between atoms: C_20  and  O_21
REMARK    6  A    between atoms: O_21  and  C_22
REMARK                            x       y       z     vdW  Elec       q    Type
REMARK                         _______ _______ _______ _____ _____    ______ ____
ROOT
ATOM      1  O   UNL     1       2.212   8.033  17.921  0.00  0.00    +0.000 OA
ATOM      2  C   UNL     1       2.265   7.670  19.097  0.00  0.00    +0.000 C 
ATOM      3  N   UNL     1       2.986   6.559  19.522  0.00  0.00    +0.000 N 
ATOM      4  H   UNL     1       2.786   6.221  20.468  0.00  0.00    +0.000 HD
ENDROOT
BRANCH   3   5
ATOM      5  C   UNL     1       3.788   5.713  18.697  0.00  0.00    +0.000 A 
ATOM      6  C   UNL     1       4.961   6.212  18.094  0.00  0.00    +0.000 A 
ATOM      7  C   UNL     1       5.735   5.431  17.238  0.00  0.00    +0.000 A 
ATOM      8 CL   UNL     1       7.126   6.105  16.481  0.00  0.00    +0.000 Cl
ATOM      9  C   UNL     1       5.388   4.115  16.989  0.00  0.00    +0.000 A 
ATOM     10  C   UNL     1       4.257   3.576  17.602  0.00  0.00    +0.000 A 
ATOM     11  C   UNL     1       3.443   4.360  18.452  0.00  0.00    +0.000 A 
BRANCH  11  12
ATOM     12  N   UNL     1       2.265   3.764  18.992  0.00  0.00    +0.000 N 
ATOM     13  C   UNL     1       1.345   2.953  18.364  0.00  0.00    +0.000 A 
ATOM     14  N   UNL     1       0.358   2.652  19.174  0.00  0.00    +0.000 NA
ATOM     15  C   UNL     1       0.708   3.295  20.319  0.00  0.00    +0.000 A 
ATOM     16  N   UNL     1       1.862   3.963  20.275  0.00  0.00    +0.000 NA
ENDBRANCH  11  12
ENDBRANCH   3   5
BRANCH   2  17
ATOM     17  C   UNL     1       1.509   8.396  20.101  0.00  0.00    +0.000 A 
ATOM     18  C   UNL     1       1.115   7.942  21.348  0.00  0.00    +0.000 A 
ATOM     19  C   UNL     1       0.365   8.970  21.949  0.00  0.00    +0.000 A 
ATOM     20  C   UNL     1       0.308   9.995  21.026  0.00  0.00    +0.000 A 
ATOM     21  O   UNL     1       1.022   9.663  19.900  0.00  0.00    +0.000 OA
BRANCH  20  22
ATOM     22  C   UNL     1      -0.456  11.270  21.032  0.00  0.00    +0.000 C 
BRANCH  22  23
ATOM     23  O   UNL     1      -0.073  12.020  22.184  0.00  0.00    +0.000 OA
BRANCH  23  24
ATOM     24  C   UNL     1      -1.099  12.631  22.862  0.00  0.00    +0.000 A 
ATOM     25  C   UNL     1      -1.080  13.931  23.374  0.00  0.00    +0.000 A 
ATOM     26  C   UNL     1      -2.196  14.451  24.037  0.00  0.00    +0.000 A 
ATOM     27  C   UNL     1      -3.337  13.668  24.200  0.00  0.00    +0.000 A 
ATOM     28  C   UNL     1      -3.364  12.370  23.698  0.00  0.00    +0.000 A 
ATOM     29  C   UNL     1      -2.250  11.854  23.030  0.00  0.00    +0.000 A 
ENDBRANCH  23  24
ENDBRANCH  22  23
ENDBRANCH  20  22
ENDBRANCH   2  17
TORSDOF 6
ENDMDL
MODEL 9
REMARK VINA RESULT:      -7.6      1.079      1.751
REMARK  Name = 
REMARK  6 active torsions:
REMARK  status: ('A' for Active; 'I' for Inactive)
REMARK    1  A    between atoms: C_2  and  C_16
REMARK    2  A    between atoms: N_3  and  C_4
REMARK    3  A    between atoms: C_10  and  N_11
REMARK    4  A    between atoms: C_19  and  C_20
REMARK    5  A    between atoms: C_20  and  O_21
REMARK    6  A    between atoms: O_21  and  C_22
REMARK                            x       y       z     vdW  Elec       q    Type
REMARK                         _______ _______ _______ _____ _____    ______ ____
ROOT
ATOM      1  O   UNL     1       4.017   2.817  17.375  0.00  0.00    +0.000 OA
ATOM      2  C   UNL     1       3.805   4.015  17.568  0.00  0.00    +0.000 C 
ATOM      3  N   UNL     1       4.403   5.026  16.824  0.00  0.00    +0.000 N 
ATOM      4  H   UNL     1       4.332   5.974  17.204  0.00  0.00    +0.000 HD
ENDROOT
BRANCH   3   5
ATOM      5  C   UNL     1       5.297   4.844  15.725  0.00  0.00    +0.000 A 
ATOM      6  C   UNL     1       4.844   4.246  14.531  0.00  0.00    +0.000 A 
ATOM      7  C   UNL     1       5.703   4.001  13.461  0.00  0.00    +0.000 A 
ATOM      8 CL   UNL     1       5.115   3.215  12.048  0.00  0.00    +0.000 Cl
ATOM      9  C   UNL     1       7.032   4.381  13.532  0.00  0.00    +0.000 A 
ATOM     10  C   UNL     1       7.504   5.013  14.682  0.00  0.00    +0.000 A 
ATOM     11  C   UNL     1       6.655   5.246  15.789  0.00  0.00    +0.000 A 
BRANCH  11  12
ATOM     12  N   UNL     1       7.221   5.836  16.958  0.00  0.00    +0.000 N 
ATOM     13  C   UNL     1       7.556   5.233  18.151  0.00  0.00    +0.000 A 
ATOM     14  N   UNL     1       7.994   6.118  19.014  0.00  0.00    +0.000 NA
ATOM     15  C   UNL     1       7.928   7.278  18.309  0.00  0.00    +0.000 A 
ATOM     16  N   UNL     1       7.490   7.165  17.054  0.00  0.00    +0.000 NA
ENDBRANCH  11  12
ENDBRANCH   3   5
BRANCH   2  17
ATOM     17  C   UNL     1       2.926   4.417  18.650  0.00  0.00    +0.000 A 
ATOM     18  C   UNL     1       1.782   3.773  19.088  0.00  0.00    +0.000 A 
ATOM     19  C   UNL     1       1.233   4.553  20.123  0.00  0.00    +0.000 A 
ATOM     20  C   UNL     1       2.052   5.657  20.248  0.00  0.00    +0.000 A 
ATOM     21  O   UNL     1       3.102   5.575  19.366  0.00  0.00    +0.000 OA
BRANCH  20  22
ATOM     22  C   UNL     1       1.906   6.891  21.065  0.00  0.00    +0.000 C 
BRANCH  22  23
ATOM     23  O   UNL     1       1.411   7.932  20.224  0.00  0.00    +0.000 OA
BRANCH  23  24
ATOM     24  C   UNL     1       0.755   8.953  20.868  0.00  0.00    +0.000 A 
ATOM     25  C   UNL     1       0.144   8.870  22.122  0.00  0.00    +0.000 A 
ATOM     26  C   UNL     1      -0.484   9.987  22.682  0.00  0.00    +0.000 A 
ATOM     27  C   UNL     1      -0.513  11.194  21.986  0.00  0.00    +0.000 A 
ATOM     28  C   UNL     1       0.089  11.285  20.733  0.00  0.00    +0.000 A 
ATOM     29  C   UNL     1       0.721  10.169  20.177  0.00  0.00    +0.000 A 
ENDBRANCH  23  24
ENDBRANCH  22  23
ENDBRANCH  20  22
ENDBRANCH   2  17
TORSDOF 6
ENDMDL
