MODEL 1
REMARK VINA RESULT:      -8.6      0.000      0.000
REMARK  Name = 
REMARK  6 active torsions:
REMARK  status: ('A' for Active; 'I' for Inactive)
REMARK    1  A    between atoms: C_1  and  N_2
REMARK    2  A    between atoms: C_6  and  C_7
REMARK    3  A    between atoms: C_7  and  C_8
REMARK    4  A    between atoms: C_12  and  N_13
REMARK    5  A    between atoms: C_16  and  C_17
REMARK    6  A    between atoms: C_20  and  C_21
REMARK                            x       y       z     vdW  Elec       q    Type
REMARK                         _______ _______ _______ _____ _____    ______ ____
ROOT
ATOM      1  N   UNL     1       2.714   3.517  19.181  0.00  0.00    +0.000 N 
ATOM      2  C   UNL     1       4.077   3.687  19.748  0.00  0.00    +0.000 C 
ATOM      3  C   UNL     1       4.893   3.937  18.511  0.00  0.00    +0.000 A 
ATOM      4  C   UNL     1       5.859   4.905  18.258  0.00  0.00    +0.000 A 
ATOM      5  C   UNL     1       6.187   5.140  16.908  0.00  0.00    +0.000 A 
ATOM      6  C   UNL     1       5.562   4.444  15.843  0.00  0.00    +0.000 A 
ATOM      7  C   UNL     1       4.604   3.461  16.133  0.00  0.00    +0.000 A 
ATOM      8  C   UNL     1       4.272   3.250  17.464  0.00  0.00    +0.000 A 
ATOM      9  C   UNL     1       2.932   2.812  17.957  0.00  0.00    +0.000 C 
ATOM     10  O   UNL     1       2.129   2.172  17.296  0.00  0.00    +0.000 OA
ENDROOT
BRANCH   1  15
ATOM     11  C   UNL     1       2.028   6.997  20.136  0.00  0.00    +0.000 A 
ATOM     12  C   UNL     1       2.498   7.577  18.949  0.00  0.00    +0.000 A 
ATOM     13  C   UNL     1       2.529   6.838  17.776  0.00  0.00    +0.000 A 
ATOM     14  C   UNL     1       2.193   5.490  17.798  0.00  0.00    +0.000 A 
ATOM     15  C   UNL     1       2.085   4.835  19.032  0.00  0.00    +0.000 A 
ATOM     16  C   UNL     1       1.848   5.603  20.181  0.00  0.00    +0.000 A 
BRANCH  11  17
ATOM     17  C   UNL     1       1.741   7.872  21.333  0.00  0.00    +0.000 C 
BRANCH  17  23
ATOM     18  C   UNL     1       0.012   9.500  23.409  0.00  0.00    +0.000 C 
ATOM     19  N   UNL     1       0.104   9.718  21.989  0.00  0.00    +0.000 N 
ATOM     20  C   UNL     1      -0.550  10.695  21.303  0.00  0.00    +0.000 A 
ATOM     21  N   UNL     1      -0.261  10.612  20.031  0.00  0.00    +0.000 NA
ATOM     22  N   UNL     1       0.605   9.556  19.870  0.00  0.00    +0.000 NA
ATOM     23  C   UNL     1       0.827   9.017  21.051  0.00  0.00    +0.000 A 
ENDBRANCH  17  23
ENDBRANCH  11  17
ENDBRANCH   1  15
BRANCH   6  24
ATOM     24  C   UNL     1       5.846   4.813  14.403  0.00  0.00    +0.000 C 
ATOM     25  C   UNL     1       5.956   3.598  13.496  0.00  0.00    +0.000 C 
ATOM     26  C   UNL     1       6.881   4.089  12.411  0.00  0.00    +0.000 C 
ATOM     27  C   UNL     1       7.824   4.993  13.172  0.00  0.00    +0.000 C 
ATOM     28  O   UNL     1       7.086   5.538  14.275  0.00  0.00    +0.000 OA
ENDBRANCH   6  24
BRANCH   4  29
ATOM     29  C   UNL     1       6.369   5.844  19.319  0.00  0.00    +0.000 C 
ATOM     30  F   UNL     1       7.733   5.879  19.376  0.00  0.00    +0.000 F 
ENDBRANCH   4  29
TORSDOF 5
ENDMDL
MODEL 2
REMARK VINA RESULT:      -8.2      7.619     10.932
REMARK  Name = 
REMARK  6 active torsions:
REMARK  status: ('A' for Active; 'I' for Inactive)
REMARK    1  A    between atoms: C_1  and  N_2
REMARK    2  A    between atoms: C_6  and  C_7
REMARK    3  A    between atoms: C_7  and  C_8
REMARK    4  A    between atoms: C_12  and  N_13
REMARK    5  A    between atoms: C_16  and  C_17
REMARK    6  A    between atoms: C_20  and  C_21
REMARK                            x       y       z     vdW  Elec       q    Type
REMARK                         _______ _______ _______ _____ _____    ______ ____
ROOT
ATOM      1  N   UNL     1      -0.244  11.845  18.964  0.00  0.00    +0.000 N 
ATOM      2  C   UNL     1       0.537  11.095  19.982  0.00  0.00    +0.000 C 
ATOM      3  C   UNL     1      -0.174  11.472  21.251  0.00  0.00    +0.000 A 
ATOM      4  C   UNL     1      -0.602  10.674  22.306  0.00  0.00    +0.000 A 
ATOM      5  C   UNL     1      -1.560  11.230  23.178  0.00  0.00    +0.000 A 
ATOM      6  C   UNL     1      -2.085  12.534  22.994  0.00  0.00    +0.000 A 
ATOM      7  C   UNL     1      -1.620  13.319  21.930  0.00  0.00    +0.000 A 
ATOM      8  C   UNL     1      -0.691  12.757  21.065  0.00  0.00    +0.000 A 
ATOM      9  C   UNL     1      -0.567  13.077  19.612  0.00  0.00    +0.000 C 
ATOM     10  O   UNL     1      -0.914  14.133  19.105  0.00  0.00    +0.000 OA
ENDROOT
BRANCH   1  15
ATOM     11  C   UNL     1      -3.577  11.317  17.514  0.00  0.00    +0.000 A 
ATOM     12  C   UNL     1      -3.167  10.440  16.500  0.00  0.00    +0.000 A 
ATOM     13  C   UNL     1      -1.998   9.706  16.643  0.00  0.00    +0.000 A 
ATOM     14  C   UNL     1      -1.180   9.916  17.746  0.00  0.00    +0.000 A 
ATOM     15  C   UNL     1      -1.402  11.039  18.555  0.00  0.00    +0.000 A 
ATOM     16  C   UNL     1      -2.668  11.639  18.537  0.00  0.00    +0.000 A 
BRANCH  11  17
ATOM     17  C   UNL     1      -4.969  11.900  17.478  0.00  0.00    +0.000 C 
BRANCH  17  23
ATOM     18  C   UNL     1      -5.912  13.717  19.877  0.00  0.00    +0.000 C 
ATOM     19  N   UNL     1      -6.240  12.335  19.649  0.00  0.00    +0.000 N 
ATOM     20  C   UNL     1      -7.039  11.576  20.450  0.00  0.00    +0.000 A 
ATOM     21  N   UNL     1      -7.123  10.364  19.970  0.00  0.00    +0.000 NA
ATOM     22  N   UNL     1      -6.363  10.316  18.825  0.00  0.00    +0.000 NA
ATOM     23  C   UNL     1      -5.831  11.505  18.630  0.00  0.00    +0.000 A 
ENDBRANCH  17  23
ENDBRANCH  11  17
ENDBRANCH   1  15
BRANCH   6  24
ATOM     24  C   UNL     1      -3.206  13.048  23.873  0.00  0.00    +0.000 C 
ATOM     25  C   UNL     1      -4.570  12.929  23.214  0.00  0.00    +0.000 C 
ATOM     26  C   UNL     1      -5.339  14.054  23.859  0.00  0.00    +0.000 C 
ATOM     27  C   UNL     1      -4.279  15.119  24.026  0.00  0.00    +0.000 C 
ATOM     28  O   UNL     1      -3.026  14.442  24.202  0.00  0.00    +0.000 OA
ENDBRANCH   6  24
BRANCH   4  29
ATOM     29  C   UNL     1      -0.272   9.208  22.405  0.00  0.00    +0.000 C 
ATOM     30  F   UNL     1      -0.822   8.477  21.391  0.00  0.00    +0.000 F 
ENDBRANCH   4  29
TORSDOF 5
ENDMDL
MODEL 3
REMARK VINA RESULT:      -8.0      1.324      1.711
REMARK  Name = 
REMARK  6 active torsions:
REMARK  status: ('A' for Active; 'I' for Inactive)
REMARK    1  A    between atoms: C_1  and  N_2
REMARK    2  A    between atoms: C_6  and  C_7
REMARK    3  A    between atoms: C_7  and  C_8
REMARK    4  A    between atoms: C_12  and  N_13
REMARK    5  A    between atoms: C_16  and  C_17
REMARK    6  A    between atoms: C_20  and  C_21
REMARK                            x       y       z     vdW  Elec       q    Type
REMARK                         _______ _______ _______ _____ _____    ______ ____
ROOT
ATOM      1  N   UNL     1       4.101   4.592  19.311  0.00  0.00    +0.000 N 
ATOM      2  C   UNL     1       5.420   5.271  19.401  0.00  0.00    +0.000 C 
ATOM      3  C   UNL     1       5.886   5.223  17.973  0.00  0.00    +0.000 A 
ATOM      4  C   UNL     1       6.441   6.221  17.180  0.00  0.00    +0.000 A 
ATOM      5  C   UNL     1       6.436   6.007  15.787  0.00  0.00    +0.000 A 
ATOM      6  C   UNL     1       5.882   4.840  15.203  0.00  0.00    +0.000 A 
ATOM      7  C   UNL     1       5.345   3.844  16.032  0.00  0.00    +0.000 A 
ATOM      8  C   UNL     1       5.336   4.072  17.401  0.00  0.00    +0.000 A 
ATOM      9  C   UNL     1       4.309   3.553  18.351  0.00  0.00    +0.000 C 
ATOM     10  O   UNL     1       3.642   2.547  18.166  0.00  0.00    +0.000 OA
ENDROOT
BRANCH   1  15
ATOM     11  C   UNL     1       1.852   7.431  19.924  0.00  0.00    +0.000 A 
ATOM     12  C   UNL     1       2.378   8.262  18.925  0.00  0.00    +0.000 A 
ATOM     13  C   UNL     1       3.039   7.712  17.836  0.00  0.00    +0.000 A 
ATOM     14  C   UNL     1       3.271   6.343  17.787  0.00  0.00    +0.000 A 
ATOM     15  C   UNL     1       3.076   5.578  18.944  0.00  0.00    +0.000 A 
ATOM     16  C   UNL     1       2.232   6.078  19.945  0.00  0.00    +0.000 A 
BRANCH  11  17
ATOM     17  C   UNL     1       0.908   8.006  20.953  0.00  0.00    +0.000 C 
BRANCH  17  23
ATOM     18  C   UNL     1      -0.872   9.869  19.134  0.00  0.00    +0.000 C 
ATOM     19  N   UNL     1       0.040  10.275  20.170  0.00  0.00    +0.000 N 
ATOM     20  C   UNL     1       0.276  11.563  20.545  0.00  0.00    +0.000 A 
ATOM     21  N   UNL     1       1.165  11.589  21.502  0.00  0.00    +0.000 NA
ATOM     22  N   UNL     1       1.528  10.290  21.768  0.00  0.00    +0.000 NA
ATOM     23  C   UNL     1       0.848   9.496  20.966  0.00  0.00    +0.000 A 
ENDBRANCH  17  23
ENDBRANCH  11  17
ENDBRANCH   1  15
BRANCH   6  24
ATOM     24  C   UNL     1       5.777   4.701  13.699  0.00  0.00    +0.000 C 
ATOM     25  C   UNL     1       4.953   3.496  13.276  0.00  0.00    +0.000 C 
ATOM     26  C   UNL     1       5.545   3.156  11.932  0.00  0.00    +0.000 C 
ATOM     27  C   UNL     1       7.008   3.484  12.129  0.00  0.00    +0.000 C 
ATOM     28  O   UNL     1       7.075   4.549  13.088  0.00  0.00    +0.000 OA
ENDBRANCH   6  24
BRANCH   4  29
ATOM     29  C   UNL     1       6.811   7.578  17.720  0.00  0.00    +0.000 C 
ATOM     30  F   UNL     1       8.112   7.642  18.130  0.00  0.00    +0.000 F 
ENDBRANCH   4  29
TORSDOF 5
ENDMDL
MODEL 4
REMARK VINA RESULT:      -7.9      7.391     10.607
REMARK  Name = 
REMARK  6 active torsions:
REMARK  status: ('A' for Active; 'I' for Inactive)
REMARK    1  A    between atoms: C_1  and  N_2
REMARK    2  A    between atoms: C_6  and  C_7
REMARK    3  A    between atoms: C_7  and  C_8
REMARK    4  A    between atoms: C_12  and  N_13
REMARK    5  A    between atoms: C_16  and  C_17
REMARK    6  A    between atoms: C_20  and  C_21
REMARK                            x       y       z     vdW  Elec       q    Type
REMARK                         _______ _______ _______ _____ _____    ______ ____
ROOT
ATOM      1  N   UNL     1      -0.283  11.532  18.464  0.00  0.00    +0.000 N 
ATOM      2  C   UNL     1       0.507  10.677  19.387  0.00  0.00    +0.000 C 
ATOM      3  C   UNL     1       0.021  11.147  20.730  0.00  0.00    +0.000 A 
ATOM      4  C   UNL     1      -0.377  10.414  21.842  0.00  0.00    +0.000 A 
ATOM      5  C   UNL     1      -1.131  11.096  22.818  0.00  0.00    +0.000 A 
ATOM      6  C   UNL     1      -1.488  12.462  22.682  0.00  0.00    +0.000 A 
ATOM      7  C   UNL     1      -1.055  13.177  21.556  0.00  0.00    +0.000 A 
ATOM      8  C   UNL     1      -0.331  12.493  20.590  0.00  0.00    +0.000 A 
ATOM      9  C   UNL     1      -0.347  12.796  19.128  0.00  0.00    +0.000 C 
ATOM     10  O   UNL     1      -0.605  13.891  18.653  0.00  0.00    +0.000 OA
ENDROOT
BRANCH   1  15
ATOM     11  C   UNL     1      -3.814  11.481  17.450  0.00  0.00    +0.000 A 
ATOM     12  C   UNL     1      -3.661  10.558  16.406  0.00  0.00    +0.000 A 
ATOM     13  C   UNL     1      -2.597   9.667  16.413  0.00  0.00    +0.000 A 
ATOM     14  C   UNL     1      -1.625   9.757  17.401  0.00  0.00    +0.000 A 
ATOM     15  C   UNL     1      -1.585  10.898  18.214  0.00  0.00    +0.000 A 
ATOM     16  C   UNL     1      -2.747  11.670  18.346  0.00  0.00    +0.000 A 
BRANCH  11  17
ATOM     17  C   UNL     1      -5.104  12.255  17.579  0.00  0.00    +0.000 C 
BRANCH  17  23
ATOM     18  C   UNL     1      -6.793  10.060  19.088  0.00  0.00    +0.000 C 
ATOM     19  N   UNL     1      -6.359  11.332  19.602  0.00  0.00    +0.000 N 
ATOM     20  C   UNL     1      -6.607  11.795  20.858  0.00  0.00    +0.000 A 
ATOM     21  N   UNL     1      -6.088  12.986  21.001  0.00  0.00    +0.000 NA
ATOM     22  N   UNL     1      -5.481  13.320  19.813  0.00  0.00    +0.000 NA
ATOM     23  C   UNL     1      -5.643  12.322  18.968  0.00  0.00    +0.000 A 
ENDBRANCH  17  23
ENDBRANCH  11  17
ENDBRANCH   1  15
BRANCH   6  24
ATOM     24  C   UNL     1      -2.406  13.126  23.686  0.00  0.00    +0.000 C 
ATOM     25  C   UNL     1      -3.759  12.441  23.787  0.00  0.00    +0.000 C 
ATOM     26  C   UNL     1      -4.661  13.572  24.214  0.00  0.00    +0.000 C 
ATOM     27  C   UNL     1      -4.070  14.754  23.480  0.00  0.00    +0.000 C 
ATOM     28  O   UNL     1      -2.664  14.503  23.340  0.00  0.00    +0.000 OA
ENDBRANCH   6  24
BRANCH   4  29
ATOM     29  C   UNL     1      -0.246   8.916  21.920  0.00  0.00    +0.000 C 
ATOM     30  F   UNL     1       1.056   8.505  21.946  0.00  0.00    +0.000 F 
ENDBRANCH   4  29
TORSDOF 5
ENDMDL
MODEL 5
REMARK VINA RESULT:      -7.9      0.732      1.045
REMARK  Name = 
REMARK  6 active torsions:
REMARK  status: ('A' for Active; 'I' for Inactive)
REMARK    1  A    between atoms: C_1  and  N_2
REMARK    2  A    between atoms: C_6  and  C_7
REMARK    3  A    between atoms: C_7  and  C_8
REMARK    4  A    between atoms: C_12  and  N_13
REMARK    5  A    between atoms: C_16  and  C_17
REMARK    6  A    between atoms: C_20  and  C_21
REMARK                            x       y       z     vdW  Elec       q    Type
REMARK                         _______ _______ _______ _____ _____    ______ ____
ROOT
ATOM      1  N   UNL     1       2.700   3.623  19.146  0.00  0.00    +0.000 N 
ATOM      2  C   UNL     1       4.063   3.789  19.712  0.00  0.00    +0.000 C 
ATOM      3  C   UNL     1       4.883   4.019  18.473  0.00  0.00    +0.000 A 
ATOM      4  C   UNL     1       5.856   4.975  18.211  0.00  0.00    +0.000 A 
ATOM      5  C   UNL     1       6.187   5.193  16.858  0.00  0.00    +0.000 A 
ATOM      6  C   UNL     1       5.557   4.489  15.801  0.00  0.00    +0.000 A 
ATOM      7  C   UNL     1       4.591   3.518  16.101  0.00  0.00    +0.000 A 
ATOM      8  C   UNL     1       4.257   3.324  17.434  0.00  0.00    +0.000 A 
ATOM      9  C   UNL     1       2.913   2.903  17.930  0.00  0.00    +0.000 C 
ATOM     10  O   UNL     1       2.105   2.262  17.276  0.00  0.00    +0.000 OA
ENDROOT
BRANCH   1  15
ATOM     11  C   UNL     1       1.667   6.969  20.258  0.00  0.00    +0.000 A 
ATOM     12  C   UNL     1       2.401   7.682  19.299  0.00  0.00    +0.000 A 
ATOM     13  C   UNL     1       2.756   7.079  18.101  0.00  0.00    +0.000 A 
ATOM     14  C   UNL     1       2.474   5.734  17.893  0.00  0.00    +0.000 A 
ATOM     15  C   UNL     1       2.081   4.945  18.982  0.00  0.00    +0.000 A 
ATOM     16  C   UNL     1       1.533   5.577  20.107  0.00  0.00    +0.000 A 
BRANCH  11  17
ATOM     17  C   UNL     1       1.055   7.702  21.427  0.00  0.00    +0.000 C 
BRANCH  17  23
ATOM     18  C   UNL     1      -0.823   9.316  19.473  0.00  0.00    +0.000 C 
ATOM     19  N   UNL     1       0.134   9.852  20.405  0.00  0.00    +0.000 N 
ATOM     20  C   UNL     1       0.377  11.178  20.602  0.00  0.00    +0.000 A 
ATOM     21  N   UNL     1       1.310  11.326  21.505  0.00  0.00    +0.000 NA
ATOM     22  N   UNL     1       1.694  10.072  21.917  0.00  0.00    +0.000 NA
ATOM     23  C   UNL     1       0.984   9.181  21.254  0.00  0.00    +0.000 A 
ENDBRANCH  17  23
ENDBRANCH  11  17
ENDBRANCH   1  15
BRANCH   6  24
ATOM     24  C   UNL     1       5.845   4.840  14.357  0.00  0.00    +0.000 C 
ATOM     25  C   UNL     1       5.878   3.620  13.452  0.00  0.00    +0.000 C 
ATOM     26  C   UNL     1       6.816   4.057  12.355  0.00  0.00    +0.000 C 
ATOM     27  C   UNL     1       7.816   4.908  13.103  0.00  0.00    +0.000 C 
ATOM     28  O   UNL     1       7.123   5.495  14.213  0.00  0.00    +0.000 OA
ENDBRANCH   6  24
BRANCH   4  29
ATOM     29  C   UNL     1       6.373   5.922  19.262  0.00  0.00    +0.000 C 
ATOM     30  F   UNL     1       7.643   5.620  19.661  0.00  0.00    +0.000 F 
ENDBRANCH   4  29
TORSDOF 5
ENDMDL
MODEL 6
REMARK VINA RESULT:      -7.7      1.121      1.269
REMARK  Name = 
REMARK  6 active torsions:
REMARK  status: ('A' for Active; 'I' for Inactive)
REMARK    1  A    between atoms: C_1  and  N_2
REMARK    2  A    between atoms: C_6  and  C_7
REMARK    3  A    between atoms: C_7  and  C_8
REMARK    4  A    between atoms: C_12  and  N_13
REMARK    5  A    between atoms: C_16  and  C_17
REMARK    6  A    between atoms: C_20  and  C_21
REMARK                            x       y       z     vdW  Elec       q    Type
REMARK                         _______ _______ _______ _____ _____    ______ ____
ROOT
ATOM      1  N   UNL     1       4.060   4.359  19.319  0.00  0.00    +0.000 N 
ATOM      2  C   UNL     1       5.390   5.009  19.451  0.00  0.00    +0.000 C 
ATOM      3  C   UNL     1       5.870   5.015  18.026  0.00  0.00    +0.000 A 
ATOM      4  C   UNL     1       6.450   6.036  17.284  0.00  0.00    +0.000 A 
ATOM      5  C   UNL     1       6.456   5.882  15.883  0.00  0.00    +0.000 A 
ATOM      6  C   UNL     1       5.888   4.752  15.243  0.00  0.00    +0.000 A 
ATOM      7  C   UNL     1       5.325   3.731  16.022  0.00  0.00    +0.000 A 
ATOM      8  C   UNL     1       5.306   3.900  17.400  0.00  0.00    +0.000 A 
ATOM      9  C   UNL     1       4.259   3.359  18.317  0.00  0.00    +0.000 C 
ATOM     10  O   UNL     1       3.577   2.374  18.082  0.00  0.00    +0.000 OA
ENDROOT
BRANCH   1  15
ATOM     11  C   UNL     1       2.137   7.438  19.882  0.00  0.00    +0.000 A 
ATOM     12  C   UNL     1       2.545   8.091  18.710  0.00  0.00    +0.000 A 
ATOM     13  C   UNL     1       2.979   7.354  17.616  0.00  0.00    +0.000 A 
ATOM     14  C   UNL     1       3.108   5.975  17.718  0.00  0.00    +0.000 A 
ATOM     15  C   UNL     1       3.056   5.378  18.985  0.00  0.00    +0.000 A 
ATOM     16  C   UNL     1       2.425   6.070  20.028  0.00  0.00    +0.000 A 
BRANCH  11  17
ATOM     17  C   UNL     1       1.417   8.216  20.957  0.00  0.00    +0.000 C 
BRANCH  17  23
ATOM     18  C   UNL     1      -0.464  10.116  22.629  0.00  0.00    +0.000 C 
ATOM     19  N   UNL     1      -0.223  10.156  21.211  0.00  0.00    +0.000 N 
ATOM     20  C   UNL     1      -0.775  11.052  20.347  0.00  0.00    +0.000 A 
ATOM     21  N   UNL     1      -0.361  10.807  19.131  0.00  0.00    +0.000 NA
ATOM     22  N   UNL     1       0.485   9.725  19.191  0.00  0.00    +0.000 NA
ATOM     23  C   UNL     1       0.571   9.332  20.445  0.00  0.00    +0.000 A 
ENDBRANCH  17  23
ENDBRANCH  11  17
ENDBRANCH   1  15
BRANCH   6  24
ATOM     24  C   UNL     1       5.797   4.681  13.733  0.00  0.00    +0.000 C 
ATOM     25  C   UNL     1       5.003   3.478  13.249  0.00  0.00    +0.000 C 
ATOM     26  C   UNL     1       5.611   3.214  11.896  0.00  0.00    +0.000 C 
ATOM     27  C   UNL     1       7.065   3.565  12.119  0.00  0.00    +0.000 C 
ATOM     28  O   UNL     1       7.102   4.585  13.126  0.00  0.00    +0.000 OA
ENDBRANCH   6  24
BRANCH   4  29
ATOM     29  C   UNL     1       6.839   7.362  17.885  0.00  0.00    +0.000 C 
ATOM     30  F   UNL     1       8.163   7.421  18.212  0.00  0.00    +0.000 F 
ENDBRANCH   4  29
TORSDOF 5
ENDMDL
MODEL 7
REMARK VINA RESULT:      -7.7      8.008     11.496
REMARK  Name = 
REMARK  6 active torsions:
REMARK  status: ('A' for Active; 'I' for Inactive)
REMARK    1  A    between atoms: C_1  and  N_2
REMARK    2  A    between atoms: C_6  and  C_7
REMARK    3  A    between atoms: C_7  and  C_8
REMARK    4  A    between atoms: C_12  and  N_13
REMARK    5  A    between atoms: C_16  and  C_17
REMARK    6  A    between atoms: C_20  and  C_21
REMARK                            x       y       z     vdW  Elec       q    Type
REMARK                         _______ _______ _______ _____ _____    ______ ____
ROOT
ATOM      1  N   UNL     1      -6.745  13.396  21.786  0.00  0.00    +0.000 N 
ATOM      2  C   UNL     1      -7.680  12.396  21.210  0.00  0.00    +0.000 C 
ATOM      3  C   UNL     1      -6.942  11.963  19.974  0.00  0.00    +0.000 A 
ATOM      4  C   UNL     1      -6.702  10.688  19.478  0.00  0.00    +0.000 A 
ATOM      5  C   UNL     1      -5.677  10.559  18.519  0.00  0.00    +0.000 A 
ATOM      6  C   UNL     1      -4.906  11.666  18.081  0.00  0.00    +0.000 A 
ATOM      7  C   UNL     1      -5.185  12.942  18.589  0.00  0.00    +0.000 A 
ATOM      8  C   UNL     1      -6.183  13.057  19.547  0.00  0.00    +0.000 A 
ATOM      9  C   UNL     1      -6.207  14.068  20.645  0.00  0.00    +0.000 C 
ATOM     10  O   UNL     1      -5.651  15.154  20.596  0.00  0.00    +0.000 OA
ENDROOT
BRANCH   1  15
ATOM     11  C   UNL     1      -3.445  12.939  23.334  0.00  0.00    +0.000 A 
ATOM     12  C   UNL     1      -3.893  12.966  24.662  0.00  0.00    +0.000 A 
ATOM     13  C   UNL     1      -5.206  12.632  24.962  0.00  0.00    +0.000 A 
ATOM     14  C   UNL     1      -6.106  12.372  23.936  0.00  0.00    +0.000 A 
ATOM     15  C   UNL     1      -5.753  12.705  22.621  0.00  0.00    +0.000 A 
ATOM     16  C   UNL     1      -4.395  12.836  22.303  0.00  0.00    +0.000 A 
BRANCH  11  17
ATOM     17  C   UNL     1      -1.966  13.034  23.042  0.00  0.00    +0.000 C 
BRANCH  17  23
ATOM     18  C   UNL     1      -1.140  12.306  20.087  0.00  0.00    +0.000 C 
ATOM     19  N   UNL     1      -0.984  11.490  21.263  0.00  0.00    +0.000 N 
ATOM     20  C   UNL     1      -0.431  10.246  21.285  0.00  0.00    +0.000 A 
ATOM     21  N   UNL     1      -0.453   9.775  22.504  0.00  0.00    +0.000 NA
ATOM     22  N   UNL     1      -1.032  10.727  23.308  0.00  0.00    +0.000 NA
ATOM     23  C   UNL     1      -1.352  11.764  22.560  0.00  0.00    +0.000 A 
ENDBRANCH  17  23
ENDBRANCH  11  17
ENDBRANCH   1  15
BRANCH   6  24
ATOM     24  C   UNL     1      -3.730  11.470  17.148  0.00  0.00    +0.000 C 
ATOM     25  C   UNL     1      -4.150  10.995  15.766  0.00  0.00    +0.000 C 
ATOM     26  C   UNL     1      -2.935  10.228  15.306  0.00  0.00    +0.000 C 
ATOM     27  C   UNL     1      -2.441   9.602  16.590  0.00  0.00    +0.000 C 
ATOM     28  O   UNL     1      -2.804  10.488  17.658  0.00  0.00    +0.000 OA
ENDBRANCH   6  24
BRANCH   4  29
ATOM     29  C   UNL     1      -7.309   9.450  20.083  0.00  0.00    +0.000 C 
ATOM     30  F   UNL     1      -6.940   8.310  19.429  0.00  0.00    +0.000 F 
ENDBRANCH   4  29
TORSDOF 5
ENDMDL
MODEL 8
REMARK VINA RESULT:      -7.6      7.510     10.782
REMARK  Name = 
REMARK  6 active torsions:
REMARK  status: ('A' for Active; 'I' for Inactive)
REMARK    1  A    between atoms: C_1  and  N_2
REMARK    2  A    between atoms: C_6  and  C_7
REMARK    3  A    between atoms: C_7  and  C_8
REMARK    4  A    between atoms: C_12  and  N_13
REMARK    5  A    between atoms: C_16  and  C_17
REMARK    6  A    between atoms: C_20  and  C_21
REMARK                            x       y       z     vdW  Elec       q    Type
REMARK                         _______ _______ _______ _____ _____    ______ ____
ROOT
ATOM      1  N   UNL     1      -0.098  11.449  18.512  0.00  0.00    +0.000 N 
ATOM      2  C   UNL     1       0.606  10.760  19.625  0.00  0.00    +0.000 C 
ATOM      3  C   UNL     1       0.076  11.497  20.823  0.00  0.00    +0.000 A 
ATOM      4  C   UNL     1      -0.410  11.007  22.030  0.00  0.00    +0.000 A 
ATOM      5  C   UNL     1      -1.179  11.890  22.814  0.00  0.00    +0.000 A 
ATOM      6  C   UNL     1      -1.466  13.215  22.400  0.00  0.00    +0.000 A 
ATOM      7  C   UNL     1      -0.945  13.685  21.185  0.00  0.00    +0.000 A 
ATOM      8  C   UNL     1      -0.206  12.802  20.410  0.00  0.00    +0.000 A 
ATOM      9  C   UNL     1      -0.136  12.819  18.919  0.00  0.00    +0.000 C 
ATOM     10  O   UNL     1      -0.320  13.810  18.230  0.00  0.00    +0.000 OA
ENDROOT
BRANCH   1  15
ATOM     11  C   UNL     1      -3.690  11.445  17.745  0.00  0.00    +0.000 A 
ATOM     12  C   UNL     1      -3.609  10.592  16.636  0.00  0.00    +0.000 A 
ATOM     13  C   UNL     1      -2.547   9.707  16.511  0.00  0.00    +0.000 A 
ATOM     14  C   UNL     1      -1.509   9.739  17.434  0.00  0.00    +0.000 A 
ATOM     15  C   UNL     1      -1.413  10.826  18.313  0.00  0.00    +0.000 A 
ATOM     16  C   UNL     1      -2.564  11.581  18.575  0.00  0.00    +0.000 A 
BRANCH  11  17
ATOM     17  C   UNL     1      -4.969  12.201  18.014  0.00  0.00    +0.000 C 
BRANCH  17  23
ATOM     18  C   UNL     1      -5.646  13.120  20.954  0.00  0.00    +0.000 C 
ATOM     19  N   UNL     1      -6.173  11.979  20.254  0.00  0.00    +0.000 N 
ATOM     20  C   UNL     1      -7.079  11.098  20.762  0.00  0.00    +0.000 A 
ATOM     21  N   UNL     1      -7.338  10.171  19.878  0.00  0.00    +0.000 NA
ATOM     22  N   UNL     1      -6.588  10.443  18.758  0.00  0.00    +0.000 NA
ATOM     23  C   UNL     1      -5.885  11.534  18.983  0.00  0.00    +0.000 A 
ENDBRANCH  17  23
ENDBRANCH  11  17
ENDBRANCH   1  15
BRANCH   6  24
ATOM     24  C   UNL     1      -2.401  14.093  23.205  0.00  0.00    +0.000 C 
ATOM     25  C   UNL     1      -1.715  14.742  24.396  0.00  0.00    +0.000 C 
ATOM     26  C   UNL     1      -2.857  14.926  25.364  0.00  0.00    +0.000 C 
ATOM     27  C   UNL     1      -3.702  13.699  25.106  0.00  0.00    +0.000 C 
ATOM     28  O   UNL     1      -3.515  13.342  23.729  0.00  0.00    +0.000 OA
ENDBRANCH   6  24
BRANCH   4  29
ATOM     29  C   UNL     1      -0.351   9.547  22.400  0.00  0.00    +0.000 C 
ATOM     30  F   UNL     1      -0.776   8.733  21.390  0.00  0.00    +0.000 F 
ENDBRANCH   4  29
TORSDOF 5
ENDMDL
MODEL 9
REMARK VINA RESULT:      -7.6      3.118      4.691
REMARK  Name = 
REMARK  6 active torsions:
REMARK  status: ('A' for Active; 'I' for Inactive)
REMARK    1  A    between atoms: C_1  and  N_2
REMARK    2  A    between atoms: C_6  and  C_7
REMARK    3  A    between atoms: C_7  and  C_8
REMARK    4  A    between atoms: C_12  and  N_13
REMARK    5  A    between atoms: C_16  and  C_17
REMARK    6  A    between atoms: C_20  and  C_21
REMARK                            x       y       z     vdW  Elec       q    Type
REMARK                         _______ _______ _______ _____ _____    ______ ____
ROOT
ATOM      1  N   UNL     1       5.528   4.995  16.897  0.00  0.00    +0.000 N 
ATOM      2  C   UNL     1       6.701   4.430  17.613  0.00  0.00    +0.000 C 
ATOM      3  C   UNL     1       7.493   5.669  17.925  0.00  0.00    +0.000 A 
ATOM      4  C   UNL     1       8.101   6.065  19.111  0.00  0.00    +0.000 A 
ATOM      5  C   UNL     1       8.449   7.426  19.225  0.00  0.00    +0.000 A 
ATOM      6  C   UNL     1       8.187   8.364  18.195  0.00  0.00    +0.000 A 
ATOM      7  C   UNL     1       7.588   7.928  17.004  0.00  0.00    +0.000 A 
ATOM      8  C   UNL     1       7.230   6.591  16.908  0.00  0.00    +0.000 A 
ATOM      9  C   UNL     1       6.074   6.065  16.123  0.00  0.00    +0.000 C 
ATOM     10  O   UNL     1       5.590   6.621  15.149  0.00  0.00    +0.000 OA
ENDROOT
BRANCH   1  15
ATOM     11  C   UNL     1       2.665   6.958  18.101  0.00  0.00    +0.000 A 
ATOM     12  C   UNL     1       1.814   5.866  18.324  0.00  0.00    +0.000 A 
ATOM     13  C   UNL     1       2.343   4.604  18.553  0.00  0.00    +0.000 A 
ATOM     14  C   UNL     1       3.714   4.401  18.458  0.00  0.00    +0.000 A 
ATOM     15  C   UNL     1       4.511   5.397  17.878  0.00  0.00    +0.000 A 
ATOM     16  C   UNL     1       4.026   6.711  17.847  0.00  0.00    +0.000 A 
BRANCH  11  17
ATOM     17  C   UNL     1       2.105   8.359  18.124  0.00  0.00    +0.000 C 
BRANCH  17  23
ATOM     18  C   UNL     1      -0.122  10.546  18.579  0.00  0.00    +0.000 C 
ATOM     19  N   UNL     1       0.473   9.688  19.570  0.00  0.00    +0.000 N 
ATOM     20  C   UNL     1       0.150   9.678  20.892  0.00  0.00    +0.000 A 
ATOM     21  N   UNL     1       0.881   8.793  21.519  0.00  0.00    +0.000 NA
ATOM     22  N   UNL     1       1.705   8.202  20.590  0.00  0.00    +0.000 NA
ATOM     23  C   UNL     1       1.459   8.741  19.413  0.00  0.00    +0.000 A 
ENDBRANCH  17  23
ENDBRANCH  11  17
ENDBRANCH   1  15
BRANCH   6  24
ATOM     24  C   UNL     1       8.457   9.839  18.403  0.00  0.00    +0.000 C 
ATOM     25  C   UNL     1       9.489  10.390  17.432  0.00  0.00    +0.000 C 
ATOM     26  C   UNL     1      10.091  11.530  18.213  0.00  0.00    +0.000 C 
ATOM     27  C   UNL     1      10.074  10.998  19.629  0.00  0.00    +0.000 C 
ATOM     28  O   UNL     1       8.955  10.107  19.730  0.00  0.00    +0.000 OA
ENDBRANCH   6  24
BRANCH   4  29
ATOM     29  C   UNL     1       8.175   5.177  20.325  0.00  0.00    +0.000 C 
ATOM     30  F   UNL     1       9.447   4.757  20.590  0.00  0.00    +0.000 F 
ENDBRANCH   4  29
TORSDOF 5
ENDMDL
