MODEL 1
REMARK VINA RESULT:      -9.0      0.000      0.000
REMARK  Name = 
REMARK  8 active torsions:
REMARK  status: ('A' for Active; 'I' for Inactive)
REMARK    1  A    between atoms: C_2  and  C_3
REMARK    2  A    between atoms: C_3  and  C_4
REMARK    3  A    between atoms: N_10  and  C_11
REMARK    4  A    between atoms: C_11  and  C_12
REMARK    5  A    between atoms: C_12  and  C_13
REMARK    6  A    between atoms: C_13  and  C_14
REMARK    7  A    between atoms: N_22  and  C_23
REMARK    8  A    between atoms: C_23  and  C_24
REMARK                            x       y       z     vdW  Elec       q    Type
REMARK                         _______ _______ _______ _____ _____    ______ ____
ROOT
ATOM      1  C   UNL     1       4.619   5.096  18.087  0.00  0.00    +0.000 A 
ATOM      2  N   UNL     1       5.935   4.921  18.129  0.00  0.00    +0.000 NA
ATOM      3  C   UNL     1       6.184   4.700  16.800  0.00  0.00    +0.000 A 
ATOM      4  C   UNL     1       7.308   5.001  16.028  0.00  0.00    +0.000 A 
ATOM      5  C   UNL     1       7.227   4.773  14.651  0.00  0.00    +0.000 A 
ATOM      6  C   UNL     1       6.079   4.211  14.073  0.00  0.00    +0.000 A 
ATOM      7  C   UNL     1       4.957   3.874  14.836  0.00  0.00    +0.000 A 
ATOM      8  C   UNL     1       5.042   4.175  16.190  0.00  0.00    +0.000 A 
ATOM      9  N   UNL     1       4.145   4.068  17.255  0.00  0.00    +0.000 N 
ENDROOT
BRANCH   1  10
ATOM     10  C   UNL     1       4.053   6.508  17.926  0.00  0.00    +0.000 C 
BRANCH  10  11
ATOM     11  C   UNL     1       2.541   6.604  18.205  0.00  0.00    +0.000 C 
BRANCH  11  12
ATOM     12  C   UNL     1       2.243   7.671  19.258  0.00  0.00    +0.000 C 
BRANCH  12  15
ATOM     13  O   UNL     1       0.422   9.326  20.663  0.00  0.00    +0.000 OA
ATOM     14  C   UNL     1       0.721   9.610  19.505  0.00  0.00    +0.000 C 
ATOM     15  N   UNL     1       1.540   8.822  18.723  0.00  0.00    +0.000 N 
ATOM     16  H   UNL     1       1.846   9.179  17.826  0.00  0.00    +0.000 HD
BRANCH  14  17
ATOM     17  C   UNL     1       0.207  10.866  18.818  0.00  0.00    +0.000 C 
BRANCH  17  18
ATOM     18  C   UNL     1      -1.234  10.784  18.365  0.00  0.00    +0.000 A 
ATOM     19  C   UNL     1      -2.218  11.593  18.955  0.00  0.00    +0.000 A 
ATOM     20  C   UNL     1      -3.533  11.580  18.478  0.00  0.00    +0.000 A 
ATOM     21  C   UNL     1      -3.879  10.761  17.407  0.00  0.00    +0.000 A 
ATOM     22  C   UNL     1      -2.916   9.944  16.818  0.00  0.00    +0.000 A 
ATOM     23  C   UNL     1      -1.602   9.955  17.295  0.00  0.00    +0.000 A 
ENDBRANCH  17  18
ENDBRANCH  14  17
ENDBRANCH  12  15
ENDBRANCH  11  12
ENDBRANCH  10  11
ENDBRANCH   1  10
BRANCH   9  24
ATOM     24  C   UNL     1       3.731   2.738  17.727  0.00  0.00    +0.000 C 
BRANCH  24  25
ATOM     25  C   UNL     1       2.849   2.722  18.954  0.00  0.00    +0.000 A 
ATOM     26  C   UNL     1       1.486   3.070  18.859  0.00  0.00    +0.000 A 
ATOM     27  C   UNL     1       0.731   3.297  20.021  0.00  0.00    +0.000 A 
ATOM     28  C   UNL     1       1.298   3.136  21.275  0.00  0.00    +0.000 A 
ATOM     29  C   UNL     1       2.624   2.726  21.388  0.00  0.00    +0.000 A 
ATOM     30  C   UNL     1       3.387   2.529  20.225  0.00  0.00    +0.000 A 
ATOM     31  F   UNL     1       4.681   2.211  20.367  0.00  0.00    +0.000 F 
ENDBRANCH  24  25
ENDBRANCH   9  24
TORSDOF 8
ENDMDL
MODEL 2
REMARK VINA RESULT:      -8.9      1.219      1.506
REMARK  Name = 
REMARK  8 active torsions:
REMARK  status: ('A' for Active; 'I' for Inactive)
REMARK    1  A    between atoms: C_2  and  C_3
REMARK    2  A    between atoms: C_3  and  C_4
REMARK    3  A    between atoms: N_10  and  C_11
REMARK    4  A    between atoms: C_11  and  C_12
REMARK    5  A    between atoms: C_12  and  C_13
REMARK    6  A    between atoms: C_13  and  C_14
REMARK    7  A    between atoms: N_22  and  C_23
REMARK    8  A    between atoms: C_23  and  C_24
REMARK                            x       y       z     vdW  Elec       q    Type
REMARK                         _______ _______ _______ _____ _____    ______ ____
ROOT
ATOM      1  C   UNL     1       4.743   5.473  17.966  0.00  0.00    +0.000 A 
ATOM      2  N   UNL     1       6.038   5.186  18.025  0.00  0.00    +0.000 NA
ATOM      3  C   UNL     1       6.271   4.880  16.710  0.00  0.00    +0.000 A 
ATOM      4  C   UNL     1       7.419   5.045  15.933  0.00  0.00    +0.000 A 
ATOM      5  C   UNL     1       7.323   4.760  14.567  0.00  0.00    +0.000 A 
ATOM      6  C   UNL     1       6.132   4.273  14.008  0.00  0.00    +0.000 A 
ATOM      7  C   UNL     1       4.982   4.072  14.778  0.00  0.00    +0.000 A 
ATOM      8  C   UNL     1       5.089   4.428  16.117  0.00  0.00    +0.000 A 
ATOM      9  N   UNL     1       4.183   4.451  17.180  0.00  0.00    +0.000 N 
ENDROOT
BRANCH   1  10
ATOM     10  C   UNL     1       4.304   6.920  17.734  0.00  0.00    +0.000 C 
BRANCH  10  11
ATOM     11  C   UNL     1       2.783   7.132  17.863  0.00  0.00    +0.000 C 
BRANCH  11  12
ATOM     12  C   UNL     1       2.439   8.620  17.916  0.00  0.00    +0.000 C 
BRANCH  12  15
ATOM     13  O   UNL     1       1.320  11.177  18.406  0.00  0.00    +0.000 OA
ATOM     14  C   UNL     1       0.682  10.173  18.717  0.00  0.00    +0.000 C 
ATOM     15  N   UNL     1       1.180   8.893  18.583  0.00  0.00    +0.000 N 
ATOM     16  H   UNL     1       0.556   8.110  18.738  0.00  0.00    +0.000 HD
BRANCH  14  17
ATOM     17  C   UNL     1      -0.725  10.248  19.290  0.00  0.00    +0.000 C 
BRANCH  17  18
ATOM     18  C   UNL     1      -1.810  10.447  18.255  0.00  0.00    +0.000 A 
ATOM     19  C   UNL     1      -2.862  11.347  18.482  0.00  0.00    +0.000 A 
ATOM     20  C   UNL     1      -3.817  11.594  17.491  0.00  0.00    +0.000 A 
ATOM     21  C   UNL     1      -3.731  10.946  16.262  0.00  0.00    +0.000 A 
ATOM     22  C   UNL     1      -2.698  10.041  16.025  0.00  0.00    +0.000 A 
ATOM     23  C   UNL     1      -1.744   9.792  17.016  0.00  0.00    +0.000 A 
ENDBRANCH  17  18
ENDBRANCH  14  17
ENDBRANCH  12  15
ENDBRANCH  11  12
ENDBRANCH  10  11
ENDBRANCH   1  10
BRANCH   9  24
ATOM     24  C   UNL     1       3.653   3.187  17.711  0.00  0.00    +0.000 C 
BRANCH  24  25
ATOM     25  C   UNL     1       2.868   3.293  18.998  0.00  0.00    +0.000 A 
ATOM     26  C   UNL     1       3.392   2.772  20.199  0.00  0.00    +0.000 A 
ATOM     27  C   UNL     1       2.573   2.645  21.333  0.00  0.00    +0.000 A 
ATOM     28  C   UNL     1       1.254   3.071  21.302  0.00  0.00    +0.000 A 
ATOM     29  C   UNL     1       0.739   3.650  20.145  0.00  0.00    +0.000 A 
ATOM     30  C   UNL     1       1.552   3.749  19.003  0.00  0.00    +0.000 A 
ATOM     31  F   UNL     1       1.005   4.238  17.882  0.00  0.00    +0.000 F 
ENDBRANCH  24  25
ENDBRANCH   9  24
TORSDOF 8
ENDMDL
MODEL 3
REMARK VINA RESULT:      -8.9      1.847      5.046
REMARK  Name = 
REMARK  8 active torsions:
REMARK  status: ('A' for Active; 'I' for Inactive)
REMARK    1  A    between atoms: C_2  and  C_3
REMARK    2  A    between atoms: C_3  and  C_4
REMARK    3  A    between atoms: N_10  and  C_11
REMARK    4  A    between atoms: C_11  and  C_12
REMARK    5  A    between atoms: C_12  and  C_13
REMARK    6  A    between atoms: C_13  and  C_14
REMARK    7  A    between atoms: N_22  and  C_23
REMARK    8  A    between atoms: C_23  and  C_24
REMARK                            x       y       z     vdW  Elec       q    Type
REMARK                         _______ _______ _______ _____ _____    ______ ____
ROOT
ATOM      1  C   UNL     1       2.183   4.704  17.750  0.00  0.00    +0.000 A 
ATOM      2  N   UNL     1       1.181   3.850  17.922  0.00  0.00    +0.000 NA
ATOM      3  C   UNL     1       1.499   3.361  19.162  0.00  0.00    +0.000 A 
ATOM      4  C   UNL     1       0.676   2.903  20.192  0.00  0.00    +0.000 A 
ATOM      5  C   UNL     1       1.281   2.583  21.411  0.00  0.00    +0.000 A 
ATOM      6  C   UNL     1       2.672   2.664  21.576  0.00  0.00    +0.000 A 
ATOM      7  C   UNL     1       3.514   3.091  20.545  0.00  0.00    +0.000 A 
ATOM      8  C   UNL     1       2.877   3.467  19.369  0.00  0.00    +0.000 A 
ATOM      9  N   UNL     1       3.330   4.001  18.160  0.00  0.00    +0.000 N 
ENDROOT
BRANCH   1  10
ATOM     10  C   UNL     1       2.010   6.163  18.177  0.00  0.00    +0.000 C 
BRANCH  10  11
ATOM     11  C   UNL     1       3.255   7.034  17.922  0.00  0.00    +0.000 C 
BRANCH  11  12
ATOM     12  C   UNL     1       2.865   8.488  17.660  0.00  0.00    +0.000 C 
BRANCH  12  15
ATOM     13  O   UNL     1       2.000  11.111  18.292  0.00  0.00    +0.000 OA
ATOM     14  C   UNL     1       1.229  10.168  18.459  0.00  0.00    +0.000 C 
ATOM     15  N   UNL     1       1.591   8.853  18.249  0.00  0.00    +0.000 N 
ATOM     16  H   UNL     1       0.872   8.140  18.284  0.00  0.00    +0.000 HD
BRANCH  14  17
ATOM     17  C   UNL     1      -0.206  10.364  18.925  0.00  0.00    +0.000 C 
BRANCH  17  18
ATOM     18  C   UNL     1      -0.379  10.369  20.427  0.00  0.00    +0.000 A 
ATOM     19  C   UNL     1      -0.841  11.515  21.092  0.00  0.00    +0.000 A 
ATOM     20  C   UNL     1      -1.084  11.492  22.469  0.00  0.00    +0.000 A 
ATOM     21  C   UNL     1      -0.870  10.324  23.197  0.00  0.00    +0.000 A 
ATOM     22  C   UNL     1      -0.401   9.181  22.552  0.00  0.00    +0.000 A 
ATOM     23  C   UNL     1      -0.157   9.203  21.176  0.00  0.00    +0.000 A 
ENDBRANCH  17  18
ENDBRANCH  14  17
ENDBRANCH  12  15
ENDBRANCH  11  12
ENDBRANCH  10  11
ENDBRANCH   1  10
BRANCH   9  24
ATOM     24  C   UNL     1       4.166   3.181  17.271  0.00  0.00    +0.000 C 
BRANCH  24  25
ATOM     25  C   UNL     1       5.199   3.933  16.463  0.00  0.00    +0.000 A 
ATOM     26  C   UNL     1       5.119   3.966  15.055  0.00  0.00    +0.000 A 
ATOM     27  C   UNL     1       6.199   4.444  14.296  0.00  0.00    +0.000 A 
ATOM     28  C   UNL     1       7.337   4.935  14.918  0.00  0.00    +0.000 A 
ATOM     29  C   UNL     1       7.405   4.974  16.308  0.00  0.00    +0.000 A 
ATOM     30  C   UNL     1       6.336   4.467  17.065  0.00  0.00    +0.000 A 
ATOM     31  F   UNL     1       6.463   4.445  18.399  0.00  0.00    +0.000 F 
ENDBRANCH  24  25
ENDBRANCH   9  24
TORSDOF 8
ENDMDL
MODEL 4
REMARK VINA RESULT:      -8.7      1.196      1.605
REMARK  Name = 
REMARK  8 active torsions:
REMARK  status: ('A' for Active; 'I' for Inactive)
REMARK    1  A    between atoms: C_2  and  C_3
REMARK    2  A    between atoms: C_3  and  C_4
REMARK    3  A    between atoms: N_10  and  C_11
REMARK    4  A    between atoms: C_11  and  C_12
REMARK    5  A    between atoms: C_12  and  C_13
REMARK    6  A    between atoms: C_13  and  C_14
REMARK    7  A    between atoms: N_22  and  C_23
REMARK    8  A    between atoms: C_23  and  C_24
REMARK                            x       y       z     vdW  Elec       q    Type
REMARK                         _______ _______ _______ _____ _____    ______ ____
ROOT
ATOM      1  C   UNL     1       3.472   5.846  18.188  0.00  0.00    +0.000 A 
ATOM      2  N   UNL     1       4.196   5.731  19.296  0.00  0.00    +0.000 NA
ATOM      3  C   UNL     1       5.401   5.372  18.753  0.00  0.00    +0.000 A 
ATOM      4  C   UNL     1       6.702   5.630  19.188  0.00  0.00    +0.000 A 
ATOM      5  C   UNL     1       7.753   5.246  18.350  0.00  0.00    +0.000 A 
ATOM      6  C   UNL     1       7.512   4.575  17.142  0.00  0.00    +0.000 A 
ATOM      7  C   UNL     1       6.217   4.281  16.706  0.00  0.00    +0.000 A 
ATOM      8  C   UNL     1       5.192   4.735  17.527  0.00  0.00    +0.000 A 
ATOM      9  N   UNL     1       3.799   4.712  17.425  0.00  0.00    +0.000 N 
ENDROOT
BRANCH   1  10
ATOM     10  C   UNL     1       3.367   7.207  17.497  0.00  0.00    +0.000 C 
BRANCH  10  11
ATOM     11  C   UNL     1       2.172   8.053  17.974  0.00  0.00    +0.000 C 
BRANCH  11  12
ATOM     12  C   UNL     1       2.560   9.524  18.113  0.00  0.00    +0.000 C 
BRANCH  12  15
ATOM     13  O   UNL     1       0.670  10.147  20.130  0.00  0.00    +0.000 OA
ATOM     14  C   UNL     1       0.602  10.722  19.045  0.00  0.00    +0.000 C 
ATOM     15  N   UNL     1       1.433  10.428  17.983  0.00  0.00    +0.000 N 
ATOM     16  H   UNL     1       1.406  11.025  17.165  0.00  0.00    +0.000 HD
BRANCH  14  17
ATOM     17  C   UNL     1      -0.418  11.816  18.768  0.00  0.00    +0.000 C 
BRANCH  17  18
ATOM     18  C   UNL     1      -1.809  11.309  18.462  0.00  0.00    +0.000 A 
ATOM     19  C   UNL     1      -2.941  12.030  18.871  0.00  0.00    +0.000 A 
ATOM     20  C   UNL     1      -4.225  11.606  18.514  0.00  0.00    +0.000 A 
ATOM     21  C   UNL     1      -4.393  10.459  17.743  0.00  0.00    +0.000 A 
ATOM     22  C   UNL     1      -3.279   9.726  17.339  0.00  0.00    +0.000 A 
ATOM     23  C   UNL     1      -1.995  10.147  17.696  0.00  0.00    +0.000 A 
ENDBRANCH  17  18
ENDBRANCH  14  17
ENDBRANCH  12  15
ENDBRANCH  11  12
ENDBRANCH  10  11
ENDBRANCH   1  10
BRANCH   9  24
ATOM     24  C   UNL     1       3.086   3.428  17.494  0.00  0.00    +0.000 C 
BRANCH  24  25
ATOM     25  C   UNL     1       2.504   3.071  18.842  0.00  0.00    +0.000 A 
ATOM     26  C   UNL     1       1.166   3.394  19.151  0.00  0.00    +0.000 A 
ATOM     27  C   UNL     1       0.700   3.292  20.472  0.00  0.00    +0.000 A 
ATOM     28  C   UNL     1       1.532   2.829  21.481  0.00  0.00    +0.000 A 
ATOM     29  C   UNL     1       2.835   2.441  21.181  0.00  0.00    +0.000 A 
ATOM     30  C   UNL     1       3.308   2.572  19.864  0.00  0.00    +0.000 A 
ATOM     31  F   UNL     1       4.590   2.266  19.623  0.00  0.00    +0.000 F 
ENDBRANCH  24  25
ENDBRANCH   9  24
TORSDOF 8
ENDMDL
MODEL 5
REMARK VINA RESULT:      -8.7      1.179      1.790
REMARK  Name = 
REMARK  8 active torsions:
REMARK  status: ('A' for Active; 'I' for Inactive)
REMARK    1  A    between atoms: C_2  and  C_3
REMARK    2  A    between atoms: C_3  and  C_4
REMARK    3  A    between atoms: N_10  and  C_11
REMARK    4  A    between atoms: C_11  and  C_12
REMARK    5  A    between atoms: C_12  and  C_13
REMARK    6  A    between atoms: C_13  and  C_14
REMARK    7  A    between atoms: N_22  and  C_23
REMARK    8  A    between atoms: C_23  and  C_24
REMARK                            x       y       z     vdW  Elec       q    Type
REMARK                         _______ _______ _______ _____ _____    ______ ____
ROOT
ATOM      1  C   UNL     1       3.526   5.912  18.369  0.00  0.00    +0.000 A 
ATOM      2  N   UNL     1       4.308   5.708  19.422  0.00  0.00    +0.000 NA
ATOM      3  C   UNL     1       5.467   5.345  18.788  0.00  0.00    +0.000 A 
ATOM      4  C   UNL     1       6.799   5.536  19.157  0.00  0.00    +0.000 A 
ATOM      5  C   UNL     1       7.785   5.170  18.237  0.00  0.00    +0.000 A 
ATOM      6  C   UNL     1       7.451   4.580  17.009  0.00  0.00    +0.000 A 
ATOM      7  C   UNL     1       6.123   4.352  16.635  0.00  0.00    +0.000 A 
ATOM      8  C   UNL     1       5.164   4.789  17.541  0.00  0.00    +0.000 A 
ATOM      9  N   UNL     1       3.768   4.815  17.523  0.00  0.00    +0.000 N 
ENDROOT
BRANCH   1  10
ATOM     10  C   UNL     1       3.428   7.314  17.764  0.00  0.00    +0.000 C 
BRANCH  10  11
ATOM     11  C   UNL     1       2.010   7.913  17.818  0.00  0.00    +0.000 C 
BRANCH  11  12
ATOM     12  C   UNL     1       1.888   8.937  18.946  0.00  0.00    +0.000 C 
BRANCH  12  15
ATOM     13  O   UNL     1      -0.459   9.391  20.467  0.00  0.00    +0.000 OA
ATOM     14  C   UNL     1      -0.197  10.142  19.529  0.00  0.00    +0.000 C 
ATOM     15  N   UNL     1       0.883   9.952  18.691  0.00  0.00    +0.000 N 
ATOM     16  H   UNL     1       1.112  10.676  18.021  0.00  0.00    +0.000 HD
BRANCH  14  17
ATOM     17  C   UNL     1      -1.049  11.357  19.198  0.00  0.00    +0.000 C 
BRANCH  17  18
ATOM     18  C   UNL     1      -2.104  11.111  18.142  0.00  0.00    +0.000 A 
ATOM     19  C   UNL     1      -1.856  10.241  17.070  0.00  0.00    +0.000 A 
ATOM     20  C   UNL     1      -2.860   9.947  16.142  0.00  0.00    +0.000 A 
ATOM     21  C   UNL     1      -4.123  10.518  16.276  0.00  0.00    +0.000 A 
ATOM     22  C   UNL     1      -4.381  11.393  17.329  0.00  0.00    +0.000 A 
ATOM     23  C   UNL     1      -3.377  11.689  18.256  0.00  0.00    +0.000 A 
ENDBRANCH  17  18
ENDBRANCH  14  17
ENDBRANCH  12  15
ENDBRANCH  11  12
ENDBRANCH  10  11
ENDBRANCH   1  10
BRANCH   9  24
ATOM     24  C   UNL     1       3.016   3.552  17.561  0.00  0.00    +0.000 C 
BRANCH  24  25
ATOM     25  C   UNL     1       2.477   3.149  18.914  0.00  0.00    +0.000 A 
ATOM     26  C   UNL     1       1.166   3.500  19.295  0.00  0.00    +0.000 A 
ATOM     27  C   UNL     1       0.751   3.348  20.628  0.00  0.00    +0.000 A 
ATOM     28  C   UNL     1       1.606   2.809  21.577  0.00  0.00    +0.000 A 
ATOM     29  C   UNL     1       2.881   2.394  21.204  0.00  0.00    +0.000 A 
ATOM     30  C   UNL     1       3.305   2.574  19.876  0.00  0.00    +0.000 A 
ATOM     31  F   UNL     1       4.564   2.238  19.566  0.00  0.00    +0.000 F 
ENDBRANCH  24  25
ENDBRANCH   9  24
TORSDOF 8
ENDMDL
MODEL 6
REMARK VINA RESULT:      -8.6      1.868      4.627
REMARK  Name = 
REMARK  8 active torsions:
REMARK  status: ('A' for Active; 'I' for Inactive)
REMARK    1  A    between atoms: C_2  and  C_3
REMARK    2  A    between atoms: C_3  and  C_4
REMARK    3  A    between atoms: N_10  and  C_11
REMARK    4  A    between atoms: C_11  and  C_12
REMARK    5  A    between atoms: C_12  and  C_13
REMARK    6  A    between atoms: C_13  and  C_14
REMARK    7  A    between atoms: N_22  and  C_23
REMARK    8  A    between atoms: C_23  and  C_24
REMARK                            x       y       z     vdW  Elec       q    Type
REMARK                         _______ _______ _______ _____ _____    ______ ____
ROOT
ATOM      1  C   UNL     1       2.335   5.000  17.655  0.00  0.00    +0.000 A 
ATOM      2  N   UNL     1       1.636   3.872  17.617  0.00  0.00    +0.000 NA
ATOM      3  C   UNL     1       1.722   3.498  18.932  0.00  0.00    +0.000 A 
ATOM      4  C   UNL     1       0.821   2.794  19.733  0.00  0.00    +0.000 A 
ATOM      5  C   UNL     1       1.123   2.671  21.092  0.00  0.00    +0.000 A 
ATOM      6  C   UNL     1       2.315   3.186  21.622  0.00  0.00    +0.000 A 
ATOM      7  C   UNL     1       3.244   3.866  20.828  0.00  0.00    +0.000 A 
ATOM      8  C   UNL     1       2.884   4.031  19.496  0.00  0.00    +0.000 A 
ATOM      9  N   UNL     1       3.475   4.691  18.416  0.00  0.00    +0.000 N 
ENDROOT
BRANCH   1  10
ATOM     10  C   UNL     1       1.612   6.326  17.897  0.00  0.00    +0.000 C 
BRANCH  10  11
ATOM     11  C   UNL     1       2.562   7.515  18.132  0.00  0.00    +0.000 C 
BRANCH  11  12
ATOM     12  C   UNL     1       2.050   8.414  19.258  0.00  0.00    +0.000 C 
BRANCH  12  15
ATOM     13  O   UNL     1      -0.376   9.301  20.421  0.00  0.00    +0.000 OA
ATOM     14  C   UNL     1       0.086   9.910  19.459  0.00  0.00    +0.000 C 
ATOM     15  N   UNL     1       1.221   9.506  18.785  0.00  0.00    +0.000 N 
ATOM     16  H   UNL     1       1.616  10.123  18.085  0.00  0.00    +0.000 HD
BRANCH  14  17
ATOM     17  C   UNL     1      -0.558  11.175  18.912  0.00  0.00    +0.000 C 
BRANCH  17  18
ATOM     18  C   UNL     1      -1.811  10.937  18.100  0.00  0.00    +0.000 A 
ATOM     19  C   UNL     1      -2.974  11.684  18.341  0.00  0.00    +0.000 A 
ATOM     20  C   UNL     1      -4.105  11.523  17.534  0.00  0.00    +0.000 A 
ATOM     21  C   UNL     1      -4.087  10.617  16.478  0.00  0.00    +0.000 A 
ATOM     22  C   UNL     1      -2.943   9.860  16.233  0.00  0.00    +0.000 A 
ATOM     23  C   UNL     1      -1.812  10.018  17.040  0.00  0.00    +0.000 A 
ENDBRANCH  17  18
ENDBRANCH  14  17
ENDBRANCH  12  15
ENDBRANCH  11  12
ENDBRANCH  10  11
ENDBRANCH   1  10
BRANCH   9  24
ATOM     24  C   UNL     1       4.738   4.186  17.858  0.00  0.00    +0.000 C 
BRANCH  24  25
ATOM     25  C   UNL     1       5.892   5.162  17.854  0.00  0.00    +0.000 A 
ATOM     26  C   UNL     1       6.925   5.051  18.808  0.00  0.00    +0.000 A 
ATOM     27  C   UNL     1       7.857   6.090  18.966  0.00  0.00    +0.000 A 
ATOM     28  C   UNL     1       7.805   7.215  18.157  0.00  0.00    +0.000 A 
ATOM     29  C   UNL     1       6.833   7.310  17.164  0.00  0.00    +0.000 A 
ATOM     30  C   UNL     1       5.883   6.283  17.028  0.00  0.00    +0.000 A 
ATOM     31  F   UNL     1       4.914   6.440  16.117  0.00  0.00    +0.000 F 
ENDBRANCH  24  25
ENDBRANCH   9  24
TORSDOF 8
ENDMDL
MODEL 7
REMARK VINA RESULT:      -8.4      1.931      2.708
REMARK  Name = 
REMARK  8 active torsions:
REMARK  status: ('A' for Active; 'I' for Inactive)
REMARK    1  A    between atoms: C_2  and  C_3
REMARK    2  A    between atoms: C_3  and  C_4
REMARK    3  A    between atoms: N_10  and  C_11
REMARK    4  A    between atoms: C_11  and  C_12
REMARK    5  A    between atoms: C_12  and  C_13
REMARK    6  A    between atoms: C_13  and  C_14
REMARK    7  A    between atoms: N_22  and  C_23
REMARK    8  A    between atoms: C_23  and  C_24
REMARK                            x       y       z     vdW  Elec       q    Type
REMARK                         _______ _______ _______ _____ _____    ______ ____
ROOT
ATOM      1  C   UNL     1       4.233   5.670  17.752  0.00  0.00    +0.000 A 
ATOM      2  N   UNL     1       5.519   5.660  18.081  0.00  0.00    +0.000 NA
ATOM      3  C   UNL     1       6.062   5.238  16.896  0.00  0.00    +0.000 A 
ATOM      4  C   UNL     1       7.297   5.527  16.313  0.00  0.00    +0.000 A 
ATOM      5  C   UNL     1       7.528   5.052  15.019  0.00  0.00    +0.000 A 
ATOM      6  C   UNL     1       6.578   4.266  14.351  0.00  0.00    +0.000 A 
ATOM      7  C   UNL     1       5.348   3.941  14.933  0.00  0.00    +0.000 A 
ATOM      8  C   UNL     1       5.120   4.483  16.191  0.00  0.00    +0.000 A 
ATOM      9  N   UNL     1       4.028   4.463  17.062  0.00  0.00    +0.000 N 
ENDROOT
BRANCH   1  10
ATOM     10  C   UNL     1       3.606   6.956  17.209  0.00  0.00    +0.000 C 
BRANCH  10  11
ATOM     11  C   UNL     1       2.644   7.641  18.198  0.00  0.00    +0.000 C 
BRANCH  11  12
ATOM     12  C   UNL     1       2.245   9.031  17.704  0.00  0.00    +0.000 C 
BRANCH  12  15
ATOM     13  O   UNL     1       1.955  11.760  18.407  0.00  0.00    +0.000 OA
ATOM     14  C   UNL     1       1.060  10.968  18.693  0.00  0.00    +0.000 C 
ATOM     15  N   UNL     1       1.149   9.612  18.455  0.00  0.00    +0.000 N 
ATOM     16  H   UNL     1       0.326   9.038  18.598  0.00  0.00    +0.000 HD
BRANCH  14  17
ATOM     17  C   UNL     1      -0.240  11.412  19.346  0.00  0.00    +0.000 C 
BRANCH  17  18
ATOM     18  C   UNL     1      -0.402  10.965  20.781  0.00  0.00    +0.000 A 
ATOM     19  C   UNL     1      -1.095  11.760  21.707  0.00  0.00    +0.000 A 
ATOM     20  C   UNL     1      -1.319  11.307  23.011  0.00  0.00    +0.000 A 
ATOM     21  C   UNL     1      -0.856  10.054  23.404  0.00  0.00    +0.000 A 
ATOM     22  C   UNL     1      -0.157   9.257  22.500  0.00  0.00    +0.000 A 
ATOM     23  C   UNL     1       0.069   9.710  21.196  0.00  0.00    +0.000 A 
ENDBRANCH  17  18
ENDBRANCH  14  17
ENDBRANCH  12  15
ENDBRANCH  11  12
ENDBRANCH  10  11
ENDBRANCH   1  10
BRANCH   9  24
ATOM     24  C   UNL     1       3.628   3.198  17.698  0.00  0.00    +0.000 C 
BRANCH  24  25
ATOM     25  C   UNL     1       2.871   3.328  18.999  0.00  0.00    +0.000 A 
ATOM     26  C   UNL     1       3.427   2.842  20.201  0.00  0.00    +0.000 A 
ATOM     27  C   UNL     1       2.635   2.734  21.355  0.00  0.00    +0.000 A 
ATOM     28  C   UNL     1       1.311   3.146  21.344  0.00  0.00    +0.000 A 
ATOM     29  C   UNL     1       0.765   3.691  20.185  0.00  0.00    +0.000 A 
ATOM     30  C   UNL     1       1.551   3.771  19.023  0.00  0.00    +0.000 A 
ATOM     31  F   UNL     1       0.974   4.227  17.903  0.00  0.00    +0.000 F 
ENDBRANCH  24  25
ENDBRANCH   9  24
TORSDOF 8
ENDMDL
MODEL 8
REMARK VINA RESULT:      -8.4      1.297      4.599
REMARK  Name = 
REMARK  8 active torsions:
REMARK  status: ('A' for Active; 'I' for Inactive)
REMARK    1  A    between atoms: C_2  and  C_3
REMARK    2  A    between atoms: C_3  and  C_4
REMARK    3  A    between atoms: N_10  and  C_11
REMARK    4  A    between atoms: C_11  and  C_12
REMARK    5  A    between atoms: C_12  and  C_13
REMARK    6  A    between atoms: C_13  and  C_14
REMARK    7  A    between atoms: N_22  and  C_23
REMARK    8  A    between atoms: C_23  and  C_24
REMARK                            x       y       z     vdW  Elec       q    Type
REMARK                         _______ _______ _______ _____ _____    ______ ____
ROOT
ATOM      1  C   UNL     1       2.336   4.850  17.777  0.00  0.00    +0.000 A 
ATOM      2  N   UNL     1       1.293   4.035  17.890  0.00  0.00    +0.000 NA
ATOM      3  C   UNL     1       1.555   3.488  19.118  0.00  0.00    +0.000 A 
ATOM      4  C   UNL     1       0.684   3.030  20.108  0.00  0.00    +0.000 A 
ATOM      5  C   UNL     1       1.240   2.640  21.330  0.00  0.00    +0.000 A 
ATOM      6  C   UNL     1       2.628   2.655  21.536  0.00  0.00    +0.000 A 
ATOM      7  C   UNL     1       3.517   3.082  20.544  0.00  0.00    +0.000 A 
ATOM      8  C   UNL     1       2.930   3.527  19.366  0.00  0.00    +0.000 A 
ATOM      9  N   UNL     1       3.439   4.084  18.191  0.00  0.00    +0.000 N 
ENDROOT
BRANCH   1  10
ATOM     10  C   UNL     1       2.212   6.299  18.252  0.00  0.00    +0.000 C 
BRANCH  10  11
ATOM     11  C   UNL     1       3.064   7.292  17.439  0.00  0.00    +0.000 C 
BRANCH  11  12
ATOM     12  C   UNL     1       2.857   8.725  17.930  0.00  0.00    +0.000 C 
BRANCH  12  15
ATOM     13  O   UNL     1       1.442  11.163  18.209  0.00  0.00    +0.000 OA
ATOM     14  C   UNL     1       0.951  10.129  18.659  0.00  0.00    +0.000 C 
ATOM     15  N   UNL     1       1.603   8.913  18.633  0.00  0.00    +0.000 N 
ATOM     16  H   UNL     1       1.091   8.081  18.903  0.00  0.00    +0.000 HD
BRANCH  14  17
ATOM     17  C   UNL     1      -0.429  10.095  19.297  0.00  0.00    +0.000 C 
BRANCH  17  18
ATOM     18  C   UNL     1      -1.566  10.383  18.341  0.00  0.00    +0.000 A 
ATOM     19  C   UNL     1      -2.609  11.246  18.708  0.00  0.00    +0.000 A 
ATOM     20  C   UNL     1      -3.614  11.580  17.795  0.00  0.00    +0.000 A 
ATOM     21  C   UNL     1      -3.587  11.057  16.505  0.00  0.00    +0.000 A 
ATOM     22  C   UNL     1      -2.563  10.190  16.129  0.00  0.00    +0.000 A 
ATOM     23  C   UNL     1      -1.559   9.854  17.042  0.00  0.00    +0.000 A 
ENDBRANCH  17  18
ENDBRANCH  14  17
ENDBRANCH  12  15
ENDBRANCH  11  12
ENDBRANCH  10  11
ENDBRANCH   1  10
BRANCH   9  24
ATOM     24  C   UNL     1       4.265   3.262  17.295  0.00  0.00    +0.000 C 
BRANCH  24  25
ATOM     25  C   UNL     1       5.215   4.020  16.396  0.00  0.00    +0.000 A 
ATOM     26  C   UNL     1       5.000   4.062  15.003  0.00  0.00    +0.000 A 
ATOM     27  C   UNL     1       6.001   4.547  14.147  0.00  0.00    +0.000 A 
ATOM     28  C   UNL     1       7.194   5.035  14.659  0.00  0.00    +0.000 A 
ATOM     29  C   UNL     1       7.396   5.064  16.037  0.00  0.00    +0.000 A 
ATOM     30  C   UNL     1       6.404   4.550  16.890  0.00  0.00    +0.000 A 
ATOM     31  F   UNL     1       6.660   4.520  18.205  0.00  0.00    +0.000 F 
ENDBRANCH  24  25
ENDBRANCH   9  24
TORSDOF 8
ENDMDL
MODEL 9
REMARK VINA RESULT:      -8.4      1.876      2.565
REMARK  Name = 
REMARK  8 active torsions:
REMARK  status: ('A' for Active; 'I' for Inactive)
REMARK    1  A    between atoms: C_2  and  C_3
REMARK    2  A    between atoms: C_3  and  C_4
REMARK    3  A    between atoms: N_10  and  C_11
REMARK    4  A    between atoms: C_11  and  C_12
REMARK    5  A    between atoms: C_12  and  C_13
REMARK    6  A    between atoms: C_13  and  C_14
REMARK    7  A    between atoms: N_22  and  C_23
REMARK    8  A    between atoms: C_23  and  C_24
REMARK                            x       y       z     vdW  Elec       q    Type
REMARK                         _______ _______ _______ _____ _____    ______ ____
ROOT
ATOM      1  C   UNL     1       4.324   5.639  17.959  0.00  0.00    +0.000 A 
ATOM      2  N   UNL     1       5.622   5.523  18.215  0.00  0.00    +0.000 NA
ATOM      3  C   UNL     1       6.075   5.165  16.972  0.00  0.00    +0.000 A 
ATOM      4  C   UNL     1       7.295   5.424  16.346  0.00  0.00    +0.000 A 
ATOM      5  C   UNL     1       7.430   5.043  15.008  0.00  0.00    +0.000 A 
ATOM      6  C   UNL     1       6.397   4.374  14.334  0.00  0.00    +0.000 A 
ATOM      7  C   UNL     1       5.179   4.079  14.956  0.00  0.00    +0.000 A 
ATOM      8  C   UNL     1       5.051   4.531  16.264  0.00  0.00    +0.000 A 
ATOM      9  N   UNL     1       4.005   4.507  17.190  0.00  0.00    +0.000 N 
ENDROOT
BRANCH   1  10
ATOM     10  C   UNL     1       3.757   7.001  17.554  0.00  0.00    +0.000 C 
BRANCH  10  11
ATOM     11  C   UNL     1       2.470   7.385  18.309  0.00  0.00    +0.000 C 
BRANCH  11  12
ATOM     12  C   UNL     1       1.829   8.633  17.703  0.00  0.00    +0.000 C 
BRANCH  12  15
ATOM     13  O   UNL     1      -0.467   9.808  18.876  0.00  0.00    +0.000 OA
ATOM     14  C   UNL     1       0.646  10.227  19.186  0.00  0.00    +0.000 C 
ATOM     15  N   UNL     1       1.812   9.765  18.610  0.00  0.00    +0.000 N 
ATOM     16  H   UNL     1       2.699  10.062  19.001  0.00  0.00    +0.000 HD
BRANCH  14  17
ATOM     17  C   UNL     1       0.845  11.309  20.237  0.00  0.00    +0.000 C 
BRANCH  17  18
ATOM     18  C   UNL     1      -0.354  11.540  21.129  0.00  0.00    +0.000 A 
ATOM     19  C   UNL     1      -0.459  10.898  22.371  0.00  0.00    +0.000 A 
ATOM     20  C   UNL     1      -1.525  11.178  23.232  0.00  0.00    +0.000 A 
ATOM     21  C   UNL     1      -2.496  12.104  22.863  0.00  0.00    +0.000 A 
ATOM     22  C   UNL     1      -2.412  12.743  21.627  0.00  0.00    +0.000 A 
ATOM     23  C   UNL     1      -1.348  12.462  20.765  0.00  0.00    +0.000 A 
ENDBRANCH  17  18
ENDBRANCH  14  17
ENDBRANCH  12  15
ENDBRANCH  11  12
ENDBRANCH  10  11
ENDBRANCH   1  10
BRANCH   9  24
ATOM     24  C   UNL     1       3.555   3.222  17.745  0.00  0.00    +0.000 C 
BRANCH  24  25
ATOM     25  C   UNL     1       2.807   3.299  19.057  0.00  0.00    +0.000 A 
ATOM     26  C   UNL     1       3.413   2.858  20.251  0.00  0.00    +0.000 A 
ATOM     27  C   UNL     1       2.645   2.695  21.416  0.00  0.00    +0.000 A 
ATOM     28  C   UNL     1       1.295   3.011  21.422  0.00  0.00    +0.000 A 
ATOM     29  C   UNL     1       0.696   3.513  20.269  0.00  0.00    +0.000 A 
ATOM     30  C   UNL     1       1.459   3.646  19.097  0.00  0.00    +0.000 A 
ATOM     31  F   UNL     1       0.836   4.056  17.984  0.00  0.00    +0.000 F 
ENDBRANCH  24  25
ENDBRANCH   9  24
TORSDOF 8
ENDMDL
