MODEL 1
REMARK VINA RESULT:      -8.2      0.000      0.000
REMARK  Name = 
REMARK  8 active torsions:
REMARK  status: ('A' for Active; 'I' for Inactive)
REMARK    1  A    between atoms: C_1  and  C_2
REMARK    2  A    between atoms: C_5  and  C_6
REMARK    3  A    between atoms: C_7  and  C_8
REMARK    4  A    between atoms: C_8  and  O_9
REMARK    5  A    between atoms: O_9  and  C_10
REMARK    6  A    between atoms: C_14  and  C_15
REMARK    7  A    between atoms: C_15  and  O_17
REMARK    8  A    between atoms: O_17  and  C_18
REMARK                            x       y       z     vdW  Elec       q    Type
REMARK                         _______ _______ _______ _____ _____    ______ ____
ROOT
ATOM      1  C   UNL     1       1.768   5.129  20.557  0.00  0.00    +0.000 A 
ATOM      2  C   UNL     1       2.021   4.228  21.593  0.00  0.00    +0.000 A 
ATOM      3  C   UNL     1       2.612   2.991  21.324  0.00  0.00    +0.000 A 
ATOM      4  C   UNL     1       2.939   2.643  20.011  0.00  0.00    +0.000 A 
ATOM      5  C   UNL     1       2.653   3.528  18.963  0.00  0.00    +0.000 A 
ATOM      6  C   UNL     1       2.061   4.767  19.244  0.00  0.00    +0.000 A 
ENDROOT
BRANCH   5   7
ATOM      7  C   UNL     1       2.992   3.251  17.542  0.00  0.00    +0.000 C 
ATOM      8  O   UNL     1       2.159   3.263  16.645  0.00  0.00    +0.000 OA
BRANCH   7   9
ATOM      9  O   UNL     1       4.351   3.042  17.416  0.00  0.00    +0.000 OA
BRANCH   9  10
ATOM     10  C   UNL     1       5.172   4.158  17.174  0.00  0.00    +0.000 A 
ATOM     11  C   UNL     1       4.964   4.998  16.063  0.00  0.00    +0.000 A 
ATOM     12  C   UNL     1       5.699   6.175  15.926  0.00  0.00    +0.000 A 
ATOM     13  C   UNL     1       6.598   6.485  16.925  0.00  0.00    +0.000 A 
ATOM     14  C   UNL     1       6.793   5.662  18.012  0.00  0.00    +0.000 A 
ATOM     15  C   UNL     1       6.099   4.482  18.168  0.00  0.00    +0.000 A 
ATOM     16  O   UNL     1       7.703   6.171  18.887  0.00  0.00    +0.000 OA
ATOM     17  C   UNL     1       8.000   7.438  18.261  0.00  0.00    +0.000 C 
ATOM     18  O   UNL     1       7.358   7.611  16.982  0.00  0.00    +0.000 OA
ENDBRANCH   9  10
ENDBRANCH   7   9
ENDBRANCH   5   7
BRANCH   1  19
ATOM     19  O   UNL     1       1.229   6.329  20.932  0.00  0.00    +0.000 OA
BRANCH  19  20
ATOM     20  C   UNL     1       2.043   7.478  20.669  0.00  0.00    +0.000 C 
BRANCH  20  27
ATOM     21  C   UNL     1      -0.217   9.067  22.358  0.00  0.00    +0.000 C 
ATOM     22  C   UNL     1       0.227   9.322  20.967  0.00  0.00    +0.000 A 
ATOM     23  N   UNL     1      -0.304  10.324  20.259  0.00  0.00    +0.000 NA
ATOM     24  O   UNL     1       0.327  10.293  19.031  0.00  0.00    +0.000 OA
ATOM     25  C   UNL     1       1.234   9.281  19.010  0.00  0.00    +0.000 A 
ATOM     26  C   UNL     1       2.014   9.122  17.769  0.00  0.00    +0.000 C 
ATOM     27  C   UNL     1       1.213   8.624  20.222  0.00  0.00    +0.000 A 
ENDBRANCH  20  27
ENDBRANCH  19  20
ENDBRANCH   1  19
TORSDOF 6
ENDMDL
MODEL 2
REMARK VINA RESULT:      -8.1      2.562      6.710
REMARK  Name = 
REMARK  8 active torsions:
REMARK  status: ('A' for Active; 'I' for Inactive)
REMARK    1  A    between atoms: C_1  and  C_2
REMARK    2  A    between atoms: C_5  and  C_6
REMARK    3  A    between atoms: C_7  and  C_8
REMARK    4  A    between atoms: C_8  and  O_9
REMARK    5  A    between atoms: O_9  and  C_10
REMARK    6  A    between atoms: C_14  and  C_15
REMARK    7  A    between atoms: C_15  and  O_17
REMARK    8  A    between atoms: O_17  and  C_18
REMARK                            x       y       z     vdW  Elec       q    Type
REMARK                         _______ _______ _______ _____ _____    ______ ____
ROOT
ATOM      1  C   UNL     1       3.698   3.117  17.744  0.00  0.00    +0.000 A 
ATOM      2  C   UNL     1       3.228   1.839  18.050  0.00  0.00    +0.000 A 
ATOM      3  C   UNL     1       2.280   1.658  19.059  0.00  0.00    +0.000 A 
ATOM      4  C   UNL     1       1.807   2.757  19.780  0.00  0.00    +0.000 A 
ATOM      5  C   UNL     1       2.302   4.038  19.502  0.00  0.00    +0.000 A 
ATOM      6  C   UNL     1       3.254   4.209  18.487  0.00  0.00    +0.000 A 
ENDROOT
BRANCH   5   7
ATOM      7  C   UNL     1       1.835   5.265  20.201  0.00  0.00    +0.000 C 
ATOM      8  O   UNL     1       0.826   5.293  20.893  0.00  0.00    +0.000 OA
BRANCH   7   9
ATOM      9  O   UNL     1       2.726   6.296  19.983  0.00  0.00    +0.000 OA
BRANCH   9  10
ATOM     10  C   UNL     1       2.213   7.537  19.562  0.00  0.00    +0.000 A 
ATOM     11  C   UNL     1       2.237   7.920  18.207  0.00  0.00    +0.000 A 
ATOM     12  C   UNL     1       1.594   9.089  17.798  0.00  0.00    +0.000 A 
ATOM     13  C   UNL     1       0.924   9.817  18.758  0.00  0.00    +0.000 A 
ATOM     14  C   UNL     1       0.900   9.433  20.081  0.00  0.00    +0.000 A 
ATOM     15  C   UNL     1       1.541   8.296  20.523  0.00  0.00    +0.000 A 
ATOM     16  O   UNL     1       0.159  10.278  20.849  0.00  0.00    +0.000 OA
ATOM     17  C   UNL     1      -0.336  11.191  19.845  0.00  0.00    +0.000 C 
ATOM     18  O   UNL     1       0.203  10.947  18.531  0.00  0.00    +0.000 OA
ENDBRANCH   9  10
ENDBRANCH   7   9
ENDBRANCH   5   7
BRANCH   1  19
ATOM     19  O   UNL     1       4.591   3.191  16.711  0.00  0.00    +0.000 OA
BRANCH  19  20
ATOM     20  C   UNL     1       4.485   4.360  15.889  0.00  0.00    +0.000 C 
BRANCH  20  27
ATOM     21  C   UNL     1       6.345   3.887  13.281  0.00  0.00    +0.000 C 
ATOM     22  C   UNL     1       6.634   4.731  14.465  0.00  0.00    +0.000 A 
ATOM     23  N   UNL     1       7.771   5.432  14.536  0.00  0.00    +0.000 NA
ATOM     24  O   UNL     1       7.722   6.106  15.740  0.00  0.00    +0.000 OA
ATOM     25  C   UNL     1       6.560   5.813  16.380  0.00  0.00    +0.000 A 
ATOM     26  C   UNL     1       6.341   6.471  17.682  0.00  0.00    +0.000 C 
ATOM     27  C   UNL     1       5.824   4.936  15.613  0.00  0.00    +0.000 A 
ENDBRANCH  20  27
ENDBRANCH  19  20
ENDBRANCH   1  19
TORSDOF 6
ENDMDL
MODEL 3
REMARK VINA RESULT:      -8.1      0.856      1.702
REMARK  Name = 
REMARK  8 active torsions:
REMARK  status: ('A' for Active; 'I' for Inactive)
REMARK    1  A    between atoms: C_1  and  C_2
REMARK    2  A    between atoms: C_5  and  C_6
REMARK    3  A    between atoms: C_7  and  C_8
REMARK    4  A    between atoms: C_8  and  O_9
REMARK    5  A    between atoms: O_9  and  C_10
REMARK    6  A    between atoms: C_14  and  C_15
REMARK    7  A    between atoms: C_15  and  O_17
REMARK    8  A    between atoms: O_17  and  C_18
REMARK                            x       y       z     vdW  Elec       q    Type
REMARK                         _______ _______ _______ _____ _____    ______ ____
ROOT
ATOM      1  C   UNL     1       1.552   4.908  20.406  0.00  0.00    +0.000 A 
ATOM      2  C   UNL     1       1.430   3.874  21.336  0.00  0.00    +0.000 A 
ATOM      3  C   UNL     1       1.795   2.571  20.995  0.00  0.00    +0.000 A 
ATOM      4  C   UNL     1       2.271   2.291  19.712  0.00  0.00    +0.000 A 
ATOM      5  C   UNL     1       2.361   3.316  18.762  0.00  0.00    +0.000 A 
ATOM      6  C   UNL     1       1.992   4.622  19.115  0.00  0.00    +0.000 A 
ENDROOT
BRANCH   5   7
ATOM      7  C   UNL     1       2.881   3.113  17.384  0.00  0.00    +0.000 C 
ATOM      8  O   UNL     1       2.176   3.200  16.387  0.00  0.00    +0.000 OA
BRANCH   7   9
ATOM      9  O   UNL     1       4.240   2.875  17.426  0.00  0.00    +0.000 OA
BRANCH   9  10
ATOM     10  C   UNL     1       5.109   3.944  17.138  0.00  0.00    +0.000 A 
ATOM     11  C   UNL     1       5.050   4.628  15.910  0.00  0.00    +0.000 A 
ATOM     12  C   UNL     1       5.822   5.772  15.707  0.00  0.00    +0.000 A 
ATOM     13  C   UNL     1       6.604   6.207  16.755  0.00  0.00    +0.000 A 
ATOM     14  C   UNL     1       6.653   5.535  17.958  0.00  0.00    +0.000 A 
ATOM     15  C   UNL     1       5.920   4.391  18.184  0.00  0.00    +0.000 A 
ATOM     16  O   UNL     1       7.465   6.152  18.859  0.00  0.00    +0.000 OA
ATOM     17  C   UNL     1       7.861   7.321  18.111  0.00  0.00    +0.000 C 
ATOM     18  O   UNL     1       7.377   7.326  16.754  0.00  0.00    +0.000 OA
ENDBRANCH   9  10
ENDBRANCH   7   9
ENDBRANCH   5   7
BRANCH   1  19
ATOM     19  O   UNL     1       1.210   6.154  20.853  0.00  0.00    +0.000 OA
BRANCH  19  20
ATOM     20  C   UNL     1       2.210   7.166  20.679  0.00  0.00    +0.000 C 
BRANCH  20  27
ATOM     21  C   UNL     1       3.197   7.676  17.638  0.00  0.00    +0.000 C 
ATOM     22  C   UNL     1       2.175   8.431  18.402  0.00  0.00    +0.000 A 
ATOM     23  N   UNL     1       1.520   9.449  17.835  0.00  0.00    +0.000 NA
ATOM     24  O   UNL     1       0.648   9.918  18.798  0.00  0.00    +0.000 OA
ATOM     25  C   UNL     1       0.780   9.179  19.931  0.00  0.00    +0.000 A 
ATOM     26  C   UNL     1      -0.100   9.540  21.058  0.00  0.00    +0.000 C 
ATOM     27  C   UNL     1       1.744   8.213  19.737  0.00  0.00    +0.000 A 
ENDBRANCH  20  27
ENDBRANCH  19  20
ENDBRANCH   1  19
TORSDOF 6
ENDMDL
MODEL 4
REMARK VINA RESULT:      -8.0      3.254      8.054
REMARK  Name = 
REMARK  8 active torsions:
REMARK  status: ('A' for Active; 'I' for Inactive)
REMARK    1  A    between atoms: C_1  and  C_2
REMARK    2  A    between atoms: C_5  and  C_6
REMARK    3  A    between atoms: C_7  and  C_8
REMARK    4  A    between atoms: C_8  and  O_9
REMARK    5  A    between atoms: O_9  and  C_10
REMARK    6  A    between atoms: C_14  and  C_15
REMARK    7  A    between atoms: C_15  and  O_17
REMARK    8  A    between atoms: O_17  and  C_18
REMARK                            x       y       z     vdW  Elec       q    Type
REMARK                         _______ _______ _______ _____ _____    ______ ____
ROOT
ATOM      1  C   UNL     1       2.876   5.776  18.183  0.00  0.00    +0.000 A 
ATOM      2  C   UNL     1       2.664   5.270  19.467  0.00  0.00    +0.000 A 
ATOM      3  C   UNL     1       2.118   6.081  20.464  0.00  0.00    +0.000 A 
ATOM      4  C   UNL     1       1.794   7.410  20.185  0.00  0.00    +0.000 A 
ATOM      5  C   UNL     1       2.038   7.935  18.909  0.00  0.00    +0.000 A 
ATOM      6  C   UNL     1       2.587   7.112  17.915  0.00  0.00    +0.000 A 
ENDROOT
BRANCH   5   7
ATOM      7  C   UNL     1       1.699   9.329  18.518  0.00  0.00    +0.000 C 
ATOM      8  O   UNL     1       2.156   9.869  17.519  0.00  0.00    +0.000 OA
BRANCH   7   9
ATOM      9  O   UNL     1       0.784   9.856  19.407  0.00  0.00    +0.000 OA
BRANCH   9  10
ATOM     10  C   UNL     1      -0.458  10.283  18.903  0.00  0.00    +0.000 A 
ATOM     11  C   UNL     1      -1.152  11.364  19.479  0.00  0.00    +0.000 A 
ATOM     12  C   UNL     1      -2.307  11.858  18.873  0.00  0.00    +0.000 A 
ATOM     13  C   UNL     1      -2.710  11.269  17.693  0.00  0.00    +0.000 A 
ATOM     14  C   UNL     1      -2.023  10.215  17.132  0.00  0.00    +0.000 A 
ATOM     15  C   UNL     1      -0.890   9.689  17.714  0.00  0.00    +0.000 A 
ATOM     16  O   UNL     1      -2.576   9.807  15.957  0.00  0.00    +0.000 OA
ATOM     17  C   UNL     1      -3.642  10.769  15.812  0.00  0.00    +0.000 C 
ATOM     18  O   UNL     1      -3.777  11.653  16.943  0.00  0.00    +0.000 OA
ENDBRANCH   9  10
ENDBRANCH   7   9
ENDBRANCH   5   7
BRANCH   1  19
ATOM     19  O   UNL     1       3.373   4.889  17.269  0.00  0.00    +0.000 OA
BRANCH  19  20
ATOM     20  C   UNL     1       4.518   4.142  17.696  0.00  0.00    +0.000 C 
BRANCH  20  27
ATOM     21  C   UNL     1       5.473   4.381  14.612  0.00  0.00    +0.000 C 
ATOM     22  C   UNL     1       6.182   4.856  15.823  0.00  0.00    +0.000 A 
ATOM     23  N   UNL     1       7.355   5.488  15.718  0.00  0.00    +0.000 NA
ATOM     24  O   UNL     1       7.731   5.801  17.009  0.00  0.00    +0.000 OA
ATOM     25  C   UNL     1       6.784   5.362  17.879  0.00  0.00    +0.000 A 
ATOM     26  C   UNL     1       7.026   5.636  19.308  0.00  0.00    +0.000 C 
ATOM     27  C   UNL     1       5.769   4.748  17.177  0.00  0.00    +0.000 A 
ENDBRANCH  20  27
ENDBRANCH  19  20
ENDBRANCH   1  19
TORSDOF 6
ENDMDL
MODEL 5
REMARK VINA RESULT:      -8.0      3.297      7.919
REMARK  Name = 
REMARK  8 active torsions:
REMARK  status: ('A' for Active; 'I' for Inactive)
REMARK    1  A    between atoms: C_1  and  C_2
REMARK    2  A    between atoms: C_5  and  C_6
REMARK    3  A    between atoms: C_7  and  C_8
REMARK    4  A    between atoms: C_8  and  O_9
REMARK    5  A    between atoms: O_9  and  C_10
REMARK    6  A    between atoms: C_14  and  C_15
REMARK    7  A    between atoms: C_15  and  O_17
REMARK    8  A    between atoms: O_17  and  C_18
REMARK                            x       y       z     vdW  Elec       q    Type
REMARK                         _______ _______ _______ _____ _____    ______ ____
ROOT
ATOM      1  C   UNL     1       3.580   6.367  18.037  0.00  0.00    +0.000 A 
ATOM      2  C   UNL     1       3.500   5.125  18.670  0.00  0.00    +0.000 A 
ATOM      3  C   UNL     1       2.705   4.962  19.806  0.00  0.00    +0.000 A 
ATOM      4  C   UNL     1       1.995   6.047  20.325  0.00  0.00    +0.000 A 
ATOM      5  C   UNL     1       2.101   7.304  19.717  0.00  0.00    +0.000 A 
ATOM      6  C   UNL     1       2.902   7.458  18.576  0.00  0.00    +0.000 A 
ENDROOT
BRANCH   5   7
ATOM      7  C   UNL     1       1.360   8.506  20.186  0.00  0.00    +0.000 C 
ATOM      8  O   UNL     1       0.912   8.609  21.321  0.00  0.00    +0.000 OA
BRANCH   7   9
ATOM      9  O   UNL     1       1.318   9.452  19.183  0.00  0.00    +0.000 OA
BRANCH   9  10
ATOM     10  C   UNL     1       0.069  10.007  18.847  0.00  0.00    +0.000 A 
ATOM     11  C   UNL     1      -0.425  11.153  19.498  0.00  0.00    +0.000 A 
ATOM     12  C   UNL     1      -1.596  11.764  19.048  0.00  0.00    +0.000 A 
ATOM     13  C   UNL     1      -2.215  11.221  17.943  0.00  0.00    +0.000 A 
ATOM     14  C   UNL     1      -1.723  10.101  17.308  0.00  0.00    +0.000 A 
ATOM     15  C   UNL     1      -0.581   9.461  17.738  0.00  0.00    +0.000 A 
ATOM     16  O   UNL     1      -2.471   9.752  16.226  0.00  0.00    +0.000 OA
ATOM     17  C   UNL     1      -3.443  10.820  16.214  0.00  0.00    +0.000 C 
ATOM     18  O   UNL     1      -3.329  11.713  17.340  0.00  0.00    +0.000 OA
ENDBRANCH   9  10
ENDBRANCH   7   9
ENDBRANCH   5   7
BRANCH   1  19
ATOM     19  O   UNL     1       4.350   6.411  16.908  0.00  0.00    +0.000 OA
BRANCH  19  20
ATOM     20  C   UNL     1       5.687   6.892  17.093  0.00  0.00    +0.000 C 
BRANCH  20  27
ATOM     21  C   UNL     1       7.534   5.779  19.507  0.00  0.00    +0.000 C 
ATOM     22  C   UNL     1       7.467   5.286  18.111  0.00  0.00    +0.000 A 
ATOM     23  N   UNL     1       8.212   4.247  17.723  0.00  0.00    +0.000 NA
ATOM     24  O   UNL     1       7.908   4.042  16.391  0.00  0.00    +0.000 OA
ATOM     25  C   UNL     1       6.981   4.951  15.990  0.00  0.00    +0.000 A 
ATOM     26  C   UNL     1       6.530   4.857  14.590  0.00  0.00    +0.000 C 
ATOM     27  C   UNL     1       6.662   5.776  17.048  0.00  0.00    +0.000 A 
ENDBRANCH  20  27
ENDBRANCH  19  20
ENDBRANCH   1  19
TORSDOF 6
ENDMDL
MODEL 6
REMARK VINA RESULT:      -8.0      0.973      1.278
REMARK  Name = 
REMARK  8 active torsions:
REMARK  status: ('A' for Active; 'I' for Inactive)
REMARK    1  A    between atoms: C_1  and  C_2
REMARK    2  A    between atoms: C_5  and  C_6
REMARK    3  A    between atoms: C_7  and  C_8
REMARK    4  A    between atoms: C_8  and  O_9
REMARK    5  A    between atoms: O_9  and  C_10
REMARK    6  A    between atoms: C_14  and  C_15
REMARK    7  A    between atoms: C_15  and  O_17
REMARK    8  A    between atoms: O_17  and  C_18
REMARK                            x       y       z     vdW  Elec       q    Type
REMARK                         _______ _______ _______ _____ _____    ______ ____
ROOT
ATOM      1  C   UNL     1       1.603   5.129  20.489  0.00  0.00    +0.000 A 
ATOM      2  C   UNL     1       0.503   4.293  20.294  0.00  0.00    +0.000 A 
ATOM      3  C   UNL     1       0.675   3.012  19.765  0.00  0.00    +0.000 A 
ATOM      4  C   UNL     1       1.951   2.566  19.413  0.00  0.00    +0.000 A 
ATOM      5  C   UNL     1       3.054   3.415  19.571  0.00  0.00    +0.000 A 
ATOM      6  C   UNL     1       2.871   4.699  20.104  0.00  0.00    +0.000 A 
ENDROOT
BRANCH   5   7
ATOM      7  C   UNL     1       4.449   3.013  19.248  0.00  0.00    +0.000 C 
ATOM      8  O   UNL     1       5.201   2.503  20.069  0.00  0.00    +0.000 OA
BRANCH   7   9
ATOM      9  O   UNL     1       4.710   3.256  17.915  0.00  0.00    +0.000 OA
BRANCH   9  10
ATOM     10  C   UNL     1       5.327   4.473  17.573  0.00  0.00    +0.000 A 
ATOM     11  C   UNL     1       4.715   5.384  16.690  0.00  0.00    +0.000 A 
ATOM     12  C   UNL     1       5.279   6.643  16.481  0.00  0.00    +0.000 A 
ATOM     13  C   UNL     1       6.420   6.956  17.187  0.00  0.00    +0.000 A 
ATOM     14  C   UNL     1       7.011   6.062  18.054  0.00  0.00    +0.000 A 
ATOM     15  C   UNL     1       6.493   4.803  18.268  0.00  0.00    +0.000 A 
ATOM     16  O   UNL     1       8.108   6.585  18.664  0.00  0.00    +0.000 OA
ATOM     17  C   UNL     1       8.096   7.929  18.137  0.00  0.00    +0.000 C 
ATOM     18  O   UNL     1       7.072   8.148  17.147  0.00  0.00    +0.000 OA
ENDBRANCH   9  10
ENDBRANCH   7   9
ENDBRANCH   5   7
BRANCH   1  19
ATOM     19  O   UNL     1       1.333   6.346  21.054  0.00  0.00    +0.000 OA
BRANCH  19  20
ATOM     20  C   UNL     1       2.132   7.436  20.578  0.00  0.00    +0.000 C 
BRANCH  20  27
ATOM     21  C   UNL     1      -0.135   8.981  22.296  0.00  0.00    +0.000 C 
ATOM     22  C   UNL     1       0.289   9.247  20.901  0.00  0.00    +0.000 A 
ATOM     23  N   UNL     1      -0.268  10.241  20.201  0.00  0.00    +0.000 NA
ATOM     24  O   UNL     1       0.350  10.224  18.967  0.00  0.00    +0.000 OA
ATOM     25  C   UNL     1       1.274   9.228  18.933  0.00  0.00    +0.000 A 
ATOM     26  C   UNL     1       2.042   9.085  17.682  0.00  0.00    +0.000 C 
ATOM     27  C   UNL     1       1.278   8.568  20.143  0.00  0.00    +0.000 A 
ENDBRANCH  20  27
ENDBRANCH  19  20
ENDBRANCH   1  19
TORSDOF 6
ENDMDL
MODEL 7
REMARK VINA RESULT:      -7.9      0.870      1.790
REMARK  Name = 
REMARK  8 active torsions:
REMARK  status: ('A' for Active; 'I' for Inactive)
REMARK    1  A    between atoms: C_1  and  C_2
REMARK    2  A    between atoms: C_5  and  C_6
REMARK    3  A    between atoms: C_7  and  C_8
REMARK    4  A    between atoms: C_8  and  O_9
REMARK    5  A    between atoms: O_9  and  C_10
REMARK    6  A    between atoms: C_14  and  C_15
REMARK    7  A    between atoms: C_15  and  O_17
REMARK    8  A    between atoms: O_17  and  C_18
REMARK                            x       y       z     vdW  Elec       q    Type
REMARK                         _______ _______ _______ _____ _____    ______ ____
ROOT
ATOM      1  C   UNL     1       2.055   6.202  19.816  0.00  0.00    +0.000 A 
ATOM      2  C   UNL     1       1.820   5.565  21.036  0.00  0.00    +0.000 A 
ATOM      3  C   UNL     1       1.937   4.177  21.140  0.00  0.00    +0.000 A 
ATOM      4  C   UNL     1       2.276   3.417  20.018  0.00  0.00    +0.000 A 
ATOM      5  C   UNL     1       2.476   4.048  18.784  0.00  0.00    +0.000 A 
ATOM      6  C   UNL     1       2.356   5.441  18.689  0.00  0.00    +0.000 A 
ENDROOT
BRANCH   5   7
ATOM      7  C   UNL     1       2.865   3.320  17.546  0.00  0.00    +0.000 C 
ATOM      8  O   UNL     1       2.073   3.065  16.648  0.00  0.00    +0.000 OA
BRANCH   7   9
ATOM      9  O   UNL     1       4.218   3.047  17.569  0.00  0.00    +0.000 OA
BRANCH   9  10
ATOM     10  C   UNL     1       5.110   4.095  17.278  0.00  0.00    +0.000 A 
ATOM     11  C   UNL     1       5.014   4.831  16.082  0.00  0.00    +0.000 A 
ATOM     12  C   UNL     1       5.817   5.954  15.884  0.00  0.00    +0.000 A 
ATOM     13  C   UNL     1       6.667   6.318  16.906  0.00  0.00    +0.000 A 
ATOM     14  C   UNL     1       6.753   5.596  18.077  0.00  0.00    +0.000 A 
ATOM     15  C   UNL     1       5.989   4.470  18.296  0.00  0.00    +0.000 A 
ATOM     16  O   UNL     1       7.632   6.146  18.958  0.00  0.00    +0.000 OA
ATOM     17  C   UNL     1       8.032   7.331  18.236  0.00  0.00    +0.000 C 
ATOM     18  O   UNL     1       7.480   7.408  16.907  0.00  0.00    +0.000 OA
ENDBRANCH   9  10
ENDBRANCH   7   9
ENDBRANCH   5   7
BRANCH   1  19
ATOM     19  O   UNL     1       1.958   7.567  19.831  0.00  0.00    +0.000 OA
BRANCH  19  20
ATOM     20  C   UNL     1       1.451   8.135  21.044  0.00  0.00    +0.000 C 
BRANCH  20  27
ATOM     21  C   UNL     1       1.204   9.739  18.243  0.00  0.00    +0.000 C 
ATOM     22  C   UNL     1       0.551  10.058  19.534  0.00  0.00    +0.000 A 
ATOM     23  N   UNL     1      -0.270  11.107  19.638  0.00  0.00    +0.000 NA
ATOM     24  O   UNL     1      -0.709  11.114  20.947  0.00  0.00    +0.000 OA
ATOM     25  C   UNL     1      -0.155  10.071  21.619  0.00  0.00    +0.000 A 
ATOM     26  C   UNL     1      -0.539   9.922  23.035  0.00  0.00    +0.000 C 
ATOM     27  C   UNL     1       0.662   9.360  20.766  0.00  0.00    +0.000 A 
ENDBRANCH  20  27
ENDBRANCH  19  20
ENDBRANCH   1  19
TORSDOF 6
ENDMDL
MODEL 8
REMARK VINA RESULT:      -7.9      1.240      2.115
REMARK  Name = 
REMARK  8 active torsions:
REMARK  status: ('A' for Active; 'I' for Inactive)
REMARK    1  A    between atoms: C_1  and  C_2
REMARK    2  A    between atoms: C_5  and  C_6
REMARK    3  A    between atoms: C_7  and  C_8
REMARK    4  A    between atoms: C_8  and  O_9
REMARK    5  A    between atoms: O_9  and  C_10
REMARK    6  A    between atoms: C_14  and  C_15
REMARK    7  A    between atoms: C_15  and  O_17
REMARK    8  A    between atoms: O_17  and  C_18
REMARK                            x       y       z     vdW  Elec       q    Type
REMARK                         _______ _______ _______ _____ _____    ______ ____
ROOT
ATOM      1  C   UNL     1       2.019   5.581  20.461  0.00  0.00    +0.000 A 
ATOM      2  C   UNL     1       0.810   4.883  20.462  0.00  0.00    +0.000 A 
ATOM      3  C   UNL     1       0.772   3.537  20.095  0.00  0.00    +0.000 A 
ATOM      4  C   UNL     1       1.944   2.884  19.708  0.00  0.00    +0.000 A 
ATOM      5  C   UNL     1       3.155   3.589  19.669  0.00  0.00    +0.000 A 
ATOM      6  C   UNL     1       3.182   4.941  20.041  0.00  0.00    +0.000 A 
ENDROOT
BRANCH   5   7
ATOM      7  C   UNL     1       4.453   2.966  19.297  0.00  0.00    +0.000 C 
ATOM      8  O   UNL     1       5.141   2.338  20.091  0.00  0.00    +0.000 OA
BRANCH   7   9
ATOM      9  O   UNL     1       4.702   3.168  17.954  0.00  0.00    +0.000 OA
BRANCH   9  10
ATOM     10  C   UNL     1       5.341   4.362  17.572  0.00  0.00    +0.000 A 
ATOM     11  C   UNL     1       4.789   5.209  16.592  0.00  0.00    +0.000 A 
ATOM     12  C   UNL     1       5.367   6.453  16.335  0.00  0.00    +0.000 A 
ATOM     13  C   UNL     1       6.460   6.816  17.092  0.00  0.00    +0.000 A 
ATOM     14  C   UNL     1       6.991   5.985  18.054  0.00  0.00    +0.000 A 
ATOM     15  C   UNL     1       6.459   4.742  18.319  0.00  0.00    +0.000 A 
ATOM     16  O   UNL     1       8.047   6.551  18.699  0.00  0.00    +0.000 OA
ATOM     17  C   UNL     1       8.071   7.857  18.083  0.00  0.00    +0.000 C 
ATOM     18  O   UNL     1       7.114   8.006  17.015  0.00  0.00    +0.000 OA
ENDBRANCH   9  10
ENDBRANCH   7   9
ENDBRANCH   5   7
BRANCH   1  19
ATOM     19  O   UNL     1       1.955   6.882  20.880  0.00  0.00    +0.000 OA
BRANCH  19  20
ATOM     20  C   UNL     1       0.637   7.434  20.976  0.00  0.00    +0.000 C 
BRANCH  20  27
ATOM     21  C   UNL     1       1.366   9.414  18.521  0.00  0.00    +0.000 C 
ATOM     22  C   UNL     1       0.997   9.782  19.908  0.00  0.00    +0.000 A 
ATOM     23  N   UNL     1       0.912  11.067  20.269  0.00  0.00    +0.000 NA
ATOM     24  O   UNL     1       0.543  11.060  21.600  0.00  0.00    +0.000 OA
ATOM     25  C   UNL     1       0.403   9.778  22.028  0.00  0.00    +0.000 A 
ATOM     26  C   UNL     1      -0.009   9.594  23.432  0.00  0.00    +0.000 C 
ATOM     27  C   UNL     1       0.683   8.916  20.989  0.00  0.00    +0.000 A 
ENDBRANCH  20  27
ENDBRANCH  19  20
ENDBRANCH   1  19
TORSDOF 6
ENDMDL
MODEL 9
REMARK VINA RESULT:      -7.8      3.000      7.736
REMARK  Name = 
REMARK  8 active torsions:
REMARK  status: ('A' for Active; 'I' for Inactive)
REMARK    1  A    between atoms: C_1  and  C_2
REMARK    2  A    between atoms: C_5  and  C_6
REMARK    3  A    between atoms: C_7  and  C_8
REMARK    4  A    between atoms: C_8  and  O_9
REMARK    5  A    between atoms: O_9  and  C_10
REMARK    6  A    between atoms: C_14  and  C_15
REMARK    7  A    between atoms: C_15  and  O_17
REMARK    8  A    between atoms: O_17  and  C_18
REMARK                            x       y       z     vdW  Elec       q    Type
REMARK                         _______ _______ _______ _____ _____    ______ ____
ROOT
ATOM      1  C   UNL     1       3.249   4.834  17.823  0.00  0.00    +0.000 A 
ATOM      2  C   UNL     1       3.033   4.077  18.975  0.00  0.00    +0.000 A 
ATOM      3  C   UNL     1       2.500   4.671  20.121  0.00  0.00    +0.000 A 
ATOM      4  C   UNL     1       2.194   6.033  20.124  0.00  0.00    +0.000 A 
ATOM      5  C   UNL     1       2.442   6.807  18.982  0.00  0.00    +0.000 A 
ATOM      6  C   UNL     1       2.977   6.200  17.837  0.00  0.00    +0.000 A 
ENDROOT
BRANCH   5   7
ATOM      7  C   UNL     1       2.121   8.256  18.889  0.00  0.00    +0.000 C 
ATOM      8  O   UNL     1       2.455   8.951  17.938  0.00  0.00    +0.000 OA
BRANCH   7   9
ATOM      9  O   UNL     1       1.373   8.642  19.982  0.00  0.00    +0.000 OA
BRANCH   9  10
ATOM     10  C   UNL     1       0.701   9.876  19.923  0.00  0.00    +0.000 A 
ATOM     11  C   UNL     1      -0.344  10.101  19.006  0.00  0.00    +0.000 A 
ATOM     12  C   UNL     1      -1.086  11.280  19.065  0.00  0.00    +0.000 A 
ATOM     13  C   UNL     1      -0.775  12.180  20.062  0.00  0.00    +0.000 A 
ATOM     14  C   UNL     1       0.245  11.952  20.959  0.00  0.00    +0.000 A 
ATOM     15  C   UNL     1       1.012  10.808  20.916  0.00  0.00    +0.000 A 
ATOM     16  O   UNL     1       0.362  12.954  21.873  0.00  0.00    +0.000 OA
ATOM     17  C   UNL     1      -0.745  13.798  21.490  0.00  0.00    +0.000 C 
ATOM     18  O   UNL     1      -1.424  13.351  20.300  0.00  0.00    +0.000 OA
ENDBRANCH   9  10
ENDBRANCH   7   9
ENDBRANCH   5   7
BRANCH   1  19
ATOM     19  O   UNL     1       3.732   4.148  16.742  0.00  0.00    +0.000 OA
BRANCH  19  20
ATOM     20  C   UNL     1       5.045   3.597  16.901  0.00  0.00    +0.000 C 
BRANCH  20  27
ATOM     21  C   UNL     1       6.016   3.838  13.822  0.00  0.00    +0.000 C 
ATOM     22  C   UNL     1       6.492   4.616  14.990  0.00  0.00    +0.000 A 
ATOM     23  N   UNL     1       7.421   5.565  14.838  0.00  0.00    +0.000 NA
ATOM     24  O   UNL     1       7.627   6.094  16.097  0.00  0.00    +0.000 OA
ATOM     25  C   UNL     1       6.821   5.466  16.993  0.00  0.00    +0.000 A 
ATOM     26  C   UNL     1       6.904   5.929  18.391  0.00  0.00    +0.000 C 
ATOM     27  C   UNL     1       6.073   4.508  16.342  0.00  0.00    +0.000 A 
ENDBRANCH  20  27
ENDBRANCH  19  20
ENDBRANCH   1  19
TORSDOF 6
ENDMDL
