MODEL 1
REMARK VINA RESULT:      -7.9      0.000      0.000
REMARK  Name = 
REMARK  2 active torsions:
REMARK  status: ('A' for Active; 'I' for Inactive)
REMARK    1  A    between atoms: C_4  and  C_5
REMARK    2  A    between atoms: N_9  and  C_10
REMARK                            x       y       z     vdW  Elec       q    Type
REMARK                         _______ _______ _______ _____ _____    ______ ____
ROOT
ATOM      1  C   UNL     1       3.615   2.830  20.346  0.00  0.00    +0.000 C 
ATOM      2  C   UNL     1       2.228   2.410  19.832  0.00  0.00    +0.000 C 
ATOM      3  C   UNL     1       2.073   2.409  18.305  0.00  0.00    +0.000 C 
ATOM      4  C   UNL     1       2.772   3.593  17.626  0.00  0.00    +0.000 C 
ATOM      5  N   UNL     1       4.181   3.594  18.068  0.00  0.00    +0.000 N 
ATOM      6  C   UNL     1       4.272   3.929  19.509  0.00  0.00    +0.000 C 
ENDROOT
BRANCH   5   7
ATOM      7  C   UNL     1       5.107   4.322  17.293  0.00  0.00    +0.000 A 
ATOM      8  N   UNL     1       5.601   5.493  17.748  0.00  0.00    +0.000 NA
ATOM      9  C   UNL     1       5.692   6.474  16.833  0.00  0.00    +0.000 A 
ATOM     10  N   UNL     1       5.244   6.436  15.553  0.00  0.00    +0.000 NA
ATOM     11  C   UNL     1       5.002   5.146  15.093  0.00  0.00    +0.000 A 
ATOM     12  C   UNL     1       5.453   4.124  15.949  0.00  0.00    +0.000 A 
ATOM     13  O   UNL     1       6.839   4.102  15.469  0.00  0.00    +0.000 OA
ATOM     14  C   UNL     1       6.771   4.500  14.132  0.00  0.00    +0.000 A 
ATOM     15  C   UNL     1       7.751   4.481  13.159  0.00  0.00    +0.000 A 
ATOM     16  C   UNL     1       7.307   3.890  11.974  0.00  0.00    +0.000 A 
ATOM     17  C   UNL     1       5.996   3.394  11.874  0.00  0.00    +0.000 A 
ATOM     18  C   UNL     1       5.007   3.771  12.804  0.00  0.00    +0.000 A 
ATOM     19  C   UNL     1       5.421   4.615  13.847  0.00  0.00    +0.000 A 
ENDBRANCH   5   7
BRANCH   1  23
ATOM     20  O   UNL     1       6.763  -0.142  22.196  0.00  0.00    +0.000 OA
ATOM     21  C   UNL     1       5.899   0.303  21.451  0.00  0.00    +0.000 A 
ATOM     22  N   UNL     1       5.161   1.425  21.669  0.00  0.00    +0.000 NA
ATOM     23  C   UNL     1       4.556   1.659  20.533  0.00  0.00    +0.000 A 
ATOM     24  N   UNL     1       4.863   0.757  19.529  0.00  0.00    +0.000 N 
ATOM     25  N   UNL     1       5.589  -0.214  20.194  0.00  0.00    +0.000 N 
ATOM     26  H   UNL     1       4.067   0.457  18.963  0.00  0.00    +0.000 HD
ATOM     27  H   UNL     1       6.356  -0.702  19.724  0.00  0.00    +0.000 HD
ENDBRANCH   1  23
TORSDOF 2
ENDMDL
MODEL 2
REMARK VINA RESULT:      -7.7      1.847      3.532
REMARK  Name = 
REMARK  2 active torsions:
REMARK  status: ('A' for Active; 'I' for Inactive)
REMARK    1  A    between atoms: C_4  and  C_5
REMARK    2  A    between atoms: N_9  and  C_10
REMARK                            x       y       z     vdW  Elec       q    Type
REMARK                         _______ _______ _______ _____ _____    ______ ____
ROOT
ATOM      1  C   UNL     1       3.079   2.966  20.239  0.00  0.00    +0.000 C 
ATOM      2  C   UNL     1       1.771   2.347  19.721  0.00  0.00    +0.000 C 
ATOM      3  C   UNL     1       1.644   2.279  18.193  0.00  0.00    +0.000 C 
ATOM      4  C   UNL     1       2.188   3.526  17.485  0.00  0.00    +0.000 C 
ATOM      5  N   UNL     1       3.576   3.732  17.945  0.00  0.00    +0.000 N 
ATOM      6  C   UNL     1       3.596   4.119  19.376  0.00  0.00    +0.000 C 
ENDROOT
BRANCH   5   7
ATOM      7  C   UNL     1       4.408   4.555  17.159  0.00  0.00    +0.000 A 
ATOM      8  N   UNL     1       4.447   4.400  15.819  0.00  0.00    +0.000 NA
ATOM      9  C   UNL     1       5.671   4.466  15.267  0.00  0.00    +0.000 A 
ATOM     10  N   UNL     1       6.855   4.562  15.923  0.00  0.00    +0.000 NA
ATOM     11  C   UNL     1       6.720   4.978  17.243  0.00  0.00    +0.000 A 
ATOM     12  C   UNL     1       5.428   5.415  17.591  0.00  0.00    +0.000 A 
ATOM     13  O   UNL     1       5.580   6.792  17.108  0.00  0.00    +0.000 OA
ATOM     14  C   UNL     1       6.940   7.081  17.244  0.00  0.00    +0.000 A 
ATOM     15  C   UNL     1       7.598   8.286  17.110  0.00  0.00    +0.000 A 
ATOM     16  C   UNL     1       8.450   8.547  18.186  0.00  0.00    +0.000 A 
ATOM     17  C   UNL     1       8.556   7.630  19.246  0.00  0.00    +0.000 A 
ATOM     18  C   UNL     1       8.097   6.305  19.106  0.00  0.00    +0.000 A 
ATOM     19  C   UNL     1       7.491   5.981  17.882  0.00  0.00    +0.000 A 
ENDBRANCH   5   7
BRANCH   1  23
ATOM     20  O   UNL     1       6.364   0.310  22.319  0.00  0.00    +0.000 OA
ATOM     21  C   UNL     1       5.563   0.705  21.480  0.00  0.00    +0.000 A 
ATOM     22  N   UNL     1       4.618   1.665  21.672  0.00  0.00    +0.000 NA
ATOM     23  C   UNL     1       4.167   1.940  20.475  0.00  0.00    +0.000 A 
ATOM     24  N   UNL     1       4.777   1.226  19.459  0.00  0.00    +0.000 N 
ATOM     25  N   UNL     1       5.547   0.303  20.145  0.00  0.00    +0.000 N 
ATOM     26  H   UNL     1       4.144   0.878  18.738  0.00  0.00    +0.000 HD
ATOM     27  H   UNL     1       6.450   0.001  19.772  0.00  0.00    +0.000 HD
ENDBRANCH   1  23
TORSDOF 2
ENDMDL
MODEL 3
REMARK VINA RESULT:      -7.5      2.519      3.816
REMARK  Name = 
REMARK  2 active torsions:
REMARK  status: ('A' for Active; 'I' for Inactive)
REMARK    1  A    between atoms: C_4  and  C_5
REMARK    2  A    between atoms: N_9  and  C_10
REMARK                            x       y       z     vdW  Elec       q    Type
REMARK                         _______ _______ _______ _____ _____    ______ ____
ROOT
ATOM      1  C   UNL     1       2.200   4.048  19.001  0.00  0.00    +0.000 C 
ATOM      2  C   UNL     1       2.549   2.877  19.935  0.00  0.00    +0.000 C 
ATOM      3  C   UNL     1       4.051   2.629  20.132  0.00  0.00    +0.000 C 
ATOM      4  C   UNL     1       4.867   2.800  18.845  0.00  0.00    +0.000 C 
ATOM      5  N   UNL     1       4.566   4.138  18.299  0.00  0.00    +0.000 N 
ATOM      6  C   UNL     1       3.163   4.200  17.822  0.00  0.00    +0.000 C 
ENDROOT
BRANCH   5   7
ATOM      7  C   UNL     1       5.471   4.680  17.363  0.00  0.00    +0.000 A 
ATOM      8  N   UNL     1       6.132   5.823  17.642  0.00  0.00    +0.000 NA
ATOM      9  C   UNL     1       6.223   6.699  16.626  0.00  0.00    +0.000 A 
ATOM     10  N   UNL     1       5.632   6.595  15.409  0.00  0.00    +0.000 NA
ATOM     11  C   UNL     1       5.206   5.305  15.112  0.00  0.00    +0.000 A 
ATOM     12  C   UNL     1       5.641   4.321  16.019  0.00  0.00    +0.000 A 
ATOM     13  O   UNL     1       6.954   4.095  15.405  0.00  0.00    +0.000 OA
ATOM     14  C   UNL     1       6.778   4.375  14.048  0.00  0.00    +0.000 A 
ATOM     15  C   UNL     1       7.635   4.153  12.989  0.00  0.00    +0.000 A 
ATOM     16  C   UNL     1       7.002   3.511  11.922  0.00  0.00    +0.000 A 
ATOM     17  C   UNL     1       5.643   3.163  12.008  0.00  0.00    +0.000 A 
ATOM     18  C   UNL     1       4.810   3.735  12.989  0.00  0.00    +0.000 A 
ATOM     19  C   UNL     1       5.424   4.618  13.892  0.00  0.00    +0.000 A 
ENDBRANCH   5   7
BRANCH   1  23
ATOM     20  O   UNL     1       1.894   8.651  19.943  0.00  0.00    +0.000 OA
ATOM     21  C   UNL     1       1.808   7.438  20.087  0.00  0.00    +0.000 A 
ATOM     22  N   UNL     1       1.961   6.507  19.106  0.00  0.00    +0.000 NA
ATOM     23  C   UNL     1       2.035   5.361  19.735  0.00  0.00    +0.000 A 
ATOM     24  N   UNL     1       1.961   5.463  21.113  0.00  0.00    +0.000 N 
ATOM     25  N   UNL     1       1.632   6.792  21.310  0.00  0.00    +0.000 N 
ATOM     26  H   UNL     1       1.382   4.754  21.565  0.00  0.00    +0.000 HD
ATOM     27  H   UNL     1       1.989   7.300  22.124  0.00  0.00    +0.000 HD
ENDBRANCH   1  23
TORSDOF 2
ENDMDL
MODEL 4
REMARK VINA RESULT:      -7.4      4.110      7.191
REMARK  Name = 
REMARK  2 active torsions:
REMARK  status: ('A' for Active; 'I' for Inactive)
REMARK    1  A    between atoms: C_4  and  C_5
REMARK    2  A    between atoms: N_9  and  C_10
REMARK                            x       y       z     vdW  Elec       q    Type
REMARK                         _______ _______ _______ _____ _____    ______ ____
ROOT
ATOM      1  C   UNL     1       7.617   5.476  18.559  0.00  0.00    +0.000 C 
ATOM      2  C   UNL     1       7.849   4.562  17.345  0.00  0.00    +0.000 C 
ATOM      3  C   UNL     1       6.607   4.301  16.482  0.00  0.00    +0.000 C 
ATOM      4  C   UNL     1       5.328   4.106  17.306  0.00  0.00    +0.000 C 
ATOM      5  N   UNL     1       5.184   5.277  18.193  0.00  0.00    +0.000 N 
ATOM      6  C   UNL     1       6.252   5.283  19.221  0.00  0.00    +0.000 C 
ENDROOT
BRANCH   5   7
ATOM      7  C   UNL     1       3.911   5.524  18.746  0.00  0.00    +0.000 A 
ATOM      8  N   UNL     1       3.088   4.496  19.041  0.00  0.00    +0.000 NA
ATOM      9  C   UNL     1       1.797   4.679  18.713  0.00  0.00    +0.000 A 
ATOM     10  N   UNL     1       1.272   5.728  18.031  0.00  0.00    +0.000 NA
ATOM     11  C   UNL     1       2.109   6.838  18.002  0.00  0.00    +0.000 A 
ATOM     12  C   UNL     1       3.234   6.748  18.843  0.00  0.00    +0.000 A 
ATOM     13  O   UNL     1       2.567   7.205  20.067  0.00  0.00    +0.000 OA
ATOM     14  C   UNL     1       1.553   8.063  19.633  0.00  0.00    +0.000 A 
ATOM     15  C   UNL     1       0.743   8.905  20.368  0.00  0.00    +0.000 A 
ATOM     16  C   UNL     1       0.701  10.196  19.837  0.00  0.00    +0.000 A 
ATOM     17  C   UNL     1       1.438  10.513  18.683  0.00  0.00    +0.000 A 
ATOM     18  C   UNL     1       1.949   9.499  17.849  0.00  0.00    +0.000 A 
ATOM     19  C   UNL     1       1.724   8.177  18.264  0.00  0.00    +0.000 A 
ENDBRANCH   5   7
BRANCH   1  23
ATOM     20  O   UNL     1       9.010   9.959  18.927  0.00  0.00    +0.000 OA
ATOM     21  C   UNL     1       8.601   8.917  18.429  0.00  0.00    +0.000 A 
ATOM     22  N   UNL     1       8.605   7.694  19.027  0.00  0.00    +0.000 NA
ATOM     23  C   UNL     1       7.867   6.938  18.255  0.00  0.00    +0.000 A 
ATOM     24  N   UNL     1       7.333   7.593  17.159  0.00  0.00    +0.000 N 
ATOM     25  N   UNL     1       7.967   8.822  17.191  0.00  0.00    +0.000 N 
ATOM     26  H   UNL     1       7.361   7.063  16.287  0.00  0.00    +0.000 HD
ATOM     27  H   UNL     1       7.476   9.667  16.889  0.00  0.00    +0.000 HD
ENDBRANCH   1  23
TORSDOF 2
ENDMDL
MODEL 5
REMARK VINA RESULT:      -7.2      5.668      8.851
REMARK  Name = 
REMARK  2 active torsions:
REMARK  status: ('A' for Active; 'I' for Inactive)
REMARK    1  A    between atoms: C_4  and  C_5
REMARK    2  A    between atoms: N_9  and  C_10
REMARK                            x       y       z     vdW  Elec       q    Type
REMARK                         _______ _______ _______ _____ _____    ______ ____
ROOT
ATOM      1  C   UNL     1       0.139  10.634  19.254  0.00  0.00    +0.000 C 
ATOM      2  C   UNL     1      -0.206  10.822  20.740  0.00  0.00    +0.000 C 
ATOM      3  C   UNL     1       0.663  10.018  21.716  0.00  0.00    +0.000 C 
ATOM      4  C   UNL     1       0.981   8.603  21.218  0.00  0.00    +0.000 C 
ATOM      5  N   UNL     1       1.578   8.725  19.874  0.00  0.00    +0.000 N 
ATOM      6  C   UNL     1       0.570   9.209  18.900  0.00  0.00    +0.000 C 
ENDROOT
BRANCH   5   7
ATOM      7  C   UNL     1       2.308   7.624  19.381  0.00  0.00    +0.000 A 
ATOM      8  N   UNL     1       2.890   7.686  18.165  0.00  0.00    +0.000 NA
ATOM      9  C   UNL     1       2.775   6.576  17.414  0.00  0.00    +0.000 A 
ATOM     10  N   UNL     1       2.053   5.466  17.710  0.00  0.00    +0.000 NA
ATOM     11  C   UNL     1       1.715   5.373  19.055  0.00  0.00    +0.000 A 
ATOM     12  C   UNL     1       2.345   6.317  19.886  0.00  0.00    +0.000 A 
ATOM     13  O   UNL     1       3.589   5.565  20.082  0.00  0.00    +0.000 OA
ATOM     14  C   UNL     1       3.225   4.220  19.984  0.00  0.00    +0.000 A 
ATOM     15  C   UNL     1       3.963   3.088  20.265  0.00  0.00    +0.000 A 
ATOM     16  C   UNL     1       3.266   2.191  21.079  0.00  0.00    +0.000 A 
ATOM     17  C   UNL     1       1.966   2.493  21.518  0.00  0.00    +0.000 A 
ATOM     18  C   UNL     1       1.209   3.507  20.897  0.00  0.00    +0.000 A 
ATOM     19  C   UNL     1       1.845   4.217  19.867  0.00  0.00    +0.000 A 
ENDBRANCH   5   7
BRANCH   1  23
ATOM     20  O   UNL     1       2.502  14.643  18.545  0.00  0.00    +0.000 OA
ATOM     21  C   UNL     1       2.235  13.448  18.540  0.00  0.00    +0.000 A 
ATOM     22  N   UNL     1       1.219  12.858  19.227  0.00  0.00    +0.000 NA
ATOM     23  C   UNL     1       1.148  11.642  18.748  0.00  0.00    +0.000 A 
ATOM     24  N   UNL     1       2.057  11.374  17.741  0.00  0.00    +0.000 N 
ATOM     25  N   UNL     1       2.870  12.493  17.748  0.00  0.00    +0.000 N 
ATOM     26  H   UNL     1       2.504  10.458  17.799  0.00  0.00    +0.000 HD
ATOM     27  H   UNL     1       3.271  12.850  16.876  0.00  0.00    +0.000 HD
ENDBRANCH   1  23
TORSDOF 2
ENDMDL
MODEL 6
REMARK VINA RESULT:      -7.2     11.239     12.899
REMARK  Name = 
REMARK  2 active torsions:
REMARK  status: ('A' for Active; 'I' for Inactive)
REMARK    1  A    between atoms: C_4  and  C_5
REMARK    2  A    between atoms: N_9  and  C_10
REMARK                            x       y       z     vdW  Elec       q    Type
REMARK                         _______ _______ _______ _____ _____    ______ ____
ROOT
ATOM      1  C   UNL     1      -6.414  12.839  20.359  0.00  0.00    +0.000 C 
ATOM      2  C   UNL     1      -7.482  11.769  20.080  0.00  0.00    +0.000 C 
ATOM      3  C   UNL     1      -6.966  10.501  19.385  0.00  0.00    +0.000 C 
ATOM      4  C   UNL     1      -5.924  10.790  18.297  0.00  0.00    +0.000 C 
ATOM      5  N   UNL     1      -4.849  11.596  18.909  0.00  0.00    +0.000 N 
ATOM      6  C   UNL     1      -5.351  12.945  19.264  0.00  0.00    +0.000 C 
ENDROOT
BRANCH   5   7
ATOM      7  C   UNL     1      -3.610  11.648  18.239  0.00  0.00    +0.000 A 
ATOM      8  N   UNL     1      -3.520  11.268  16.947  0.00  0.00    +0.000 NA
ATOM      9  C   UNL     1      -2.440  10.530  16.637  0.00  0.00    +0.000 A 
ATOM     10  N   UNL     1      -1.510  10.048  17.500  0.00  0.00    +0.000 NA
ATOM     11  C   UNL     1      -1.521  10.689  18.734  0.00  0.00    +0.000 A 
ATOM     12  C   UNL     1      -2.336  11.835  18.793  0.00  0.00    +0.000 A 
ATOM     13  O   UNL     1      -1.348  12.772  18.246  0.00  0.00    +0.000 OA
ATOM     14  C   UNL     1      -0.106  12.256  18.619  0.00  0.00    +0.000 A 
ATOM     15  C   UNL     1       1.147  12.828  18.524  0.00  0.00    +0.000 A 
ATOM     16  C   UNL     1       1.861  12.741  19.721  0.00  0.00    +0.000 A 
ATOM     17  C   UNL     1       1.287  12.127  20.848  0.00  0.00    +0.000 A 
ATOM     18  C   UNL     1       0.155  11.298  20.722  0.00  0.00    +0.000 A 
ATOM     19  C   UNL     1      -0.384  11.169  19.432  0.00  0.00    +0.000 A 
ENDBRANCH   5   7
BRANCH   1  23
ATOM     20  O   UNL     1      -3.235  12.737  23.830  0.00  0.00    +0.000 OA
ATOM     21  C   UNL     1      -4.321  12.757  23.263  0.00  0.00    +0.000 A 
ATOM     22  N   UNL     1      -4.523  13.015  21.942  0.00  0.00    +0.000 NA
ATOM     23  C   UNL     1      -5.772  12.692  21.722  0.00  0.00    +0.000 A 
ATOM     24  N   UNL     1      -6.437  12.200  22.831  0.00  0.00    +0.000 N 
ATOM     25  N   UNL     1      -5.536  12.420  23.857  0.00  0.00    +0.000 N 
ATOM     26  H   UNL     1      -7.390  12.545  22.948  0.00  0.00    +0.000 HD
ATOM     27  H   UNL     1      -5.469  11.764  24.640  0.00  0.00    +0.000 HD
ENDBRANCH   1  23
TORSDOF 2
ENDMDL
MODEL 7
REMARK VINA RESULT:      -7.1     11.475     13.930
REMARK  Name = 
REMARK  2 active torsions:
REMARK  status: ('A' for Active; 'I' for Inactive)
REMARK    1  A    between atoms: C_4  and  C_5
REMARK    2  A    between atoms: N_9  and  C_10
REMARK                            x       y       z     vdW  Elec       q    Type
REMARK                         _______ _______ _______ _____ _____    ______ ____
ROOT
ATOM      1  C   UNL     1      -2.535   9.756  17.500  0.00  0.00    +0.000 C 
ATOM      2  C   UNL     1      -2.682   9.937  15.980  0.00  0.00    +0.000 C 
ATOM      3  C   UNL     1      -3.483  11.172  15.548  0.00  0.00    +0.000 C 
ATOM      4  C   UNL     1      -4.706  11.440  16.433  0.00  0.00    +0.000 C 
ATOM      5  N   UNL     1      -4.239  11.511  17.832  0.00  0.00    +0.000 N 
ATOM      6  C   UNL     1      -3.774  10.181  18.291  0.00  0.00    +0.000 C 
ENDROOT
BRANCH   5   7
ATOM      7  C   UNL     1      -5.087  12.132  18.772  0.00  0.00    +0.000 A 
ATOM      8  N   UNL     1      -6.087  12.937  18.357  0.00  0.00    +0.000 NA
ATOM      9  C   UNL     1      -6.250  14.067  19.067  0.00  0.00    +0.000 A 
ATOM     10  N   UNL     1      -5.454  14.519  20.069  0.00  0.00    +0.000 NA
ATOM     11  C   UNL     1      -4.629  13.535  20.603  0.00  0.00    +0.000 A 
ATOM     12  C   UNL     1      -4.912  12.229  20.160  0.00  0.00    +0.000 A 
ATOM     13  O   UNL     1      -5.978  11.949  21.128  0.00  0.00    +0.000 OA
ATOM     14  C   UNL     1      -5.659  12.710  22.255  0.00  0.00    +0.000 A 
ATOM     15  C   UNL     1      -6.220  12.686  23.516  0.00  0.00    +0.000 A 
ATOM     16  C   UNL     1      -5.255  12.603  24.523  0.00  0.00    +0.000 A 
ATOM     17  C   UNL     1      -3.889  12.550  24.195  0.00  0.00    +0.000 A 
ATOM     18  C   UNL     1      -3.438  12.916  22.911  0.00  0.00    +0.000 A 
ATOM     19  C   UNL     1      -4.426  13.279  21.982  0.00  0.00    +0.000 A 
ENDBRANCH   5   7
BRANCH   1  23
ATOM     20  O   UNL     1       0.341  12.578  19.935  0.00  0.00    +0.000 OA
ATOM     21  C   UNL     1      -0.041  11.639  19.248  0.00  0.00    +0.000 A 
ATOM     22  N   UNL     1      -1.338  11.295  19.020  0.00  0.00    +0.000 NA
ATOM     23  C   UNL     1      -1.289  10.411  18.056  0.00  0.00    +0.000 A 
ATOM     24  N   UNL     1      -0.014  10.145  17.591  0.00  0.00    +0.000 N 
ATOM     25  N   UNL     1       0.793  10.812  18.497  0.00  0.00    +0.000 N 
ATOM     26  H   UNL     1       0.182   9.159  17.412  0.00  0.00    +0.000 HD
ATOM     27  H   UNL     1       1.670  11.242  18.192  0.00  0.00    +0.000 HD
ENDBRANCH   1  23
TORSDOF 2
ENDMDL
MODEL 8
REMARK VINA RESULT:      -7.1      5.155      7.745
REMARK  Name = 
REMARK  2 active torsions:
REMARK  status: ('A' for Active; 'I' for Inactive)
REMARK    1  A    between atoms: C_4  and  C_5
REMARK    2  A    between atoms: N_9  and  C_10
REMARK                            x       y       z     vdW  Elec       q    Type
REMARK                         _______ _______ _______ _____ _____    ______ ____
ROOT
ATOM      1  C   UNL     1       0.475  10.085  19.444  0.00  0.00    +0.000 C 
ATOM      2  C   UNL     1       0.529  10.044  20.979  0.00  0.00    +0.000 C 
ATOM      3  C   UNL     1       1.555   9.066  21.568  0.00  0.00    +0.000 C 
ATOM      4  C   UNL     1       1.636   7.740  20.802  0.00  0.00    +0.000 C 
ATOM      5  N   UNL     1       1.883   8.058  19.382  0.00  0.00    +0.000 N 
ATOM      6  C   UNL     1       0.700   8.722  18.785  0.00  0.00    +0.000 C 
ENDROOT
BRANCH   5   7
ATOM      7  C   UNL     1       2.386   7.027  18.561  0.00  0.00    +0.000 A 
ATOM      8  N   UNL     1       1.539   6.174  17.949  0.00  0.00    +0.000 NA
ATOM      9  C   UNL     1       1.913   4.882  17.962  0.00  0.00    +0.000 A 
ATOM     10  N   UNL     1       2.980   4.352  18.611  0.00  0.00    +0.000 NA
ATOM     11  C   UNL     1       3.926   5.301  18.982  0.00  0.00    +0.000 A 
ATOM     12  C   UNL     1       3.711   6.584  18.445  0.00  0.00    +0.000 A 
ATOM     13  O   UNL     1       4.369   6.340  17.157  0.00  0.00    +0.000 OA
ATOM     14  C   UNL     1       5.350   5.382  17.421  0.00  0.00    +0.000 A 
ATOM     15  C   UNL     1       6.372   4.927  16.613  0.00  0.00    +0.000 A 
ATOM     16  C   UNL     1       7.606   4.932  17.267  0.00  0.00    +0.000 A 
ATOM     17  C   UNL     1       7.703   5.372  18.598  0.00  0.00    +0.000 A 
ATOM     18  C   UNL     1       6.555   5.490  19.406  0.00  0.00    +0.000 A 
ATOM     19  C   UNL     1       5.327   5.196  18.793  0.00  0.00    +0.000 A 
ENDBRANCH   5   7
BRANCH   1  23
ATOM     20  O   UNL     1       2.803  14.108  18.697  0.00  0.00    +0.000 OA
ATOM     21  C   UNL     1       2.489  12.927  18.614  0.00  0.00    +0.000 A 
ATOM     22  N   UNL     1       1.621  12.276  19.435  0.00  0.00    +0.000 NA
ATOM     23  C   UNL     1       1.394  11.130  18.847  0.00  0.00    +0.000 A 
ATOM     24  N   UNL     1       2.051  10.969  17.640  0.00  0.00    +0.000 N 
ATOM     25  N   UNL     1       2.894  12.065  17.597  0.00  0.00    +0.000 N 
ATOM     26  H   UNL     1       2.459  10.045  17.493  0.00  0.00    +0.000 HD
ATOM     27  H   UNL     1       3.112  12.518  16.705  0.00  0.00    +0.000 HD
ENDBRANCH   1  23
TORSDOF 2
ENDMDL
MODEL 9
REMARK VINA RESULT:      -7.1     11.813     14.342
REMARK  Name = 
REMARK  2 active torsions:
REMARK  status: ('A' for Active; 'I' for Inactive)
REMARK    1  A    between atoms: C_4  and  C_5
REMARK    2  A    between atoms: N_9  and  C_10
REMARK                            x       y       z     vdW  Elec       q    Type
REMARK                         _______ _______ _______ _____ _____    ______ ____
ROOT
ATOM      1  C   UNL     1      -2.287  10.084  17.588  0.00  0.00    +0.000 C 
ATOM      2  C   UNL     1      -2.293  10.003  16.052  0.00  0.00    +0.000 C 
ATOM      3  C   UNL     1      -3.398  10.815  15.364  0.00  0.00    +0.000 C 
ATOM      4  C   UNL     1      -4.742  10.755  16.100  0.00  0.00    +0.000 C 
ATOM      5  N   UNL     1      -4.505  11.165  17.498  0.00  0.00    +0.000 N 
ATOM      6  C   UNL     1      -3.686  10.151  18.204  0.00  0.00    +0.000 C 
ENDROOT
BRANCH   5   7
ATOM      7  C   UNL     1      -5.622  11.569  18.258  0.00  0.00    +0.000 A 
ATOM      8  N   UNL     1      -6.765  11.936  17.642  0.00  0.00    +0.000 NA
ATOM      9  C   UNL     1      -7.374  13.020  18.154  0.00  0.00    +0.000 A 
ATOM     10  N   UNL     1      -6.903  13.827  19.138  0.00  0.00    +0.000 NA
ATOM     11  C   UNL     1      -5.883  13.248  19.884  0.00  0.00    +0.000 A 
ATOM     12  C   UNL     1      -5.669  11.881  19.624  0.00  0.00    +0.000 A 
ATOM     13  O   UNL     1      -6.705  11.374  20.531  0.00  0.00    +0.000 OA
ATOM     14  C   UNL     1      -6.797  12.323  21.551  0.00  0.00    +0.000 A 
ATOM     15  C   UNL     1      -7.479  12.260  22.749  0.00  0.00    +0.000 A 
ATOM     16  C   UNL     1      -6.678  12.625  23.834  0.00  0.00    +0.000 A 
ATOM     17  C   UNL     1      -5.338  12.997  23.633  0.00  0.00    +0.000 A 
ATOM     18  C   UNL     1      -4.866  13.340  22.351  0.00  0.00    +0.000 A 
ATOM     19  C   UNL     1      -5.789  13.239  21.298  0.00  0.00    +0.000 A 
ENDBRANCH   5   7
BRANCH   1  23
ATOM     20  O   UNL     1       0.477  12.667  20.390  0.00  0.00    +0.000 OA
ATOM     21  C   UNL     1      -0.092  12.274  19.380  0.00  0.00    +0.000 A 
ATOM     22  N   UNL     1      -0.765  11.098  19.252  0.00  0.00    +0.000 NA
ATOM     23  C   UNL     1      -1.410  11.198  18.118  0.00  0.00    +0.000 A 
ATOM     24  N   UNL     1      -1.230  12.405  17.466  0.00  0.00    +0.000 N 
ATOM     25  N   UNL     1      -0.232  13.013  18.206  0.00  0.00    +0.000 N 
ATOM     26  H   UNL     1      -1.099  12.331  16.456  0.00  0.00    +0.000 HD
ATOM     27  H   UNL     1      -0.223  14.029  18.330  0.00  0.00    +0.000 HD
ENDBRANCH   1  23
TORSDOF 2
ENDMDL
