MODEL 1
REMARK VINA RESULT:      -9.6      0.000      0.000
REMARK  Name = 
REMARK  4 active torsions:
REMARK  status: ('A' for Active; 'I' for Inactive)
REMARK    1  A    between atoms: C_13  and  C_14
REMARK    2  A    between atoms: C_17  and  C_18
REMARK    3  A    between atoms: C_21  and  C_22
REMARK    4  A    between atoms: C_22  and  O_24
REMARK                            x       y       z     vdW  Elec       q    Type
REMARK                         _______ _______ _______ _____ _____    ______ ____
ROOT
ATOM      1  N   UNL     1       0.444   3.027  19.992  0.00  0.00    +0.000 N 
ATOM      2  C   UNL     1       1.608   3.470  19.464  0.00  0.00    +0.000 C 
ATOM      3  N   UNL     1       1.989   3.088  18.292  0.00  0.00    +0.000 NA
ATOM      4  C   UNL     1       3.157   3.602  17.830  0.00  0.00    +0.000 A 
ATOM      5  N   UNL     1       3.804   3.297  16.724  0.00  0.00    +0.000 NA
ATOM      6  C   UNL     1       4.898   4.125  16.681  0.00  0.00    +0.000 A 
ATOM      7  C   UNL     1       5.896   4.228  15.701  0.00  0.00    +0.000 A 
ATOM      8  C   UNL     1       6.915   5.172  15.877  0.00  0.00    +0.000 A 
ATOM      9  C   UNL     1       6.941   5.992  17.007  0.00  0.00    +0.000 A 
ATOM     10  C   UNL     1       5.952   5.906  17.995  0.00  0.00    +0.000 A 
ATOM     11  C   UNL     1       4.942   4.960  17.793  0.00  0.00    +0.000 A 
ATOM     12  N   UNL     1       3.816   4.616  18.491  0.00  0.00    +0.000 N 
ATOM     13  C   UNL     1       3.257   5.207  19.700  0.00  0.00    +0.000 C 
ATOM     14  N   UNL     1       2.247   4.330  20.304  0.00  0.00    +0.000 N 
ATOM     15  H   UNL     1       0.074   2.261  19.433  0.00  0.00    +0.000 HD
ATOM     16  H   UNL     1       0.503   2.759  20.965  0.00  0.00    +0.000 HD
ATOM     17  H   UNL     1       1.620   4.832  20.919  0.00  0.00    +0.000 HD
ENDROOT
BRANCH  13  18
ATOM     18  C   UNL     1       2.701   6.568  19.367  0.00  0.00    +0.000 A 
ATOM     19  C   UNL     1       2.763   7.310  18.203  0.00  0.00    +0.000 A 
ATOM     20  C   UNL     1       2.038   8.491  18.446  0.00  0.00    +0.000 A 
ATOM     21  C   UNL     1       1.528   8.404  19.728  0.00  0.00    +0.000 A 
ATOM     22  O   UNL     1       1.935   7.224  20.302  0.00  0.00    +0.000 OA
BRANCH  21  23
ATOM     23  C   UNL     1       0.598   9.271  20.458  0.00  0.00    +0.000 A 
ATOM     24  C   UNL     1       0.248  10.548  20.009  0.00  0.00    +0.000 A 
ATOM     25  C   UNL     1      -0.429  11.440  20.856  0.00  0.00    +0.000 A 
ATOM     26  C   UNL     1      -0.776  11.063  22.161  0.00  0.00    +0.000 A 
ATOM     27  C   UNL     1      -0.543   9.750  22.575  0.00  0.00    +0.000 A 
ATOM     28  C   UNL     1       0.137   8.867  21.727  0.00  0.00    +0.000 A 
BRANCH  26  29
ATOM     29  C   UNL     1      -1.379  12.083  23.059  0.00  0.00    +0.000 C 
ATOM     30  O   UNL     1      -2.541  12.036  23.426  0.00  0.00    +0.000 OA
BRANCH  29  31
ATOM     31  O   UNL     1      -0.551  13.101  23.376  0.00  0.00    +0.000 OA
ATOM     32  H   UNL     1       0.327  12.846  23.713  0.00  0.00    +0.000 HD
ENDBRANCH  29  31
ENDBRANCH  26  29
ENDBRANCH  21  23
ENDBRANCH  13  18
TORSDOF 4
ENDMDL
MODEL 2
REMARK VINA RESULT:      -9.5      4.812      7.618
REMARK  Name = 
REMARK  4 active torsions:
REMARK  status: ('A' for Active; 'I' for Inactive)
REMARK    1  A    between atoms: C_13  and  C_14
REMARK    2  A    between atoms: C_17  and  C_18
REMARK    3  A    between atoms: C_21  and  C_22
REMARK    4  A    between atoms: C_22  and  O_24
REMARK                            x       y       z     vdW  Elec       q    Type
REMARK                         _______ _______ _______ _____ _____    ______ ____
ROOT
ATOM      1  N   UNL     1       7.087   4.359  13.813  0.00  0.00    +0.000 N 
ATOM      2  C   UNL     1       6.215   4.653  14.807  0.00  0.00    +0.000 C 
ATOM      3  N   UNL     1       5.701   3.717  15.532  0.00  0.00    +0.000 NA
ATOM      4  C   UNL     1       4.857   4.104  16.522  0.00  0.00    +0.000 A 
ATOM      5  N   UNL     1       4.135   3.348  17.322  0.00  0.00    +0.000 NA
ATOM      6  C   UNL     1       3.493   4.205  18.181  0.00  0.00    +0.000 A 
ATOM      7  C   UNL     1       2.626   3.914  19.243  0.00  0.00    +0.000 A 
ATOM      8  C   UNL     1       2.102   4.974  19.993  0.00  0.00    +0.000 A 
ATOM      9  C   UNL     1       2.433   6.296  19.687  0.00  0.00    +0.000 A 
ATOM     10  C   UNL     1       3.299   6.607  18.632  0.00  0.00    +0.000 A 
ATOM     11  C   UNL     1       3.813   5.530  17.902  0.00  0.00    +0.000 A 
ATOM     12  N   UNL     1       4.692   5.430  16.858  0.00  0.00    +0.000 N 
ATOM     13  C   UNL     1       5.457   6.473  16.186  0.00  0.00    +0.000 C 
ATOM     14  N   UNL     1       6.005   5.993  14.912  0.00  0.00    +0.000 N 
ATOM     15  H   UNL     1       7.094   3.355  13.639  0.00  0.00    +0.000 HD
ATOM     16  H   UNL     1       6.926   4.866  12.955  0.00  0.00    +0.000 HD
ATOM     17  H   UNL     1       6.790   6.549  14.597  0.00  0.00    +0.000 HD
ENDROOT
BRANCH  13  18
ATOM     18  C   UNL     1       6.534   6.968  17.117  0.00  0.00    +0.000 A 
ATOM     19  C   UNL     1       7.413   6.280  17.930  0.00  0.00    +0.000 A 
ATOM     20  C   UNL     1       8.222   7.249  18.550  0.00  0.00    +0.000 A 
ATOM     21  C   UNL     1       7.835   8.483  18.061  0.00  0.00    +0.000 A 
ATOM     22  O   UNL     1       6.793   8.317  17.180  0.00  0.00    +0.000 OA
BRANCH  21  23
ATOM     23  C   UNL     1       8.407   9.819  18.249  0.00  0.00    +0.000 A 
ATOM     24  C   UNL     1       7.961  10.937  17.536  0.00  0.00    +0.000 A 
ATOM     25  C   UNL     1       8.699  12.131  17.549  0.00  0.00    +0.000 A 
ATOM     26  C   UNL     1       9.888  12.228  18.285  0.00  0.00    +0.000 A 
ATOM     27  C   UNL     1      10.275  11.161  19.098  0.00  0.00    +0.000 A 
ATOM     28  C   UNL     1       9.537   9.972  19.077  0.00  0.00    +0.000 A 
BRANCH  26  29
ATOM     29  C   UNL     1      10.697  13.470  18.168  0.00  0.00    +0.000 C 
ATOM     30  O   UNL     1      11.788  13.602  18.696  0.00  0.00    +0.000 OA
BRANCH  29  31
ATOM     31  O   UNL     1      10.090  14.464  17.483  0.00  0.00    +0.000 OA
ATOM     32  H   UNL     1       9.696  14.212  16.628  0.00  0.00    +0.000 HD
ENDBRANCH  29  31
ENDBRANCH  26  29
ENDBRANCH  21  23
ENDBRANCH  13  18
TORSDOF 4
ENDMDL
MODEL 3
REMARK VINA RESULT:      -9.5      4.606      7.319
REMARK  Name = 
REMARK  4 active torsions:
REMARK  status: ('A' for Active; 'I' for Inactive)
REMARK    1  A    between atoms: C_13  and  C_14
REMARK    2  A    between atoms: C_17  and  C_18
REMARK    3  A    between atoms: C_21  and  C_22
REMARK    4  A    between atoms: C_22  and  O_24
REMARK                            x       y       z     vdW  Elec       q    Type
REMARK                         _______ _______ _______ _____ _____    ______ ____
ROOT
ATOM      1  N   UNL     1       6.852   4.242  13.828  0.00  0.00    +0.000 N 
ATOM      2  C   UNL     1       6.004   4.585  14.826  0.00  0.00    +0.000 C 
ATOM      3  N   UNL     1       5.434   3.679  15.547  0.00  0.00    +0.000 NA
ATOM      4  C   UNL     1       4.619   4.113  16.542  0.00  0.00    +0.000 A 
ATOM      5  N   UNL     1       3.853   3.399  17.340  0.00  0.00    +0.000 NA
ATOM      6  C   UNL     1       3.269   4.289  18.207  0.00  0.00    +0.000 A 
ATOM      7  C   UNL     1       2.389   4.046  19.270  0.00  0.00    +0.000 A 
ATOM      8  C   UNL     1       1.936   5.133  20.029  0.00  0.00    +0.000 A 
ATOM      9  C   UNL     1       2.349   6.433  19.730  0.00  0.00    +0.000 A 
ATOM     10  C   UNL     1       3.229   6.695  18.673  0.00  0.00    +0.000 A 
ATOM     11  C   UNL     1       3.672   5.593  17.935  0.00  0.00    +0.000 A 
ATOM     12  N   UNL     1       4.540   5.444  16.888  0.00  0.00    +0.000 N 
ATOM     13  C   UNL     1       5.368   6.440  16.219  0.00  0.00    +0.000 C 
ATOM     14  N   UNL     1       5.880   5.935  14.940  0.00  0.00    +0.000 N 
ATOM     15  H   UNL     1       6.796   3.242  13.648  0.00  0.00    +0.000 HD
ATOM     16  H   UNL     1       6.721   4.765  12.973  0.00  0.00    +0.000 HD
ATOM     17  H   UNL     1       6.697   6.442  14.626  0.00  0.00    +0.000 HD
ENDROOT
BRANCH  13  18
ATOM     18  C   UNL     1       6.476   6.860  17.150  0.00  0.00    +0.000 A 
ATOM     19  C   UNL     1       7.306   6.113  17.964  0.00  0.00    +0.000 A 
ATOM     20  C   UNL     1       8.180   7.024  18.583  0.00  0.00    +0.000 A 
ATOM     21  C   UNL     1       7.880   8.281  18.092  0.00  0.00    +0.000 A 
ATOM     22  O   UNL     1       6.829   8.188  17.212  0.00  0.00    +0.000 OA
BRANCH  21  23
ATOM     23  C   UNL     1       8.545   9.574  18.278  0.00  0.00    +0.000 A 
ATOM     24  C   UNL     1       9.426   9.824  19.335  0.00  0.00    +0.000 A 
ATOM     25  C   UNL     1       9.833  11.135  19.629  0.00  0.00    +0.000 A 
ATOM     26  C   UNL     1       9.372  12.215  18.863  0.00  0.00    +0.000 A 
ATOM     27  C   UNL     1       8.593  11.964  17.731  0.00  0.00    +0.000 A 
ATOM     28  C   UNL     1       8.187  10.655  17.447  0.00  0.00    +0.000 A 
BRANCH  26  29
ATOM     29  C   UNL     1       9.731  13.593  19.289  0.00  0.00    +0.000 C 
ATOM     30  O   UNL     1       9.654  14.557  18.546  0.00  0.00    +0.000 OA
BRANCH  29  31
ATOM     31  O   UNL     1      10.215  13.675  20.547  0.00  0.00    +0.000 OA
ATOM     32  H   UNL     1      10.498  12.834  20.950  0.00  0.00    +0.000 HD
ENDBRANCH  29  31
ENDBRANCH  26  29
ENDBRANCH  21  23
ENDBRANCH  13  18
TORSDOF 4
ENDMDL
MODEL 4
REMARK VINA RESULT:      -9.3      0.476      1.176
REMARK  Name = 
REMARK  4 active torsions:
REMARK  status: ('A' for Active; 'I' for Inactive)
REMARK    1  A    between atoms: C_13  and  C_14
REMARK    2  A    between atoms: C_17  and  C_18
REMARK    3  A    between atoms: C_21  and  C_22
REMARK    4  A    between atoms: C_22  and  O_24
REMARK                            x       y       z     vdW  Elec       q    Type
REMARK                         _______ _______ _______ _____ _____    ______ ____
ROOT
ATOM      1  N   UNL     1       0.444   3.094  20.388  0.00  0.00    +0.000 N 
ATOM      2  C   UNL     1       1.548   3.558  19.756  0.00  0.00    +0.000 C 
ATOM      3  N   UNL     1       1.823   3.186  18.551  0.00  0.00    +0.000 NA
ATOM      4  C   UNL     1       2.935   3.720  17.985  0.00  0.00    +0.000 A 
ATOM      5  N   UNL     1       3.480   3.430  16.822  0.00  0.00    +0.000 NA
ATOM      6  C   UNL     1       4.553   4.274  16.681  0.00  0.00    +0.000 A 
ATOM      7  C   UNL     1       5.453   4.397  15.614  0.00  0.00    +0.000 A 
ATOM      8  C   UNL     1       6.470   5.356  15.699  0.00  0.00    +0.000 A 
ATOM      9  C   UNL     1       6.589   6.172  16.826  0.00  0.00    +0.000 A 
ATOM     10  C   UNL     1       5.698   6.066  17.901  0.00  0.00    +0.000 A 
ATOM     11  C   UNL     1       4.688   5.105  17.789  0.00  0.00    +0.000 A 
ATOM     12  N   UNL     1       3.637   4.741  18.588  0.00  0.00    +0.000 N 
ATOM     13  C   UNL     1       3.184   5.319  19.846  0.00  0.00    +0.000 C 
ATOM     14  N   UNL     1       2.249   4.424  20.537  0.00  0.00    +0.000 N 
ATOM     15  H   UNL     1       0.036   2.325  19.861  0.00  0.00    +0.000 HD
ATOM     16  H   UNL     1       0.598   2.823  21.349  0.00  0.00    +0.000 HD
ATOM     17  H   UNL     1       1.674   4.913  21.211  0.00  0.00    +0.000 HD
ENDROOT
BRANCH  13  18
ATOM     18  C   UNL     1       2.580   6.673  19.574  0.00  0.00    +0.000 A 
ATOM     19  C   UNL     1       2.308   7.319  18.384  0.00  0.00    +0.000 A 
ATOM     20  C   UNL     1       1.709   8.545  18.725  0.00  0.00    +0.000 A 
ATOM     21  C   UNL     1       1.599   8.580  20.102  0.00  0.00    +0.000 A 
ATOM     22  O   UNL     1       2.137   7.432  20.632  0.00  0.00    +0.000 OA
BRANCH  21  23
ATOM     23  C   UNL     1       0.943   9.540  20.995  0.00  0.00    +0.000 A 
ATOM     24  C   UNL     1       0.403   9.172  22.232  0.00  0.00    +0.000 A 
ATOM     25  C   UNL     1      -0.439  10.050  22.932  0.00  0.00    +0.000 A 
ATOM     26  C   UNL     1      -0.744  11.315  22.409  0.00  0.00    +0.000 A 
ATOM     27  C   UNL     1      -0.112  11.739  21.239  0.00  0.00    +0.000 A 
ATOM     28  C   UNL     1       0.722  10.856  20.544  0.00  0.00    +0.000 A 
BRANCH  26  29
ATOM     29  C   UNL     1      -1.737  12.158  23.125  0.00  0.00    +0.000 C 
ATOM     30  O   UNL     1      -1.524  13.320  23.427  0.00  0.00    +0.000 OA
BRANCH  29  31
ATOM     31  O   UNL     1      -2.868  11.507  23.474  0.00  0.00    +0.000 OA
ATOM     32  H   UNL     1      -3.193  10.847  22.836  0.00  0.00    +0.000 HD
ENDBRANCH  29  31
ENDBRANCH  26  29
ENDBRANCH  21  23
ENDBRANCH  13  18
TORSDOF 4
ENDMDL
MODEL 5
REMARK VINA RESULT:      -9.2      1.140      1.286
REMARK  Name = 
REMARK  4 active torsions:
REMARK  status: ('A' for Active; 'I' for Inactive)
REMARK    1  A    between atoms: C_13  and  C_14
REMARK    2  A    between atoms: C_17  and  C_18
REMARK    3  A    between atoms: C_21  and  C_22
REMARK    4  A    between atoms: C_22  and  O_24
REMARK                            x       y       z     vdW  Elec       q    Type
REMARK                         _______ _______ _______ _____ _____    ______ ____
ROOT
ATOM      1  N   UNL     1       0.589   3.625  20.418  0.00  0.00    +0.000 N 
ATOM      2  C   UNL     1       1.739   3.968  19.792  0.00  0.00    +0.000 C 
ATOM      3  N   UNL     1       2.106   3.366  18.711  0.00  0.00    +0.000 NA
ATOM      4  C   UNL     1       3.259   3.791  18.135  0.00  0.00    +0.000 A 
ATOM      5  N   UNL     1       3.893   3.281  17.099  0.00  0.00    +0.000 NA
ATOM      6  C   UNL     1       4.974   4.095  16.874  0.00  0.00    +0.000 A 
ATOM      7  C   UNL     1       5.955   4.013  15.875  0.00  0.00    +0.000 A 
ATOM      8  C   UNL     1       6.964   4.984  15.843  0.00  0.00    +0.000 A 
ATOM      9  C   UNL     1       6.997   6.011  16.789  0.00  0.00    +0.000 A 
ATOM     10  C   UNL     1       6.025   6.110  17.793  0.00  0.00    +0.000 A 
ATOM     11  C   UNL     1       5.025   5.133  17.800  0.00  0.00    +0.000 A 
ATOM     12  N   UNL     1       3.915   4.922  18.572  0.00  0.00    +0.000 N 
ATOM     13  C   UNL     1       3.367   5.734  19.651  0.00  0.00    +0.000 C 
ATOM     14  N   UNL     1       2.379   4.982  20.434  0.00  0.00    +0.000 N 
ATOM     15  H   UNL     1       0.221   2.760  20.027  0.00  0.00    +0.000 HD
ATOM     16  H   UNL     1       0.668   3.554  21.423  0.00  0.00    +0.000 HD
ATOM     17  H   UNL     1       1.755   5.589  20.950  0.00  0.00    +0.000 HD
ENDROOT
BRANCH  13  18
ATOM     18  C   UNL     1       2.788   6.997  19.067  0.00  0.00    +0.000 A 
ATOM     19  C   UNL     1       2.900   7.544  17.804  0.00  0.00    +0.000 A 
ATOM     20  C   UNL     1       2.121   8.714  17.806  0.00  0.00    +0.000 A 
ATOM     21  C   UNL     1       1.531   8.813  19.053  0.00  0.00    +0.000 A 
ATOM     22  O   UNL     1       1.941   7.760  19.835  0.00  0.00    +0.000 OA
BRANCH  21  23
ATOM     23  C   UNL     1       0.526   9.744  19.575  0.00  0.00    +0.000 A 
ATOM     24  C   UNL     1      -0.449  10.333  18.764  0.00  0.00    +0.000 A 
ATOM     25  C   UNL     1      -1.218  11.407  19.240  0.00  0.00    +0.000 A 
ATOM     26  C   UNL     1      -1.030  11.899  20.539  0.00  0.00    +0.000 A 
ATOM     27  C   UNL     1      -0.149  11.238  21.398  0.00  0.00    +0.000 A 
ATOM     28  C   UNL     1       0.618  10.171  20.915  0.00  0.00    +0.000 A 
BRANCH  26  29
ATOM     29  C   UNL     1      -1.780  13.114  20.954  0.00  0.00    +0.000 C 
ATOM     30  O   UNL     1      -1.884  13.463  22.117  0.00  0.00    +0.000 OA
BRANCH  29  31
ATOM     31  O   UNL     1      -2.392  13.760  19.938  0.00  0.00    +0.000 OA
ATOM     32  H   UNL     1      -3.355  13.624  19.866  0.00  0.00    +0.000 HD
ENDBRANCH  29  31
ENDBRANCH  26  29
ENDBRANCH  21  23
ENDBRANCH  13  18
TORSDOF 4
ENDMDL
MODEL 6
REMARK VINA RESULT:      -9.1      1.714      3.882
REMARK  Name = 
REMARK  4 active torsions:
REMARK  status: ('A' for Active; 'I' for Inactive)
REMARK    1  A    between atoms: C_13  and  C_14
REMARK    2  A    between atoms: C_17  and  C_18
REMARK    3  A    between atoms: C_21  and  C_22
REMARK    4  A    between atoms: C_22  and  O_24
REMARK                            x       y       z     vdW  Elec       q    Type
REMARK                         _______ _______ _______ _____ _____    ______ ____
ROOT
ATOM      1  N   UNL     1       7.513   4.778  16.766  0.00  0.00    +0.000 N 
ATOM      2  C   UNL     1       6.341   4.460  17.365  0.00  0.00    +0.000 C 
ATOM      3  N   UNL     1       6.320   3.990  18.567  0.00  0.00    +0.000 NA
ATOM      4  C   UNL     1       5.101   3.724  19.099  0.00  0.00    +0.000 A 
ATOM      5  N   UNL     1       4.819   3.152  20.251  0.00  0.00    +0.000 NA
ATOM      6  C   UNL     1       3.451   3.157  20.355  0.00  0.00    +0.000 A 
ATOM      7  C   UNL     1       2.637   2.692  21.398  0.00  0.00    +0.000 A 
ATOM      8  C   UNL     1       1.248   2.823  21.277  0.00  0.00    +0.000 A 
ATOM      9  C   UNL     1       0.682   3.399  20.138  0.00  0.00    +0.000 A 
ATOM     10  C   UNL     1       1.478   3.871  19.086  0.00  0.00    +0.000 A 
ATOM     11  C   UNL     1       2.862   3.735  19.234  0.00  0.00    +0.000 A 
ATOM     12  N   UNL     1       3.935   4.099  18.467  0.00  0.00    +0.000 N 
ATOM     13  C   UNL     1       3.970   4.841  17.213  0.00  0.00    +0.000 C 
ATOM     14  N   UNL     1       5.277   4.716  16.556  0.00  0.00    +0.000 N 
ATOM     15  H   UNL     1       8.294   4.420  17.312  0.00  0.00    +0.000 HD
ATOM     16  H   UNL     1       7.584   4.475  15.804  0.00  0.00    +0.000 HD
ATOM     17  H   UNL     1       5.446   5.459  15.892  0.00  0.00    +0.000 HD
ENDROOT
BRANCH  13  18
ATOM     18  C   UNL     1       3.606   6.278  17.484  0.00  0.00    +0.000 A 
ATOM     19  C   UNL     1       3.938   7.438  16.813  0.00  0.00    +0.000 A 
ATOM     20  C   UNL     1       3.290   8.488  17.487  0.00  0.00    +0.000 A 
ATOM     21  C   UNL     1       2.555   7.926  18.514  0.00  0.00    +0.000 A 
ATOM     22  O   UNL     1       2.747   6.565  18.520  0.00  0.00    +0.000 OA
BRANCH  21  23
ATOM     23  C   UNL     1       1.591   8.516  19.447  0.00  0.00    +0.000 A 
ATOM     24  C   UNL     1       0.864   9.673  19.149  0.00  0.00    +0.000 A 
ATOM     25  C   UNL     1       0.156  10.349  20.156  0.00  0.00    +0.000 A 
ATOM     26  C   UNL     1       0.156   9.870  21.473  0.00  0.00    +0.000 A 
ATOM     27  C   UNL     1       0.773   8.650  21.755  0.00  0.00    +0.000 A 
ATOM     28  C   UNL     1       1.481   7.984  20.748  0.00  0.00    +0.000 A 
BRANCH  26  29
ATOM     29  C   UNL     1      -0.504  10.687  22.526  0.00  0.00    +0.000 C 
ATOM     30  O   UNL     1      -1.195  10.200  23.405  0.00  0.00    +0.000 OA
BRANCH  29  31
ATOM     31  O   UNL     1      -0.330  12.019  22.384  0.00  0.00    +0.000 OA
ATOM     32  H   UNL     1       0.548  12.302  22.072  0.00  0.00    +0.000 HD
ENDBRANCH  29  31
ENDBRANCH  26  29
ENDBRANCH  21  23
ENDBRANCH  13  18
TORSDOF 4
ENDMDL
MODEL 7
REMARK VINA RESULT:      -8.9      2.628      4.328
REMARK  Name = 
REMARK  4 active torsions:
REMARK  status: ('A' for Active; 'I' for Inactive)
REMARK    1  A    between atoms: C_13  and  C_14
REMARK    2  A    between atoms: C_17  and  C_18
REMARK    3  A    between atoms: C_21  and  C_22
REMARK    4  A    between atoms: C_22  and  O_24
REMARK                            x       y       z     vdW  Elec       q    Type
REMARK                         _______ _______ _______ _____ _____    ______ ____
ROOT
ATOM      1  N   UNL     1       7.059   7.667  17.246  0.00  0.00    +0.000 N 
ATOM      2  C   UNL     1       6.089   6.742  17.441  0.00  0.00    +0.000 C 
ATOM      3  N   UNL     1       6.280   5.742  18.233  0.00  0.00    +0.000 NA
ATOM      4  C   UNL     1       5.245   4.878  18.389  0.00  0.00    +0.000 A 
ATOM      5  N   UNL     1       5.222   3.741  19.052  0.00  0.00    +0.000 NA
ATOM      6  C   UNL     1       3.937   3.268  18.956  0.00  0.00    +0.000 A 
ATOM      7  C   UNL     1       3.373   2.109  19.507  0.00  0.00    +0.000 A 
ATOM      8  C   UNL     1       2.017   1.847  19.277  0.00  0.00    +0.000 A 
ATOM      9  C   UNL     1       1.241   2.719  18.511  0.00  0.00    +0.000 A 
ATOM     10  C   UNL     1       1.786   3.883  17.954  0.00  0.00    +0.000 A 
ATOM     11  C   UNL     1       3.140   4.126  18.203  0.00  0.00    +0.000 A 
ATOM     12  N   UNL     1       3.994   5.144  17.875  0.00  0.00    +0.000 N 
ATOM     13  C   UNL     1       3.723   6.393  17.175  0.00  0.00    +0.000 C 
ATOM     14  N   UNL     1       4.966   7.034  16.729  0.00  0.00    +0.000 N 
ATOM     15  H   UNL     1       7.938   7.341  17.643  0.00  0.00    +0.000 HD
ATOM     16  H   UNL     1       7.185   7.941  16.282  0.00  0.00    +0.000 HD
ATOM     17  H   UNL     1       4.847   8.023  16.553  0.00  0.00    +0.000 HD
ENDROOT
BRANCH  13  18
ATOM     18  C   UNL     1       2.911   7.290  18.073  0.00  0.00    +0.000 A 
ATOM     19  C   UNL     1       2.507   7.133  19.384  0.00  0.00    +0.000 A 
ATOM     20  C   UNL     1       1.803   8.301  19.727  0.00  0.00    +0.000 A 
ATOM     21  C   UNL     1       1.841   9.141  18.630  0.00  0.00    +0.000 A 
ATOM     22  O   UNL     1       2.519   8.524  17.607  0.00  0.00    +0.000 OA
BRANCH  21  23
ATOM     23  C   UNL     1       1.395  10.527  18.459  0.00  0.00    +0.000 A 
ATOM     24  C   UNL     1       2.268  11.562  18.110  0.00  0.00    +0.000 A 
ATOM     25  C   UNL     1       1.861  12.902  18.211  0.00  0.00    +0.000 A 
ATOM     26  C   UNL     1       0.571  13.225  18.654  0.00  0.00    +0.000 A 
ATOM     27  C   UNL     1      -0.347  12.198  18.884  0.00  0.00    +0.000 A 
ATOM     28  C   UNL     1       0.066  10.865  18.785  0.00  0.00    +0.000 A 
BRANCH  26  29
ATOM     29  C   UNL     1       0.229  14.657  18.863  0.00  0.00    +0.000 C 
ATOM     30  O   UNL     1       1.063  15.546  18.839  0.00  0.00    +0.000 OA
BRANCH  29  31
ATOM     31  O   UNL     1      -1.072  14.880  19.150  0.00  0.00    +0.000 OA
ATOM     32  H   UNL     1      -1.372  14.576  20.025  0.00  0.00    +0.000 HD
ENDBRANCH  29  31
ENDBRANCH  26  29
ENDBRANCH  21  23
ENDBRANCH  13  18
TORSDOF 4
ENDMDL
MODEL 8
REMARK VINA RESULT:      -8.3      4.250      8.615
REMARK  Name = 
REMARK  4 active torsions:
REMARK  status: ('A' for Active; 'I' for Inactive)
REMARK    1  A    between atoms: C_13  and  C_14
REMARK    2  A    between atoms: C_17  and  C_18
REMARK    3  A    between atoms: C_21  and  C_22
REMARK    4  A    between atoms: C_22  and  O_24
REMARK                            x       y       z     vdW  Elec       q    Type
REMARK                         _______ _______ _______ _____ _____    ______ ____
ROOT
ATOM      1  N   UNL     1      -2.861   9.651  17.242  0.00  0.00    +0.000 N 
ATOM      2  C   UNL     1      -1.988  10.469  17.876  0.00  0.00    +0.000 C 
ATOM      3  N   UNL     1      -2.408  11.394  18.671  0.00  0.00    +0.000 NA
ATOM      4  C   UNL     1      -1.462  12.151  19.284  0.00  0.00    +0.000 A 
ATOM      5  N   UNL     1      -1.632  13.208  20.050  0.00  0.00    +0.000 NA
ATOM      6  C   UNL     1      -0.379  13.582  20.468  0.00  0.00    +0.000 A 
ATOM      7  C   UNL     1      -0.002  14.629  21.320  0.00  0.00    +0.000 A 
ATOM      8  C   UNL     1       1.356  14.802  21.612  0.00  0.00    +0.000 A 
ATOM      9  C   UNL     1       2.318  13.953  21.062  0.00  0.00    +0.000 A 
ATOM     10  C   UNL     1       1.961  12.901  20.209  0.00  0.00    +0.000 A 
ATOM     11  C   UNL     1       0.598  12.745  19.939  0.00  0.00    +0.000 A 
ATOM     12  N   UNL     1      -0.122  11.839  19.209  0.00  0.00    +0.000 N 
ATOM     13  C   UNL     1       0.330  10.650  18.497  0.00  0.00    +0.000 C 
ATOM     14  N   UNL     1      -0.698  10.161  17.570  0.00  0.00    +0.000 N 
ATOM     15  H   UNL     1      -3.810  10.005  17.345  0.00  0.00    +0.000 HD
ATOM     16  H   UNL     1      -2.647   9.488  16.268  0.00  0.00    +0.000 HD
ATOM     17  H   UNL     1      -0.563   9.189  17.325  0.00  0.00    +0.000 HD
ENDROOT
BRANCH  13  18
ATOM     18  C   UNL     1       0.734   9.602  19.502  0.00  0.00    +0.000 A 
ATOM     19  C   UNL     1       0.386   9.439  20.829  0.00  0.00    +0.000 A 
ATOM     20  C   UNL     1       1.028   8.268  21.268  0.00  0.00    +0.000 A 
ATOM     21  C   UNL     1       1.705   7.740  20.184  0.00  0.00    +0.000 A 
ATOM     22  O   UNL     1       1.531   8.559  19.095  0.00  0.00    +0.000 OA
BRANCH  21  23
ATOM     23  C   UNL     1       2.429   6.476  20.020  0.00  0.00    +0.000 A 
ATOM     24  C   UNL     1       3.401   6.286  19.033  0.00  0.00    +0.000 A 
ATOM     25  C   UNL     1       3.878   4.999  18.740  0.00  0.00    +0.000 A 
ATOM     26  C   UNL     1       3.397   3.883  19.440  0.00  0.00    +0.000 A 
ATOM     27  C   UNL     1       2.522   4.075  20.510  0.00  0.00    +0.000 A 
ATOM     28  C   UNL     1       2.047   5.361  20.793  0.00  0.00    +0.000 A 
BRANCH  26  29
ATOM     29  C   UNL     1       3.840   2.530  19.009  0.00  0.00    +0.000 C 
ATOM     30  O   UNL     1       3.217   1.853  18.209  0.00  0.00    +0.000 OA
BRANCH  29  31
ATOM     31  O   UNL     1       4.954   2.087  19.632  0.00  0.00    +0.000 OA
ATOM     32  H   UNL     1       4.885   1.212  20.054  0.00  0.00    +0.000 HD
ENDBRANCH  29  31
ENDBRANCH  26  29
ENDBRANCH  21  23
ENDBRANCH  13  18
TORSDOF 4
ENDMDL
MODEL 9
REMARK VINA RESULT:      -8.1      4.807      9.549
REMARK  Name = 
REMARK  4 active torsions:
REMARK  status: ('A' for Active; 'I' for Inactive)
REMARK    1  A    between atoms: C_13  and  C_14
REMARK    2  A    between atoms: C_17  and  C_18
REMARK    3  A    between atoms: C_21  and  C_22
REMARK    4  A    between atoms: C_22  and  O_24
REMARK                            x       y       z     vdW  Elec       q    Type
REMARK                         _______ _______ _______ _____ _____    ______ ____
ROOT
ATOM      1  N   UNL     1      -2.447  10.586  15.488  0.00  0.00    +0.000 N 
ATOM      2  C   UNL     1      -2.698  11.189  16.674  0.00  0.00    +0.000 C 
ATOM      3  N   UNL     1      -3.841  11.050  17.256  0.00  0.00    +0.000 NA
ATOM      4  C   UNL     1      -3.997  11.669  18.454  0.00  0.00    +0.000 A 
ATOM      5  N   UNL     1      -5.085  11.763  19.190  0.00  0.00    +0.000 NA
ATOM      6  C   UNL     1      -4.719  12.436  20.328  0.00  0.00    +0.000 A 
ATOM      7  C   UNL     1      -5.492  12.776  21.448  0.00  0.00    +0.000 A 
ATOM      8  C   UNL     1      -4.880  13.460  22.505  0.00  0.00    +0.000 A 
ATOM      9  C   UNL     1      -3.528  13.803  22.446  0.00  0.00    +0.000 A 
ATOM     10  C   UNL     1      -2.739  13.471  21.337  0.00  0.00    +0.000 A 
ATOM     11  C   UNL     1      -3.372  12.782  20.298  0.00  0.00    +0.000 A 
ATOM     12  N   UNL     1      -2.940  12.266  19.106  0.00  0.00    +0.000 N 
ATOM     13  C   UNL     1      -1.594  12.217  18.549  0.00  0.00    +0.000 C 
ATOM     14  N   UNL     1      -1.622  11.895  17.117  0.00  0.00    +0.000 N 
ATOM     15  H   UNL     1      -3.309  10.214  15.095  0.00  0.00    +0.000 HD
ATOM     16  H   UNL     1      -1.974  11.172  14.815  0.00  0.00    +0.000 HD
ATOM     17  H   UNL     1      -0.738  11.530  16.787  0.00  0.00    +0.000 HD
ENDROOT
BRANCH  13  18
ATOM     18  C   UNL     1      -0.773  11.229  19.337  0.00  0.00    +0.000 A 
ATOM     19  C   UNL     1      -0.840  10.853  20.664  0.00  0.00    +0.000 A 
ATOM     20  C   UNL     1       0.145   9.866  20.848  0.00  0.00    +0.000 A 
ATOM     21  C   UNL     1       0.742   9.647  19.621  0.00  0.00    +0.000 A 
ATOM     22  O   UNL     1       0.184  10.486  18.687  0.00  0.00    +0.000 OA
BRANCH  21  23
ATOM     23  C   UNL     1       1.726   8.650  19.189  0.00  0.00    +0.000 A 
ATOM     24  C   UNL     1       2.347   8.697  17.937  0.00  0.00    +0.000 A 
ATOM     25  C   UNL     1       3.076   7.595  17.462  0.00  0.00    +0.000 A 
ATOM     26  C   UNL     1       3.202   6.434  18.237  0.00  0.00    +0.000 A 
ATOM     27  C   UNL     1       2.693   6.424  19.537  0.00  0.00    +0.000 A 
ATOM     28  C   UNL     1       1.964   7.524  20.003  0.00  0.00    +0.000 A 
BRANCH  26  29
ATOM     29  C   UNL     1       3.877   5.251  17.640  0.00  0.00    +0.000 C 
ATOM     30  O   UNL     1       3.797   4.133  18.118  0.00  0.00    +0.000 OA
BRANCH  29  31
ATOM     31  O   UNL     1       4.641   5.534  16.563  0.00  0.00    +0.000 OA
ATOM     32  H   UNL     1       4.602   4.890  15.833  0.00  0.00    +0.000 HD
ENDBRANCH  29  31
ENDBRANCH  26  29
ENDBRANCH  21  23
ENDBRANCH  13  18
TORSDOF 4
ENDMDL
