MODEL 1
REMARK VINA RESULT:      -8.3      0.000      0.000
REMARK  Name = 
REMARK  3 active torsions:
REMARK  status: ('A' for Active; 'I' for Inactive)
REMARK    1  A    between atoms: C_4  and  C_5
REMARK    2  A    between atoms: C_5  and  N_6
REMARK    3  A    between atoms: C_20  and  C_21
REMARK                            x       y       z     vdW  Elec       q    Type
REMARK                         _______ _______ _______ _____ _____    ______ ____
ROOT
ATOM      1  O   UNL     1       4.209   7.591  16.987  0.00  0.00    +0.000 OA
ATOM      2  C   UNL     1       3.435   7.538  17.939  0.00  0.00    +0.000 A 
ATOM      3  C   UNL     1       2.625   8.753  18.259  0.00  0.00    +0.000 A 
ATOM      4  C   UNL     1       1.749   8.725  19.273  0.00  0.00    +0.000 A 
ATOM      5  N   UNL     1       1.601   7.600  20.072  0.00  0.00    +0.000 NA
ATOM      6  C   UNL     1       2.327   6.574  19.792  0.00  0.00    +0.000 A 
ATOM      7  S   UNL     1       2.268   5.082  20.719  0.00  0.00    +0.000 S 
ATOM      8  C   UNL     1       3.436   4.354  19.664  0.00  0.00    +0.000 A 
ATOM      9  C   UNL     1       3.837   5.200  18.697  0.00  0.00    +0.000 A 
ATOM     10  N   UNL     1       3.234   6.452  18.762  0.00  0.00    +0.000 N 
ENDROOT
BRANCH   9  11
ATOM     11  C   UNL     1       4.800   4.751  17.680  0.00  0.00    +0.000 A 
ATOM     12  C   UNL     1       6.176   4.939  17.872  0.00  0.00    +0.000 A 
ATOM     13  C   UNL     1       7.092   4.588  16.873  0.00  0.00    +0.000 A 
ATOM     14  C   UNL     1       6.639   4.061  15.665  0.00  0.00    +0.000 A 
ATOM     15  C   UNL     1       5.273   3.892  15.453  0.00  0.00    +0.000 A 
ATOM     16  C   UNL     1       4.356   4.242  16.452  0.00  0.00    +0.000 A 
ENDBRANCH   9  11
BRANCH   4  17
ATOM     17  C   UNL     1       0.825   9.866  19.725  0.00  0.00    +0.000 C 
BRANCH  17  18
ATOM     18  N   UNL     1      -0.634  10.026  19.444  0.00  0.00    +0.000 NA
ATOM     19  C   UNL     1      -1.166  11.355  19.804  0.00  0.00    +0.000 C 
ATOM     20  C   UNL     1      -2.578  11.704  19.239  0.00  0.00    +0.000 C 
ATOM     21  C   UNL     1      -2.871  11.183  17.857  0.00  0.00    +0.000 A 
ATOM     22  C   UNL     1      -4.005  11.598  17.135  0.00  0.00    +0.000 A 
ATOM     23  C   UNL     1      -4.263  11.099  15.852  0.00  0.00    +0.000 A 
ATOM     24  C   UNL     1      -3.399  10.174  15.280  0.00  0.00    +0.000 A 
ATOM     25  C   UNL     1      -2.281   9.746  15.994  0.00  0.00    +0.000 A 
ATOM     26  C   UNL     1      -2.017  10.237  17.290  0.00  0.00    +0.000 A 
ATOM     27  C   UNL     1      -0.736   9.835  17.966  0.00  0.00    +0.000 C 
ENDBRANCH  17  18
ENDBRANCH   4  17
TORSDOF 3
ENDMDL
MODEL 2
REMARK VINA RESULT:      -8.2      2.355      3.297
REMARK  Name = 
REMARK  3 active torsions:
REMARK  status: ('A' for Active; 'I' for Inactive)
REMARK    1  A    between atoms: C_4  and  C_5
REMARK    2  A    between atoms: C_5  and  N_6
REMARK    3  A    between atoms: C_20  and  C_21
REMARK                            x       y       z     vdW  Elec       q    Type
REMARK                         _______ _______ _______ _____ _____    ______ ____
ROOT
ATOM      1  O   UNL     1       4.331   7.120  17.068  0.00  0.00    +0.000 OA
ATOM      2  C   UNL     1       3.725   6.656  18.030  0.00  0.00    +0.000 A 
ATOM      3  C   UNL     1       2.856   7.576  18.827  0.00  0.00    +0.000 A 
ATOM      4  C   UNL     1       2.156   7.102  19.867  0.00  0.00    +0.000 A 
ATOM      5  N   UNL     1       2.247   5.774  20.257  0.00  0.00    +0.000 NA
ATOM      6  C   UNL     1       3.020   5.006  19.570  0.00  0.00    +0.000 A 
ATOM      7  S   UNL     1       3.256   3.306  19.947  0.00  0.00    +0.000 S 
ATOM      8  C   UNL     1       4.312   3.127  18.584  0.00  0.00    +0.000 A 
ATOM      9  C   UNL     1       4.471   4.283  17.915  0.00  0.00    +0.000 A 
ATOM     10  N   UNL     1       3.763   5.349  18.462  0.00  0.00    +0.000 N 
ENDROOT
BRANCH   9  11
ATOM     11  C   UNL     1       5.304   4.323  16.703  0.00  0.00    +0.000 A 
ATOM     12  C   UNL     1       6.660   4.672  16.784  0.00  0.00    +0.000 A 
ATOM     13  C   UNL     1       7.438   4.791  15.627  0.00  0.00    +0.000 A 
ATOM     14  C   UNL     1       6.864   4.579  14.375  0.00  0.00    +0.000 A 
ATOM     15  C   UNL     1       5.512   4.257  14.280  0.00  0.00    +0.000 A 
ATOM     16  C   UNL     1       4.733   4.136  15.438  0.00  0.00    +0.000 A 
ENDBRANCH   9  11
BRANCH   4  17
ATOM     17  C   UNL     1       1.204   7.895  20.775  0.00  0.00    +0.000 C 
BRANCH  17  18
ATOM     18  N   UNL     1       0.921   9.362  20.742  0.00  0.00    +0.000 NA
ATOM     19  C   UNL     1       0.325   9.825  19.473  0.00  0.00    +0.000 C 
ATOM     20  C   UNL     1      -0.298  11.255  19.489  0.00  0.00    +0.000 C 
ATOM     21  C   UNL     1      -0.984  11.650  20.770  0.00  0.00    +0.000 A 
ATOM     22  C   UNL     1      -1.774  12.810  20.859  0.00  0.00    +0.000 A 
ATOM     23  C   UNL     1      -2.401  13.164  22.061  0.00  0.00    +0.000 A 
ATOM     24  C   UNL     1      -2.238  12.370  23.188  0.00  0.00    +0.000 A 
ATOM     25  C   UNL     1      -1.445  11.225  23.113  0.00  0.00    +0.000 A 
ATOM     26  C   UNL     1      -0.804  10.866  21.909  0.00  0.00    +0.000 A 
ATOM     27  C   UNL     1      -0.060   9.561  21.851  0.00  0.00    +0.000 C 
ENDBRANCH  17  18
ENDBRANCH   4  17
TORSDOF 3
ENDMDL
MODEL 3
REMARK VINA RESULT:      -8.0      3.386      9.445
REMARK  Name = 
REMARK  3 active torsions:
REMARK  status: ('A' for Active; 'I' for Inactive)
REMARK    1  A    between atoms: C_4  and  C_5
REMARK    2  A    between atoms: C_5  and  N_6
REMARK    3  A    between atoms: C_20  and  C_21
REMARK                            x       y       z     vdW  Elec       q    Type
REMARK                         _______ _______ _______ _____ _____    ______ ____
ROOT
ATOM      1  O   UNL     1      -0.056  10.741  22.989  0.00  0.00    +0.000 OA
ATOM      2  C   UNL     1       0.007  10.581  21.773  0.00  0.00    +0.000 A 
ATOM      3  C   UNL     1       0.941   9.538  21.247  0.00  0.00    +0.000 A 
ATOM      4  C   UNL     1       1.018   9.314  19.928  0.00  0.00    +0.000 A 
ATOM      5  N   UNL     1       0.278  10.058  19.021  0.00  0.00    +0.000 NA
ATOM      6  C   UNL     1      -0.502  10.967  19.497  0.00  0.00    +0.000 A 
ATOM      7  S   UNL     1      -1.490  12.004  18.479  0.00  0.00    +0.000 S 
ATOM      8  C   UNL     1      -2.155  12.781  19.879  0.00  0.00    +0.000 A 
ATOM      9  C   UNL     1      -1.644  12.286  21.021  0.00  0.00    +0.000 A 
ATOM     10  N   UNL     1      -0.706  11.277  20.823  0.00  0.00    +0.000 N 
ENDROOT
BRANCH   9  11
ATOM     11  C   UNL     1      -2.114  12.794  22.318  0.00  0.00    +0.000 A 
ATOM     12  C   UNL     1      -3.292  12.293  22.893  0.00  0.00    +0.000 A 
ATOM     13  C   UNL     1      -3.789  12.829  24.087  0.00  0.00    +0.000 A 
ATOM     14  C   UNL     1      -3.123  13.883  24.709  0.00  0.00    +0.000 A 
ATOM     15  C   UNL     1      -1.966  14.405  24.136  0.00  0.00    +0.000 A 
ATOM     16  C   UNL     1      -1.467  13.869  22.942  0.00  0.00    +0.000 A 
ENDBRANCH   9  11
BRANCH   4  17
ATOM     17  C   UNL     1       1.900   8.275  19.221  0.00  0.00    +0.000 C 
BRANCH  17  18
ATOM     18  N   UNL     1       2.338   6.943  19.739  0.00  0.00    +0.000 NA
ATOM     19  C   UNL     1       1.307   6.245  20.532  0.00  0.00    +0.000 C 
ATOM     20  C   UNL     1       1.567   4.733  20.816  0.00  0.00    +0.000 C 
ATOM     21  C   UNL     1       2.231   3.968  19.702  0.00  0.00    +0.000 A 
ATOM     22  C   UNL     1       2.330   2.565  19.724  0.00  0.00    +0.000 A 
ATOM     23  C   UNL     1       2.956   1.871  18.680  0.00  0.00    +0.000 A 
ATOM     24  C   UNL     1       3.497   2.569  17.609  0.00  0.00    +0.000 A 
ATOM     25  C   UNL     1       3.416   3.961  17.585  0.00  0.00    +0.000 A 
ATOM     26  C   UNL     1       2.795   4.668  18.636  0.00  0.00    +0.000 A 
ATOM     27  C   UNL     1       2.629   6.157  18.502  0.00  0.00    +0.000 C 
ENDBRANCH  17  18
ENDBRANCH   4  17
TORSDOF 3
ENDMDL
MODEL 4
REMARK VINA RESULT:      -7.9      0.755      1.701
REMARK  Name = 
REMARK  3 active torsions:
REMARK  status: ('A' for Active; 'I' for Inactive)
REMARK    1  A    between atoms: C_4  and  C_5
REMARK    2  A    between atoms: C_5  and  N_6
REMARK    3  A    between atoms: C_20  and  C_21
REMARK                            x       y       z     vdW  Elec       q    Type
REMARK                         _______ _______ _______ _____ _____    ______ ____
ROOT
ATOM      1  O   UNL     1       4.127   7.660  16.836  0.00  0.00    +0.000 OA
ATOM      2  C   UNL     1       3.333   7.649  17.773  0.00  0.00    +0.000 A 
ATOM      3  C   UNL     1       2.451   8.842  17.964  0.00  0.00    +0.000 A 
ATOM      4  C   UNL     1       1.551   8.855  18.957  0.00  0.00    +0.000 A 
ATOM      5  N   UNL     1       1.441   7.800  19.851  0.00  0.00    +0.000 NA
ATOM      6  C   UNL     1       2.228   6.794  19.680  0.00  0.00    +0.000 A 
ATOM      7  S   UNL     1       2.223   5.389  20.736  0.00  0.00    +0.000 S 
ATOM      8  C   UNL     1       3.454   4.636  19.776  0.00  0.00    +0.000 A 
ATOM      9  C   UNL     1       3.836   5.413  18.746  0.00  0.00    +0.000 A 
ATOM     10  N   UNL     1       3.167   6.631  18.686  0.00  0.00    +0.000 N 
ENDROOT
BRANCH   9  11
ATOM     11  C   UNL     1       4.848   4.928  17.795  0.00  0.00    +0.000 A 
ATOM     12  C   UNL     1       6.211   5.165  18.025  0.00  0.00    +0.000 A 
ATOM     13  C   UNL     1       7.173   4.779  17.084  0.00  0.00    +0.000 A 
ATOM     14  C   UNL     1       6.780   4.167  15.896  0.00  0.00    +0.000 A 
ATOM     15  C   UNL     1       5.427   3.948  15.644  0.00  0.00    +0.000 A 
ATOM     16  C   UNL     1       4.464   4.334  16.586  0.00  0.00    +0.000 A 
ENDBRANCH   9  11
BRANCH   4  17
ATOM     17  C   UNL     1       0.558   9.980  19.284  0.00  0.00    +0.000 C 
BRANCH  17  18
ATOM     18  N   UNL     1      -0.451  10.601  18.373  0.00  0.00    +0.000 NA
ATOM     19  C   UNL     1      -1.015   9.663  17.382  0.00  0.00    +0.000 C 
ATOM     20  C   UNL     1      -2.295  10.144  16.632  0.00  0.00    +0.000 C 
ATOM     21  C   UNL     1      -3.260  10.960  17.453  0.00  0.00    +0.000 A 
ATOM     22  C   UNL     1      -4.548  11.276  16.983  0.00  0.00    +0.000 A 
ATOM     23  C   UNL     1      -5.429  12.039  17.759  0.00  0.00    +0.000 A 
ATOM     24  C   UNL     1      -5.033  12.503  19.006  0.00  0.00    +0.000 A 
ATOM     25  C   UNL     1      -3.753  12.207  19.473  0.00  0.00    +0.000 A 
ATOM     26  C   UNL     1      -2.856  11.446  18.695  0.00  0.00    +0.000 A 
ATOM     27  C   UNL     1      -1.534  11.055  19.297  0.00  0.00    +0.000 C 
ENDBRANCH  17  18
ENDBRANCH   4  17
TORSDOF 3
ENDMDL
MODEL 5
REMARK VINA RESULT:      -7.9      3.485      9.553
REMARK  Name = 
REMARK  3 active torsions:
REMARK  status: ('A' for Active; 'I' for Inactive)
REMARK    1  A    between atoms: C_4  and  C_5
REMARK    2  A    between atoms: C_5  and  N_6
REMARK    3  A    between atoms: C_20  and  C_21
REMARK                            x       y       z     vdW  Elec       q    Type
REMARK                         _______ _______ _______ _____ _____    ______ ____
ROOT
ATOM      1  O   UNL     1      -0.851  10.913  23.520  0.00  0.00    +0.000 OA
ATOM      2  C   UNL     1      -0.482  10.575  22.399  0.00  0.00    +0.000 A 
ATOM      3  C   UNL     1       0.463   9.422  22.285  0.00  0.00    +0.000 A 
ATOM      4  C   UNL     1       0.866   9.004  21.077  0.00  0.00    +0.000 A 
ATOM      5  N   UNL     1       0.461   9.646  19.915  0.00  0.00    +0.000 NA
ATOM      6  C   UNL     1      -0.335  10.652  20.040  0.00  0.00    +0.000 A 
ATOM      7  S   UNL     1      -0.924  11.578  18.668  0.00  0.00    +0.000 S 
ATOM      8  C   UNL     1      -1.865  12.582  19.722  0.00  0.00    +0.000 A 
ATOM      9  C   UNL     1      -1.720  12.233  21.013  0.00  0.00    +0.000 A 
ATOM     10  N   UNL     1      -0.855  11.161  21.209  0.00  0.00    +0.000 N 
ENDROOT
BRANCH   9  11
ATOM     11  C   UNL     1      -2.471  12.947  22.057  0.00  0.00    +0.000 A 
ATOM     12  C   UNL     1      -3.789  12.578  22.362  0.00  0.00    +0.000 A 
ATOM     13  C   UNL     1      -4.538  13.305  23.296  0.00  0.00    +0.000 A 
ATOM     14  C   UNL     1      -3.980  14.418  23.922  0.00  0.00    +0.000 A 
ATOM     15  C   UNL     1      -2.680  14.809  23.610  0.00  0.00    +0.000 A 
ATOM     16  C   UNL     1      -1.930  14.082  22.676  0.00  0.00    +0.000 A 
ENDBRANCH   9  11
BRANCH   4  17
ATOM     17  C   UNL     1       1.810   7.831  20.776  0.00  0.00    +0.000 C 
BRANCH  17  18
ATOM     18  N   UNL     1       1.775   6.908  19.601  0.00  0.00    +0.000 NA
ATOM     19  C   UNL     1       2.991   6.962  18.766  0.00  0.00    +0.000 C 
ATOM     20  C   UNL     1       3.166   5.806  17.733  0.00  0.00    +0.000 C 
ATOM     21  C   UNL     1       2.688   4.452  18.188  0.00  0.00    +0.000 A 
ATOM     22  C   UNL     1       2.976   3.283  17.460  0.00  0.00    +0.000 A 
ATOM     23  C   UNL     1       2.519   2.033  17.897  0.00  0.00    +0.000 A 
ATOM     24  C   UNL     1       1.762   1.937  19.057  0.00  0.00    +0.000 A 
ATOM     25  C   UNL     1       1.459   3.092  19.776  0.00  0.00    +0.000 A 
ATOM     26  C   UNL     1       1.908   4.356  19.340  0.00  0.00    +0.000 A 
ATOM     27  C   UNL     1       1.656   5.552  20.216  0.00  0.00    +0.000 C 
ENDBRANCH  17  18
ENDBRANCH   4  17
TORSDOF 3
ENDMDL
MODEL 6
REMARK VINA RESULT:      -7.8      2.740      8.417
REMARK  Name = 
REMARK  3 active torsions:
REMARK  status: ('A' for Active; 'I' for Inactive)
REMARK    1  A    between atoms: C_4  and  C_5
REMARK    2  A    between atoms: C_5  and  N_6
REMARK    3  A    between atoms: C_20  and  C_21
REMARK                            x       y       z     vdW  Elec       q    Type
REMARK                         _______ _______ _______ _____ _____    ______ ____
ROOT
ATOM      1  O   UNL     1       1.882   9.952  18.370  0.00  0.00    +0.000 OA
ATOM      2  C   UNL     1       1.588   9.238  19.325  0.00  0.00    +0.000 A 
ATOM      3  C   UNL     1       1.963   7.791  19.267  0.00  0.00    +0.000 A 
ATOM      4  C   UNL     1       1.686   6.986  20.301  0.00  0.00    +0.000 A 
ATOM      5  N   UNL     1       1.014   7.451  21.422  0.00  0.00    +0.000 NA
ATOM      6  C   UNL     1       0.679   8.696  21.439  0.00  0.00    +0.000 A 
ATOM      7  S   UNL     1      -0.189   9.432  22.778  0.00  0.00    +0.000 S 
ATOM      8  C   UNL     1      -0.142  10.975  21.989  0.00  0.00    +0.000 A 
ATOM      9  C   UNL     1       0.479  10.912  20.797  0.00  0.00    +0.000 A 
ATOM     10  N   UNL     1       0.934   9.639  20.469  0.00  0.00    +0.000 N 
ENDROOT
BRANCH   9  11
ATOM     11  C   UNL     1       0.651  12.132  19.993  0.00  0.00    +0.000 A 
ATOM     12  C   UNL     1       1.794  12.930  20.150  0.00  0.00    +0.000 A 
ATOM     13  C   UNL     1       1.927  14.134  19.448  0.00  0.00    +0.000 A 
ATOM     14  C   UNL     1       0.911  14.560  18.595  0.00  0.00    +0.000 A 
ATOM     15  C   UNL     1      -0.240  13.788  18.449  0.00  0.00    +0.000 A 
ATOM     16  C   UNL     1      -0.373  12.583  19.150  0.00  0.00    +0.000 A 
ENDBRANCH   9  11
BRANCH   4  17
ATOM     17  C   UNL     1       2.016   5.491  20.419  0.00  0.00    +0.000 C 
BRANCH  17  18
ATOM     18  N   UNL     1       2.855   4.666  19.499  0.00  0.00    +0.000 NA
ATOM     19  C   UNL     1       2.369   4.648  18.105  0.00  0.00    +0.000 C 
ATOM     20  C   UNL     1       3.363   4.094  17.038  0.00  0.00    +0.000 C 
ATOM     21  C   UNL     1       4.813   4.425  17.269  0.00  0.00    +0.000 A 
ATOM     22  C   UNL     1       5.793   4.184  16.288  0.00  0.00    +0.000 A 
ATOM     23  C   UNL     1       7.138   4.495  16.523  0.00  0.00    +0.000 A 
ATOM     24  C   UNL     1       7.523   5.039  17.741  0.00  0.00    +0.000 A 
ATOM     25  C   UNL     1       6.561   5.267  18.725  0.00  0.00    +0.000 A 
ATOM     26  C   UNL     1       5.205   4.950  18.500  0.00  0.00    +0.000 A 
ATOM     27  C   UNL     1       4.194   5.327  19.547  0.00  0.00    +0.000 C 
ENDBRANCH  17  18
ENDBRANCH   4  17
TORSDOF 3
ENDMDL
MODEL 7
REMARK VINA RESULT:      -7.8      2.405      3.564
REMARK  Name = 
REMARK  3 active torsions:
REMARK  status: ('A' for Active; 'I' for Inactive)
REMARK    1  A    between atoms: C_4  and  C_5
REMARK    2  A    between atoms: C_5  and  N_6
REMARK    3  A    between atoms: C_20  and  C_21
REMARK                            x       y       z     vdW  Elec       q    Type
REMARK                         _______ _______ _______ _____ _____    ______ ____
ROOT
ATOM      1  O   UNL     1       4.490   7.128  16.730  0.00  0.00    +0.000 OA
ATOM      2  C   UNL     1       3.863   6.596  17.642  0.00  0.00    +0.000 A 
ATOM      3  C   UNL     1       3.058   7.471  18.550  0.00  0.00    +0.000 A 
ATOM      4  C   UNL     1       2.338   6.925  19.539  0.00  0.00    +0.000 A 
ATOM      5  N   UNL     1       2.350   5.558  19.776  0.00  0.00    +0.000 NA
ATOM      6  C   UNL     1       3.070   4.827  18.996  0.00  0.00    +0.000 A 
ATOM      7  S   UNL     1       3.203   3.084  19.176  0.00  0.00    +0.000 S 
ATOM      8  C   UNL     1       4.236   2.997  17.787  0.00  0.00    +0.000 A 
ATOM      9  C   UNL     1       4.461   4.211  17.250  0.00  0.00    +0.000 A 
ATOM     10  N   UNL     1       3.824   5.248  17.923  0.00  0.00    +0.000 N 
ENDROOT
BRANCH   9  11
ATOM     11  C   UNL     1       5.286   4.337  16.039  0.00  0.00    +0.000 A 
ATOM     12  C   UNL     1       4.770   3.973  14.786  0.00  0.00    +0.000 A 
ATOM     13  C   UNL     1       5.575   4.013  13.642  0.00  0.00    +0.000 A 
ATOM     14  C   UNL     1       6.909   4.403  13.741  0.00  0.00    +0.000 A 
ATOM     15  C   UNL     1       7.441   4.743  14.983  0.00  0.00    +0.000 A 
ATOM     16  C   UNL     1       6.635   4.704  16.129  0.00  0.00    +0.000 A 
ENDBRANCH   9  11
BRANCH   4  17
ATOM     17  C   UNL     1       1.444   7.666  20.544  0.00  0.00    +0.000 C 
BRANCH  17  18
ATOM     18  N   UNL     1       1.131   9.126  20.585  0.00  0.00    +0.000 NA
ATOM     19  C   UNL     1       0.486   9.631  19.356  0.00  0.00    +0.000 C 
ATOM     20  C   UNL     1      -0.164  11.045  19.453  0.00  0.00    +0.000 C 
ATOM     21  C   UNL     1      -0.818  11.370  20.770  0.00  0.00    +0.000 A 
ATOM     22  C   UNL     1      -1.628  12.508  20.934  0.00  0.00    +0.000 A 
ATOM     23  C   UNL     1      -2.224  12.796  22.169  0.00  0.00    +0.000 A 
ATOM     24  C   UNL     1      -2.011  11.957  23.254  0.00  0.00    +0.000 A 
ATOM     25  C   UNL     1      -1.198  10.834  23.105  0.00  0.00    +0.000 A 
ATOM     26  C   UNL     1      -0.587  10.542  21.868  0.00  0.00    +0.000 A 
ATOM     27  C   UNL     1       0.181   9.256  21.730  0.00  0.00    +0.000 C 
ENDBRANCH  17  18
ENDBRANCH   4  17
TORSDOF 3
ENDMDL
MODEL 8
REMARK VINA RESULT:      -7.6      2.126      3.152
REMARK  Name = 
REMARK  3 active torsions:
REMARK  status: ('A' for Active; 'I' for Inactive)
REMARK    1  A    between atoms: C_4  and  C_5
REMARK    2  A    between atoms: C_5  and  N_6
REMARK    3  A    between atoms: C_20  and  C_21
REMARK                            x       y       z     vdW  Elec       q    Type
REMARK                         _______ _______ _______ _____ _____    ______ ____
ROOT
ATOM      1  O   UNL     1       4.249   7.459  16.891  0.00  0.00    +0.000 OA
ATOM      2  C   UNL     1       3.479   7.368  17.843  0.00  0.00    +0.000 A 
ATOM      3  C   UNL     1       2.590   8.532  18.146  0.00  0.00    +0.000 A 
ATOM      4  C   UNL     1       1.716   8.461  19.159  0.00  0.00    +0.000 A 
ATOM      5  N   UNL     1       1.639   7.339  19.972  0.00  0.00    +0.000 NA
ATOM      6  C   UNL     1       2.431   6.358  19.706  0.00  0.00    +0.000 A 
ATOM      7  S   UNL     1       2.466   4.877  20.652  0.00  0.00    +0.000 S 
ATOM      8  C   UNL     1       3.680   4.213  19.608  0.00  0.00    +0.000 A 
ATOM      9  C   UNL     1       4.028   5.071  18.631  0.00  0.00    +0.000 A 
ATOM     10  N   UNL     1       3.345   6.282  18.680  0.00  0.00    +0.000 N 
ENDROOT
BRANCH   9  11
ATOM     11  C   UNL     1       5.020   4.671  17.621  0.00  0.00    +0.000 A 
ATOM     12  C   UNL     1       6.387   4.892  17.842  0.00  0.00    +0.000 A 
ATOM     13  C   UNL     1       7.330   4.589  16.852  0.00  0.00    +0.000 A 
ATOM     14  C   UNL     1       6.912   4.079  15.624  0.00  0.00    +0.000 A 
ATOM     15  C   UNL     1       5.554   3.879  15.384  0.00  0.00    +0.000 A 
ATOM     16  C   UNL     1       4.611   4.180  16.374  0.00  0.00    +0.000 A 
ENDBRANCH   9  11
BRANCH   4  17
ATOM     17  C   UNL     1       0.720   9.545  19.595  0.00  0.00    +0.000 C 
BRANCH  17  18
ATOM     18  N   UNL     1       0.382  10.814  18.882  0.00  0.00    +0.000 NA
ATOM     19  C   UNL     1      -0.940  11.366  19.243  0.00  0.00    +0.000 C 
ATOM     20  C   UNL     1      -1.213  12.836  18.802  0.00  0.00    +0.000 C 
ATOM     21  C   UNL     1      -0.028  13.763  18.862  0.00  0.00    +0.000 A 
ATOM     22  C   UNL     1      -0.167  15.154  18.706  0.00  0.00    +0.000 A 
ATOM     23  C   UNL     1       0.948  16.000  18.761  0.00  0.00    +0.000 A 
ATOM     24  C   UNL     1       2.214  15.467  18.961  0.00  0.00    +0.000 A 
ATOM     25  C   UNL     1       2.364  14.088  19.101  0.00  0.00    +0.000 A 
ATOM     26  C   UNL     1       1.248  13.228  19.039  0.00  0.00    +0.000 A 
ATOM     27  C   UNL     1       1.450  11.764  19.317  0.00  0.00    +0.000 C 
ENDBRANCH  17  18
ENDBRANCH   4  17
TORSDOF 3
ENDMDL
MODEL 9
REMARK VINA RESULT:      -7.6      1.778      3.191
REMARK  Name = 
REMARK  3 active torsions:
REMARK  status: ('A' for Active; 'I' for Inactive)
REMARK    1  A    between atoms: C_4  and  C_5
REMARK    2  A    between atoms: C_5  and  N_6
REMARK    3  A    between atoms: C_20  and  C_21
REMARK                            x       y       z     vdW  Elec       q    Type
REMARK                         _______ _______ _______ _____ _____    ______ ____
ROOT
ATOM      1  O   UNL     1       2.849   8.148  17.075  0.00  0.00    +0.000 OA
ATOM      2  C   UNL     1       2.186   8.626  17.991  0.00  0.00    +0.000 A 
ATOM      3  C   UNL     1       1.650  10.013  17.825  0.00  0.00    +0.000 A 
ATOM      4  C   UNL     1       0.897  10.559  18.790  0.00  0.00    +0.000 A 
ATOM      5  N   UNL     1       0.632   9.883  19.972  0.00  0.00    +0.000 NA
ATOM      6  C   UNL     1       1.123   8.699  20.102  0.00  0.00    +0.000 A 
ATOM      7  S   UNL     1       0.891   7.722  21.544  0.00  0.00    +0.000 S 
ATOM      8  C   UNL     1       1.785   6.419  20.833  0.00  0.00    +0.000 A 
ATOM      9  C   UNL     1       2.229   6.726  19.600  0.00  0.00    +0.000 A 
ATOM     10  N   UNL     1       1.877   8.005  19.181  0.00  0.00    +0.000 N 
ENDROOT
BRANCH   9  11
ATOM     11  C   UNL     1       2.979   5.731  18.819  0.00  0.00    +0.000 A 
ATOM     12  C   UNL     1       2.305   4.838  17.972  0.00  0.00    +0.000 A 
ATOM     13  C   UNL     1       3.003   3.835  17.289  0.00  0.00    +0.000 A 
ATOM     14  C   UNL     1       4.380   3.705  17.458  0.00  0.00    +0.000 A 
ATOM     15  C   UNL     1       5.057   4.570  18.316  0.00  0.00    +0.000 A 
ATOM     16  C   UNL     1       4.360   5.574  18.999  0.00  0.00    +0.000 A 
ENDBRANCH   9  11
BRANCH   4  17
ATOM     17  C   UNL     1       0.253  11.952  18.777  0.00  0.00    +0.000 C 
BRANCH  17  18
ATOM     18  N   UNL     1      -1.165  12.300  18.460  0.00  0.00    +0.000 NA
ATOM     19  C   UNL     1      -1.857  11.288  17.637  0.00  0.00    +0.000 C 
ATOM     20  C   UNL     1      -3.408  11.417  17.550  0.00  0.00    +0.000 C 
ATOM     21  C   UNL     1      -4.092  11.882  18.809  0.00  0.00    +0.000 A 
ATOM     22  C   UNL     1      -5.491  11.837  18.951  0.00  0.00    +0.000 A 
ATOM     23  C   UNL     1      -6.109  12.277  20.128  0.00  0.00    +0.000 A 
ATOM     24  C   UNL     1      -5.341  12.776  21.171  0.00  0.00    +0.000 A 
ATOM     25  C   UNL     1      -3.955  12.838  21.034  0.00  0.00    +0.000 A 
ATOM     26  C   UNL     1      -3.324  12.404  19.849  0.00  0.00    +0.000 A 
ATOM     27  C   UNL     1      -1.821  12.380  19.800  0.00  0.00    +0.000 C 
ENDBRANCH  17  18
ENDBRANCH   4  17
TORSDOF 3
ENDMDL
