MODEL 1
REMARK VINA RESULT:      -9.1      0.000      0.000
REMARK  Name = 
REMARK  7 active torsions:
REMARK  status: ('A' for Active; 'I' for Inactive)
REMARK    1  A    between atoms: C_1  and  C_2
REMARK    2  A    between atoms: C_6  and  C_8
REMARK    3  A    between atoms: C_8  and  O_9
REMARK    4  A    between atoms: O_9  and  C_10
REMARK    5  A    between atoms: C_10  and  C_12
REMARK    6  A    between atoms: C_12  and  C_13
REMARK    7  A    between atoms: C_12  and  C_19
REMARK                            x       y       z     vdW  Elec       q    Type
REMARK                         _______ _______ _______ _____ _____    ______ ____
ROOT
ATOM      1  C   UNL     1       3.980   6.008  18.199  0.00  0.00    +0.000 C 
ATOM      2  O   UNL     1       3.644   5.371  17.206  0.00  0.00    +0.000 OA
ENDROOT
BRANCH   1   3
ATOM      3  O   UNL     1       5.202   6.606  18.341  0.00  0.00    +0.000 OA
BRANCH   3   4
ATOM      4  C   UNL     1       6.382   5.807  18.109  0.00  0.00    +0.000 C 
ATOM      5  C   UNL     1       7.357   5.863  19.268  0.00  0.00    +0.000 C 
ATOM      6  C   UNL     1       6.609   4.597  18.980  0.00  0.00    +0.000 C 
BRANCH   4  12
ATOM      7  C   UNL     1       6.835   3.156  11.234  0.00  0.00    +0.000 C 
ATOM      8  C   UNL     1       6.879   3.840  12.537  0.00  0.00    +0.000 A 
ATOM      9  C   UNL     1       6.271   3.650  13.755  0.00  0.00    +0.000 A 
ATOM     10  C   UNL     1       6.775   4.692  14.575  0.00  0.00    +0.000 A 
ATOM     11  N   UNL     1       6.416   4.874  15.895  0.00  0.00    +0.000 N 
ATOM     12  C   UNL     1       6.916   5.869  16.707  0.00  0.00    +0.000 C 
ATOM     13  O   UNL     1       7.704   6.755  16.415  0.00  0.00    +0.000 OA
ATOM     14  N   UNL     1       7.640   5.445  13.890  0.00  0.00    +0.000 NA
ATOM     15  O   UNL     1       7.696   4.920  12.617  0.00  0.00    +0.000 OA
ATOM     16  H   UNL     1       5.689   4.274  16.269  0.00  0.00    +0.000 HD
ENDBRANCH   4  12
ENDBRANCH   3   4
ENDBRANCH   1   3
BRANCH   1  17
ATOM     17  C   UNL     1       3.150   6.259  19.463  0.00  0.00    +0.000 C 
BRANCH  17  18
ATOM     18  C   UNL     1       2.277   7.509  19.369  0.00  0.00    +0.000 A 
ATOM     19  C   UNL     1       1.583   8.031  20.472  0.00  0.00    +0.000 A 
ATOM     20  C   UNL     1       0.783   9.169  20.344  0.00  0.00    +0.000 A 
ATOM     21  C   UNL     1       0.653   9.800  19.110  0.00  0.00    +0.000 A 
ATOM     22  C   UNL     1       1.326   9.295  18.002  0.00  0.00    +0.000 A 
ATOM     23  C   UNL     1       2.134   8.163  18.130  0.00  0.00    +0.000 A 
ENDBRANCH  17  18
BRANCH  17  24
ATOM     24  C   UNL     1       2.429   5.002  19.944  0.00  0.00    +0.000 A 
ATOM     25  C   UNL     1       1.486   4.379  19.106  0.00  0.00    +0.000 A 
ATOM     26  C   UNL     1       0.799   3.237  19.522  0.00  0.00    +0.000 A 
ATOM     27  C   UNL     1       1.047   2.691  20.779  0.00  0.00    +0.000 A 
ATOM     28  C   UNL     1       1.976   3.295  21.622  0.00  0.00    +0.000 A 
ATOM     29  C   UNL     1       2.653   4.447  21.214  0.00  0.00    +0.000 A 
ENDBRANCH  17  24
ENDBRANCH   1  17
TORSDOF 6
ENDMDL
MODEL 2
REMARK VINA RESULT:      -9.1      0.182      1.298
REMARK  Name = 
REMARK  7 active torsions:
REMARK  status: ('A' for Active; 'I' for Inactive)
REMARK    1  A    between atoms: C_1  and  C_2
REMARK    2  A    between atoms: C_6  and  C_8
REMARK    3  A    between atoms: C_8  and  O_9
REMARK    4  A    between atoms: O_9  and  C_10
REMARK    5  A    between atoms: C_10  and  C_12
REMARK    6  A    between atoms: C_12  and  C_13
REMARK    7  A    between atoms: C_12  and  C_19
REMARK                            x       y       z     vdW  Elec       q    Type
REMARK                         _______ _______ _______ _____ _____    ______ ____
ROOT
ATOM      1  C   UNL     1       3.890   5.874  18.119  0.00  0.00    +0.000 C 
ATOM      2  O   UNL     1       3.543   5.202  17.153  0.00  0.00    +0.000 OA
ENDROOT
BRANCH   1   3
ATOM      3  O   UNL     1       5.090   6.527  18.200  0.00  0.00    +0.000 OA
BRANCH   3   4
ATOM      4  C   UNL     1       6.297   5.757  18.010  0.00  0.00    +0.000 C 
ATOM      5  C   UNL     1       7.254   5.883  19.179  0.00  0.00    +0.000 C 
ATOM      6  C   UNL     1       6.549   4.585  18.925  0.00  0.00    +0.000 C 
BRANCH   4  12
ATOM      7  C   UNL     1       6.630   3.118  11.124  0.00  0.00    +0.000 C 
ATOM      8  C   UNL     1       6.709   3.790  12.432  0.00  0.00    +0.000 A 
ATOM      9  C   UNL     1       6.077   3.637  13.642  0.00  0.00    +0.000 A 
ATOM     10  C   UNL     1       6.645   4.636  14.473  0.00  0.00    +0.000 A 
ATOM     11  N   UNL     1       6.287   4.836  15.791  0.00  0.00    +0.000 N 
ATOM     12  C   UNL     1       6.848   5.789  16.614  0.00  0.00    +0.000 C 
ATOM     13  O   UNL     1       7.699   6.619  16.335  0.00  0.00    +0.000 OA
ATOM     14  N   UNL     1       7.568   5.330  13.802  0.00  0.00    +0.000 NA
ATOM     15  O   UNL     1       7.600   4.810  12.526  0.00  0.00    +0.000 OA
ATOM     16  H   UNL     1       5.516   4.287  16.154  0.00  0.00    +0.000 HD
ENDBRANCH   4  12
ENDBRANCH   3   4
ENDBRANCH   1   3
BRANCH   1  17
ATOM     17  C   UNL     1       3.101   6.116  19.410  0.00  0.00    +0.000 C 
BRANCH  17  18
ATOM     18  C   UNL     1       2.246   7.382  19.363  0.00  0.00    +0.000 A 
ATOM     19  C   UNL     1       2.138   8.178  18.211  0.00  0.00    +0.000 A 
ATOM     20  C   UNL     1       1.358   9.337  18.210  0.00  0.00    +0.000 A 
ATOM     21  C   UNL     1       0.680   9.727  19.361  0.00  0.00    +0.000 A 
ATOM     22  C   UNL     1       0.779   8.957  20.516  0.00  0.00    +0.000 A 
ATOM     23  C   UNL     1       1.551   7.793  20.516  0.00  0.00    +0.000 A 
ENDBRANCH  17  18
BRANCH  17  24
ATOM     24  C   UNL     1       2.372   4.863  19.891  0.00  0.00    +0.000 A 
ATOM     25  C   UNL     1       2.627   4.365  21.182  0.00  0.00    +0.000 A 
ATOM     26  C   UNL     1       1.987   3.213  21.647  0.00  0.00    +0.000 A 
ATOM     27  C   UNL     1       1.076   2.544  20.834  0.00  0.00    +0.000 A 
ATOM     28  C   UNL     1       0.813   3.022  19.553  0.00  0.00    +0.000 A 
ATOM     29  C   UNL     1       1.463   4.165  19.081  0.00  0.00    +0.000 A 
ENDBRANCH  17  24
ENDBRANCH   1  17
TORSDOF 6
ENDMDL
MODEL 3
REMARK VINA RESULT:      -8.9      1.424      3.758
REMARK  Name = 
REMARK  7 active torsions:
REMARK  status: ('A' for Active; 'I' for Inactive)
REMARK    1  A    between atoms: C_1  and  C_2
REMARK    2  A    between atoms: C_6  and  C_8
REMARK    3  A    between atoms: C_8  and  O_9
REMARK    4  A    between atoms: O_9  and  C_10
REMARK    5  A    between atoms: C_10  and  C_12
REMARK    6  A    between atoms: C_12  and  C_13
REMARK    7  A    between atoms: C_12  and  C_19
REMARK                            x       y       z     vdW  Elec       q    Type
REMARK                         _______ _______ _______ _____ _____    ______ ____
ROOT
ATOM      1  C   UNL     1       4.722   5.930  18.591  0.00  0.00    +0.000 C 
ATOM      2  O   UNL     1       5.205   5.269  19.504  0.00  0.00    +0.000 OA
ENDROOT
BRANCH   1   3
ATOM      3  O   UNL     1       5.439   6.812  17.828  0.00  0.00    +0.000 OA
BRANCH   3   4
ATOM      4  C   UNL     1       6.808   6.480  17.510  0.00  0.00    +0.000 C 
ATOM      5  C   UNL     1       7.710   7.697  17.491  0.00  0.00    +0.000 C 
ATOM      6  C   UNL     1       7.857   6.673  18.576  0.00  0.00    +0.000 C 
BRANCH   4  12
ATOM      7  C   UNL     1       4.494   3.122  11.357  0.00  0.00    +0.000 C 
ATOM      8  C   UNL     1       5.123   3.654  12.577  0.00  0.00    +0.000 A 
ATOM      9  C   UNL     1       4.838   4.678  13.449  0.00  0.00    +0.000 A 
ATOM     10  C   UNL     1       5.876   4.628  14.414  0.00  0.00    +0.000 A 
ATOM     11  N   UNL     1       5.976   5.494  15.483  0.00  0.00    +0.000 N 
ATOM     12  C   UNL     1       6.968   5.441  16.439  0.00  0.00    +0.000 C 
ATOM     13  O   UNL     1       7.919   4.677  16.495  0.00  0.00    +0.000 OA
ATOM     14  N   UNL     1       6.717   3.627  14.140  0.00  0.00    +0.000 NA
ATOM     15  O   UNL     1       6.253   3.027  12.989  0.00  0.00    +0.000 OA
ATOM     16  H   UNL     1       5.311   6.259  15.529  0.00  0.00    +0.000 HD
ENDBRANCH   4  12
ENDBRANCH   3   4
ENDBRANCH   1   3
BRANCH   1  17
ATOM     17  C   UNL     1       3.263   5.934  18.121  0.00  0.00    +0.000 C 
BRANCH  17  18
ATOM     18  C   UNL     1       2.552   4.603  18.364  0.00  0.00    +0.000 A 
ATOM     19  C   UNL     1       1.632   4.417  19.408  0.00  0.00    +0.000 A 
ATOM     20  C   UNL     1       1.012   3.181  19.607  0.00  0.00    +0.000 A 
ATOM     21  C   UNL     1       1.307   2.106  18.774  0.00  0.00    +0.000 A 
ATOM     22  C   UNL     1       2.221   2.266  17.737  0.00  0.00    +0.000 A 
ATOM     23  C   UNL     1       2.835   3.504  17.530  0.00  0.00    +0.000 A 
ENDBRANCH  17  18
BRANCH  17  24
ATOM     24  C   UNL     1       2.501   7.169  18.596  0.00  0.00    +0.000 A 
ATOM     25  C   UNL     1       2.146   8.164  17.667  0.00  0.00    +0.000 A 
ATOM     26  C   UNL     1       1.462   9.313  18.072  0.00  0.00    +0.000 A 
ATOM     27  C   UNL     1       1.112   9.482  19.409  0.00  0.00    +0.000 A 
ATOM     28  C   UNL     1       1.456   8.508  20.342  0.00  0.00    +0.000 A 
ATOM     29  C   UNL     1       2.154   7.366  19.941  0.00  0.00    +0.000 A 
ENDBRANCH  17  24
ENDBRANCH   1  17
TORSDOF 6
ENDMDL
MODEL 4
REMARK VINA RESULT:      -8.6      1.317      3.892
REMARK  Name = 
REMARK  7 active torsions:
REMARK  status: ('A' for Active; 'I' for Inactive)
REMARK    1  A    between atoms: C_1  and  C_2
REMARK    2  A    between atoms: C_6  and  C_8
REMARK    3  A    between atoms: C_8  and  O_9
REMARK    4  A    between atoms: O_9  and  C_10
REMARK    5  A    between atoms: C_10  and  C_12
REMARK    6  A    between atoms: C_12  and  C_13
REMARK    7  A    between atoms: C_12  and  C_19
REMARK                            x       y       z     vdW  Elec       q    Type
REMARK                         _______ _______ _______ _____ _____    ______ ____
ROOT
ATOM      1  C   UNL     1       4.684   5.812  18.765  0.00  0.00    +0.000 C 
ATOM      2  O   UNL     1       5.192   5.197  19.697  0.00  0.00    +0.000 OA
ENDROOT
BRANCH   1   3
ATOM      3  O   UNL     1       5.386   6.621  17.915  0.00  0.00    +0.000 OA
BRANCH   3   4
ATOM      4  C   UNL     1       6.757   6.274  17.623  0.00  0.00    +0.000 C 
ATOM      5  C   UNL     1       7.687   7.468  17.708  0.00  0.00    +0.000 C 
ATOM      6  C   UNL     1       7.773   6.378  18.733  0.00  0.00    +0.000 C 
BRANCH   4  12
ATOM      7  C   UNL     1       4.431   3.153  11.351  0.00  0.00    +0.000 C 
ATOM      8  C   UNL     1       5.066   3.645  12.585  0.00  0.00    +0.000 A 
ATOM      9  C   UNL     1       4.765   4.612  13.513  0.00  0.00    +0.000 A 
ATOM     10  C   UNL     1       5.825   4.550  14.454  0.00  0.00    +0.000 A 
ATOM     11  N   UNL     1       5.917   5.364  15.564  0.00  0.00    +0.000 N 
ATOM     12  C   UNL     1       6.930   5.298  16.496  0.00  0.00    +0.000 C 
ATOM     13  O   UNL     1       7.908   4.566  16.495  0.00  0.00    +0.000 OA
ATOM     14  N   UNL     1       6.694   3.595  14.113  0.00  0.00    +0.000 NA
ATOM     15  O   UNL     1       6.227   3.038  12.942  0.00  0.00    +0.000 OA
ATOM     16  H   UNL     1       5.227   6.101  15.662  0.00  0.00    +0.000 HD
ENDBRANCH   4  12
ENDBRANCH   3   4
ENDBRANCH   1   3
BRANCH   1  17
ATOM     17  C   UNL     1       3.205   5.826  18.363  0.00  0.00    +0.000 C 
BRANCH  17  18
ATOM     18  C   UNL     1       2.426   4.623  18.894  0.00  0.00    +0.000 A 
ATOM     19  C   UNL     1       1.833   3.673  18.048  0.00  0.00    +0.000 A 
ATOM     20  C   UNL     1       1.117   2.593  18.572  0.00  0.00    +0.000 A 
ATOM     21  C   UNL     1       0.971   2.449  19.948  0.00  0.00    +0.000 A 
ATOM     22  C   UNL     1       1.545   3.384  20.805  0.00  0.00    +0.000 A 
ATOM     23  C   UNL     1       2.270   4.459  20.284  0.00  0.00    +0.000 A 
ENDBRANCH  17  18
BRANCH  17  24
ATOM     24  C   UNL     1       2.547   7.181  18.611  0.00  0.00    +0.000 A 
ATOM     25  C   UNL     1       2.080   7.501  19.899  0.00  0.00    +0.000 A 
ATOM     26  C   UNL     1       1.461   8.726  20.156  0.00  0.00    +0.000 A 
ATOM     27  C   UNL     1       1.306   9.658  19.133  0.00  0.00    +0.000 A 
ATOM     28  C   UNL     1       1.761   9.359  17.852  0.00  0.00    +0.000 A 
ATOM     29  C   UNL     1       2.367   8.127  17.589  0.00  0.00    +0.000 A 
ENDBRANCH  17  24
ENDBRANCH   1  17
TORSDOF 6
ENDMDL
MODEL 5
REMARK VINA RESULT:      -8.4      2.167      5.273
REMARK  Name = 
REMARK  7 active torsions:
REMARK  status: ('A' for Active; 'I' for Inactive)
REMARK    1  A    between atoms: C_1  and  C_2
REMARK    2  A    between atoms: C_6  and  C_8
REMARK    3  A    between atoms: C_8  and  O_9
REMARK    4  A    between atoms: O_9  and  C_10
REMARK    5  A    between atoms: C_10  and  C_12
REMARK    6  A    between atoms: C_12  and  C_13
REMARK    7  A    between atoms: C_12  and  C_19
REMARK                            x       y       z     vdW  Elec       q    Type
REMARK                         _______ _______ _______ _____ _____    ______ ____
ROOT
ATOM      1  C   UNL     1       4.781   5.215  18.783  0.00  0.00    +0.000 C 
ATOM      2  O   UNL     1       5.353   5.776  19.713  0.00  0.00    +0.000 OA
ENDROOT
BRANCH   1   3
ATOM      3  O   UNL     1       5.410   4.393  17.888  0.00  0.00    +0.000 OA
BRANCH   3   4
ATOM      4  C   UNL     1       5.781   4.942  16.605  0.00  0.00    +0.000 C 
ATOM      5  C   UNL     1       6.623   3.984  15.786  0.00  0.00    +0.000 C 
ATOM      6  C   UNL     1       5.220   4.297  15.362  0.00  0.00    +0.000 C 
BRANCH   4  12
ATOM      7  C   UNL     1       9.696  10.578  19.325  0.00  0.00    +0.000 C 
ATOM      8  C   UNL     1       8.827   9.600  18.649  0.00  0.00    +0.000 A 
ATOM      9  C   UNL     1       8.638   8.242  18.741  0.00  0.00    +0.000 A 
ATOM     10  C   UNL     1       7.635   7.952  17.782  0.00  0.00    +0.000 A 
ATOM     11  N   UNL     1       7.142   6.686  17.543  0.00  0.00    +0.000 N 
ATOM     12  C   UNL     1       6.151   6.397  16.629  0.00  0.00    +0.000 C 
ATOM     13  O   UNL     1       5.578   7.163  15.870  0.00  0.00    +0.000 OA
ATOM     14  N   UNL     1       7.242   9.071  17.168  0.00  0.00    +0.000 NA
ATOM     15  O   UNL     1       7.993  10.097  17.702  0.00  0.00    +0.000 OA
ATOM     16  H   UNL     1       7.584   5.912  18.027  0.00  0.00    +0.000 HD
ENDBRANCH   4  12
ENDBRANCH   3   4
ENDBRANCH   1   3
BRANCH   1  17
ATOM     17  C   UNL     1       3.296   5.311  18.416  0.00  0.00    +0.000 C 
BRANCH  17  18
ATOM     18  C   UNL     1       2.456   4.181  19.010  0.00  0.00    +0.000 A 
ATOM     19  C   UNL     1       2.558   3.791  20.354  0.00  0.00    +0.000 A 
ATOM     20  C   UNL     1       1.784   2.742  20.858  0.00  0.00    +0.000 A 
ATOM     21  C   UNL     1       0.902   2.059  20.026  0.00  0.00    +0.000 A 
ATOM     22  C   UNL     1       0.791   2.425  18.688  0.00  0.00    +0.000 A 
ATOM     23  C   UNL     1       1.557   3.479  18.185  0.00  0.00    +0.000 A 
ENDBRANCH  17  18
BRANCH  17  24
ATOM     24  C   UNL     1       2.733   6.714  18.630  0.00  0.00    +0.000 A 
ATOM     25  C   UNL     1       2.170   7.054  19.874  0.00  0.00    +0.000 A 
ATOM     26  C   UNL     1       1.634   8.324  20.097  0.00  0.00    +0.000 A 
ATOM     27  C   UNL     1       1.660   9.281  19.086  0.00  0.00    +0.000 A 
ATOM     28  C   UNL     1       2.213   8.962  17.848  0.00  0.00    +0.000 A 
ATOM     29  C   UNL     1       2.735   7.687  17.618  0.00  0.00    +0.000 A 
ENDBRANCH  17  24
ENDBRANCH   1  17
TORSDOF 6
ENDMDL
MODEL 6
REMARK VINA RESULT:      -8.3      2.683      4.201
REMARK  Name = 
REMARK  7 active torsions:
REMARK  status: ('A' for Active; 'I' for Inactive)
REMARK    1  A    between atoms: C_1  and  C_2
REMARK    2  A    between atoms: C_6  and  C_8
REMARK    3  A    between atoms: C_8  and  O_9
REMARK    4  A    between atoms: O_9  and  C_10
REMARK    5  A    between atoms: C_10  and  C_12
REMARK    6  A    between atoms: C_12  and  C_13
REMARK    7  A    between atoms: C_12  and  C_19
REMARK                            x       y       z     vdW  Elec       q    Type
REMARK                         _______ _______ _______ _____ _____    ______ ____
ROOT
ATOM      1  C   UNL     1       4.313   6.417  17.621  0.00  0.00    +0.000 C 
ATOM      2  O   UNL     1       4.276   7.263  16.734  0.00  0.00    +0.000 OA
ENDROOT
BRANCH   1   3
ATOM      3  O   UNL     1       5.197   5.373  17.641  0.00  0.00    +0.000 OA
BRANCH   3   4
ATOM      4  C   UNL     1       6.532   5.603  17.141  0.00  0.00    +0.000 C 
ATOM      5  C   UNL     1       7.174   4.341  16.600  0.00  0.00    +0.000 C 
ATOM      6  C   UNL     1       6.780   5.441  15.662  0.00  0.00    +0.000 C 
BRANCH   4  12
ATOM      7  C   UNL     1       9.565  12.225  18.344  0.00  0.00    +0.000 C 
ATOM      8  C   UNL     1       9.051  10.846  18.292  0.00  0.00    +0.000 A 
ATOM      9  C   UNL     1       8.244  10.142  17.431  0.00  0.00    +0.000 A 
ATOM     10  C   UNL     1       8.158   8.845  17.996  0.00  0.00    +0.000 A 
ATOM     11  N   UNL     1       7.432   7.810  17.442  0.00  0.00    +0.000 N 
ATOM     12  C   UNL     1       7.360   6.539  17.972  0.00  0.00    +0.000 C 
ATOM     13  O   UNL     1       7.870   6.121  19.000  0.00  0.00    +0.000 OA
ATOM     14  N   UNL     1       8.882   8.778  19.117  0.00  0.00    +0.000 NA
ATOM     15  O   UNL     1       9.430  10.028  19.307  0.00  0.00    +0.000 OA
ATOM     16  H   UNL     1       6.865   8.020  16.628  0.00  0.00    +0.000 HD
ENDBRANCH   4  12
ENDBRANCH   3   4
ENDBRANCH   1   3
BRANCH   1  17
ATOM     17  C   UNL     1       3.405   6.327  18.853  0.00  0.00    +0.000 C 
BRANCH  17  18
ATOM     18  C   UNL     1       2.462   7.522  18.991  0.00  0.00    +0.000 A 
ATOM     19  C   UNL     1       1.881   7.888  20.215  0.00  0.00    +0.000 A 
ATOM     20  C   UNL     1       1.011   8.979  20.299  0.00  0.00    +0.000 A 
ATOM     21  C   UNL     1       0.699   9.716  19.162  0.00  0.00    +0.000 A 
ATOM     22  C   UNL     1       1.257   9.365  17.936  0.00  0.00    +0.000 A 
ATOM     23  C   UNL     1       2.135   8.281  17.852  0.00  0.00    +0.000 A 
ENDBRANCH  17  18
BRANCH  17  24
ATOM     24  C   UNL     1       2.739   4.960  18.988  0.00  0.00    +0.000 A 
ATOM     25  C   UNL     1       1.863   4.513  17.983  0.00  0.00    +0.000 A 
ATOM     26  C   UNL     1       1.227   3.273  18.083  0.00  0.00    +0.000 A 
ATOM     27  C   UNL     1       1.462   2.455  19.184  0.00  0.00    +0.000 A 
ATOM     28  C   UNL     1       2.326   2.881  20.189  0.00  0.00    +0.000 A 
ATOM     29  C   UNL     1       2.951   4.128  20.098  0.00  0.00    +0.000 A 
ENDBRANCH  17  24
ENDBRANCH   1  17
TORSDOF 6
ENDMDL
MODEL 7
REMARK VINA RESULT:      -8.3      2.788      4.436
REMARK  Name = 
REMARK  7 active torsions:
REMARK  status: ('A' for Active; 'I' for Inactive)
REMARK    1  A    between atoms: C_1  and  C_2
REMARK    2  A    between atoms: C_6  and  C_8
REMARK    3  A    between atoms: C_8  and  O_9
REMARK    4  A    between atoms: O_9  and  C_10
REMARK    5  A    between atoms: C_10  and  C_12
REMARK    6  A    between atoms: C_12  and  C_13
REMARK    7  A    between atoms: C_12  and  C_19
REMARK                            x       y       z     vdW  Elec       q    Type
REMARK                         _______ _______ _______ _____ _____    ______ ____
ROOT
ATOM      1  C   UNL     1       4.333   6.219  17.757  0.00  0.00    +0.000 C 
ATOM      2  O   UNL     1       4.250   6.822  16.692  0.00  0.00    +0.000 OA
ENDROOT
BRANCH   1   3
ATOM      3  O   UNL     1       5.407   5.452  18.116  0.00  0.00    +0.000 OA
BRANCH   3   4
ATOM      4  C   UNL     1       6.678   5.724  17.486  0.00  0.00    +0.000 C 
ATOM      5  C   UNL     1       7.322   4.475  16.917  0.00  0.00    +0.000 C 
ATOM      6  C   UNL     1       6.793   5.530  15.995  0.00  0.00    +0.000 C 
BRANCH   4  12
ATOM      7  C   UNL     1       9.556  12.484  18.202  0.00  0.00    +0.000 C 
ATOM      8  C   UNL     1       9.089  11.088  18.240  0.00  0.00    +0.000 A 
ATOM      9  C   UNL     1       8.240  10.326  17.475  0.00  0.00    +0.000 A 
ATOM     10  C   UNL     1       8.249   9.048  18.089  0.00  0.00    +0.000 A 
ATOM     11  N   UNL     1       7.519   7.970  17.634  0.00  0.00    +0.000 N 
ATOM     12  C   UNL     1       7.537   6.718  18.211  0.00  0.00    +0.000 C 
ATOM     13  O   UNL     1       8.146   6.356  19.206  0.00  0.00    +0.000 OA
ATOM     14  N   UNL     1       9.065   9.047  19.147  0.00  0.00    +0.000 NA
ATOM     15  O   UNL     1       9.581  10.322  19.247  0.00  0.00    +0.000 OA
ATOM     16  H   UNL     1       6.878   8.130  16.864  0.00  0.00    +0.000 HD
ENDBRANCH   4  12
ENDBRANCH   3   4
ENDBRANCH   1   3
BRANCH   1  17
ATOM     17  C   UNL     1       3.291   6.176  18.880  0.00  0.00    +0.000 C 
BRANCH  17  18
ATOM     18  C   UNL     1       2.423   7.433  18.942  0.00  0.00    +0.000 A 
ATOM     19  C   UNL     1       2.170   8.232  17.816  0.00  0.00    +0.000 A 
ATOM     20  C   UNL     1       1.382   9.382  17.914  0.00  0.00    +0.000 A 
ATOM     21  C   UNL     1       0.843   9.760  19.140  0.00  0.00    +0.000 A 
ATOM     22  C   UNL     1       1.088   8.987  20.270  0.00  0.00    +0.000 A 
ATOM     23  C   UNL     1       1.866   7.831  20.172  0.00  0.00    +0.000 A 
ENDBRANCH  17  18
BRANCH  17  24
ATOM     24  C   UNL     1       2.521   4.858  18.910  0.00  0.00    +0.000 A 
ATOM     25  C   UNL     1       1.775   4.516  20.053  0.00  0.00    +0.000 A 
ATOM     26  C   UNL     1       1.071   3.311  20.117  0.00  0.00    +0.000 A 
ATOM     27  C   UNL     1       1.092   2.431  19.038  0.00  0.00    +0.000 A 
ATOM     28  C   UNL     1       1.826   2.753  17.899  0.00  0.00    +0.000 A 
ATOM     29  C   UNL     1       2.543   3.951  17.839  0.00  0.00    +0.000 A 
ENDBRANCH  17  24
ENDBRANCH   1  17
TORSDOF 6
ENDMDL
MODEL 8
REMARK VINA RESULT:      -8.2      2.699      5.581
REMARK  Name = 
REMARK  7 active torsions:
REMARK  status: ('A' for Active; 'I' for Inactive)
REMARK    1  A    between atoms: C_1  and  C_2
REMARK    2  A    between atoms: C_6  and  C_8
REMARK    3  A    between atoms: C_8  and  O_9
REMARK    4  A    between atoms: O_9  and  C_10
REMARK    5  A    between atoms: C_10  and  C_12
REMARK    6  A    between atoms: C_12  and  C_13
REMARK    7  A    between atoms: C_12  and  C_19
REMARK                            x       y       z     vdW  Elec       q    Type
REMARK                         _______ _______ _______ _____ _____    ______ ____
ROOT
ATOM      1  C   UNL     1       4.763   5.335  18.789  0.00  0.00    +0.000 C 
ATOM      2  O   UNL     1       5.245   5.637  19.875  0.00  0.00    +0.000 OA
ENDROOT
BRANCH   1   3
ATOM      3  O   UNL     1       5.500   4.869  17.734  0.00  0.00    +0.000 OA
BRANCH   3   4
ATOM      4  C   UNL     1       6.235   5.828  16.942  0.00  0.00    +0.000 C 
ATOM      5  C   UNL     1       6.646   5.272  15.593  0.00  0.00    +0.000 C 
ATOM      6  C   UNL     1       5.602   6.344  15.674  0.00  0.00    +0.000 C 
BRANCH   4  12
ATOM      7  C   UNL     1       9.486  12.283  18.444  0.00  0.00    +0.000 C 
ATOM      8  C   UNL     1       8.963  10.914  18.300  0.00  0.00    +0.000 A 
ATOM      9  C   UNL     1       7.996  10.320  17.526  0.00  0.00    +0.000 A 
ATOM     10  C   UNL     1       8.018   8.955  17.908  0.00  0.00    +0.000 A 
ATOM     11  N   UNL     1       7.190   7.992  17.368  0.00  0.00    +0.000 N 
ATOM     12  C   UNL     1       7.218   6.658  17.715  0.00  0.00    +0.000 C 
ATOM     13  O   UNL     1       7.921   6.111  18.551  0.00  0.00    +0.000 OA
ATOM     14  N   UNL     1       8.951   8.747  18.840  0.00  0.00    +0.000 NA
ATOM     15  O   UNL     1       9.533   9.971  19.092  0.00  0.00    +0.000 OA
ATOM     16  H   UNL     1       6.472   8.301  16.722  0.00  0.00    +0.000 HD
ENDBRANCH   4  12
ENDBRANCH   3   4
ENDBRANCH   1   3
BRANCH   1  17
ATOM     17  C   UNL     1       3.290   5.417  18.372  0.00  0.00    +0.000 C 
BRANCH  17  18
ATOM     18  C   UNL     1       2.448   4.264  18.916  0.00  0.00    +0.000 A 
ATOM     19  C   UNL     1       1.465   3.619  18.149  0.00  0.00    +0.000 A 
ATOM     20  C   UNL     1       0.705   2.577  18.686  0.00  0.00    +0.000 A 
ATOM     21  C   UNL     1       0.904   2.168  20.001  0.00  0.00    +0.000 A 
ATOM     22  C   UNL     1       1.868   2.799  20.782  0.00  0.00    +0.000 A 
ATOM     23  C   UNL     1       2.637   3.834  20.244  0.00  0.00    +0.000 A 
ENDBRANCH  17  18
BRANCH  17  24
ATOM     24  C   UNL     1       2.700   6.808  18.593  0.00  0.00    +0.000 A 
ATOM     25  C   UNL     1       2.114   7.124  19.832  0.00  0.00    +0.000 A 
ATOM     26  C   UNL     1       1.553   8.383  20.061  0.00  0.00    +0.000 A 
ATOM     27  C   UNL     1       1.576   9.350  19.061  0.00  0.00    +0.000 A 
ATOM     28  C   UNL     1       2.151   9.055  17.828  0.00  0.00    +0.000 A 
ATOM     29  C   UNL     1       2.699   7.791  17.591  0.00  0.00    +0.000 A 
ENDBRANCH  17  24
ENDBRANCH   1  17
TORSDOF 6
ENDMDL
MODEL 9
REMARK VINA RESULT:      -8.2      2.742      4.519
REMARK  Name = 
REMARK  7 active torsions:
REMARK  status: ('A' for Active; 'I' for Inactive)
REMARK    1  A    between atoms: C_1  and  C_2
REMARK    2  A    between atoms: C_6  and  C_8
REMARK    3  A    between atoms: C_8  and  O_9
REMARK    4  A    between atoms: O_9  and  C_10
REMARK    5  A    between atoms: C_10  and  C_12
REMARK    6  A    between atoms: C_12  and  C_13
REMARK    7  A    between atoms: C_12  and  C_19
REMARK                            x       y       z     vdW  Elec       q    Type
REMARK                         _______ _______ _______ _____ _____    ______ ____
ROOT
ATOM      1  C   UNL     1       4.556   5.665  18.320  0.00  0.00    +0.000 C 
ATOM      2  O   UNL     1       4.443   5.433  17.121  0.00  0.00    +0.000 OA
ENDROOT
BRANCH   1   3
ATOM      3  O   UNL     1       5.757   5.751  18.969  0.00  0.00    +0.000 OA
BRANCH   3   4
ATOM      4  C   UNL     1       6.955   5.866  18.169  0.00  0.00    +0.000 C 
ATOM      5  C   UNL     1       8.061   4.947  18.647  0.00  0.00    +0.000 C 
ATOM      6  C   UNL     1       7.378   4.680  17.340  0.00  0.00    +0.000 C 
BRANCH   4  12
ATOM      7  C   UNL     1      10.329  12.318  19.386  0.00  0.00    +0.000 C 
ATOM      8  C   UNL     1       9.589  11.119  18.958  0.00  0.00    +0.000 A 
ATOM      9  C   UNL     1       9.402   9.858  19.471  0.00  0.00    +0.000 A 
ATOM     10  C   UNL     1       8.567   9.207  18.528  0.00  0.00    +0.000 A 
ATOM     11  N   UNL     1       8.131   7.904  18.658  0.00  0.00    +0.000 N 
ATOM     12  C   UNL     1       7.302   7.268  17.759  0.00  0.00    +0.000 C 
ATOM     13  O   UNL     1       6.849   7.704  16.712  0.00  0.00    +0.000 OA
ATOM     14  N   UNL     1       8.265  10.034  17.524  0.00  0.00    +0.000 NA
ATOM     15  O   UNL     1       8.911  11.223  17.787  0.00  0.00    +0.000 OA
ATOM     16  H   UNL     1       8.499   7.362  19.432  0.00  0.00    +0.000 HD
ENDBRANCH   4  12
ENDBRANCH   3   4
ENDBRANCH   1   3
BRANCH   1  17
ATOM     17  C   UNL     1       3.425   5.887  19.331  0.00  0.00    +0.000 C 
BRANCH  17  18
ATOM     18  C   UNL     1       2.672   7.199  19.110  0.00  0.00    +0.000 A 
ATOM     19  C   UNL     1       2.755   7.924  17.911  0.00  0.00    +0.000 A 
ATOM     20  C   UNL     1       2.063   9.128  17.750  0.00  0.00    +0.000 A 
ATOM     21  C   UNL     1       1.285   9.633  18.787  0.00  0.00    +0.000 A 
ATOM     22  C   UNL     1       1.195   8.934  19.987  0.00  0.00    +0.000 A 
ATOM     23  C   UNL     1       1.878   7.726  20.146  0.00  0.00    +0.000 A 
ENDBRANCH  17  18
BRANCH  17  24
ATOM     24  C   UNL     1       2.539   4.655  19.495  0.00  0.00    +0.000 A 
ATOM     25  C   UNL     1       2.377   4.081  20.769  0.00  0.00    +0.000 A 
ATOM     26  C   UNL     1       1.585   2.945  20.951  0.00  0.00    +0.000 A 
ATOM     27  C   UNL     1       0.933   2.367  19.864  0.00  0.00    +0.000 A 
ATOM     28  C   UNL     1       1.083   2.921  18.595  0.00  0.00    +0.000 A 
ATOM     29  C   UNL     1       1.888   4.048  18.410  0.00  0.00    +0.000 A 
ENDBRANCH  17  24
ENDBRANCH   1  17
TORSDOF 6
ENDMDL
