MODEL 1
REMARK VINA RESULT:      -8.6      0.000      0.000
REMARK  Name = 
REMARK  7 active torsions:
REMARK  status: ('A' for Active; 'I' for Inactive)
REMARK    1  A    between atoms: C_1  and  C_2
REMARK    2  A    between atoms: C_2  and  C_10
REMARK    3  A    between atoms: C_3  and  C_4
REMARK    4  A    between atoms: N_8  and  C_9
REMARK    5  A    between atoms: C_14  and  N_15
REMARK    6  A    between atoms: C_20  and  N_21
REMARK    7  A    between atoms: C_23  and  C_24
REMARK                            x       y       z     vdW  Elec       q    Type
REMARK                         _______ _______ _______ _____ _____    ______ ____
ROOT
ATOM      1  N   UNL     1       3.896   4.850  19.289  0.00  0.00    +0.000 N 
ATOM      2  C   UNL     1       5.254   5.448  19.386  0.00  0.00    +0.000 C 
ATOM      3  C   UNL     1       5.867   5.082  18.070  0.00  0.00    +0.000 A 
ATOM      4  C   UNL     1       5.231   3.918  17.622  0.00  0.00    +0.000 A 
ATOM      5  C   UNL     1       5.425   3.401  16.353  0.00  0.00    +0.000 A 
ATOM      6  C   UNL     1       6.310   4.052  15.501  0.00  0.00    +0.000 A 
ATOM      7  C   UNL     1       6.921   5.250  15.930  0.00  0.00    +0.000 A 
ATOM      8  C   UNL     1       6.727   5.774  17.229  0.00  0.00    +0.000 A 
ATOM      9  C   UNL     1       4.057   3.674  18.504  0.00  0.00    +0.000 C 
ATOM     10  O   UNL     1       3.296   2.734  18.377  0.00  0.00    +0.000 OA
ENDROOT
BRANCH   1  15
ATOM     11  C   UNL     1       1.998   7.978  19.405  0.00  0.00    +0.000 A 
ATOM     12  C   UNL     1       2.582   8.508  18.239  0.00  0.00    +0.000 A 
ATOM     13  C   UNL     1       3.086   7.676  17.243  0.00  0.00    +0.000 A 
ATOM     14  C   UNL     1       3.157   6.312  17.461  0.00  0.00    +0.000 A 
ATOM     15  C   UNL     1       2.953   5.831  18.759  0.00  0.00    +0.000 A 
ATOM     16  C   UNL     1       2.228   6.619  19.668  0.00  0.00    +0.000 A 
BRANCH  11  18
ATOM     17  C   UNL     1       0.786   8.271  21.647  0.00  0.00    +0.000 C 
ATOM     18  C   UNL     1       1.248   8.873  20.341  0.00  0.00    +0.000 C 
ATOM     19  C   UNL     1       0.970  10.134  19.932  0.00  0.00    +0.000 C 
BRANCH  19  20
ATOM     20  C   UNL     1       0.290  11.102  20.711  0.00  0.00    +0.000 A 
ATOM     21  N   UNL     1       0.626  11.697  21.841  0.00  0.00    +0.000 NA
ATOM     22  N   UNL     1      -0.367  12.573  22.198  0.00  0.00    +0.000 NA
ATOM     23  C   UNL     1      -1.290  12.516  21.271  0.00  0.00    +0.000 A 
ATOM     24  N   UNL     1      -0.924  11.618  20.312  0.00  0.00    +0.000 N 
ATOM     25  C   UNL     1      -1.710  11.290  19.152  0.00  0.00    +0.000 C 
ENDBRANCH  19  20
ENDBRANCH  11  18
ENDBRANCH   1  15
BRANCH   8  26
ATOM     26  C   UNL     1       7.350   7.105  17.573  0.00  0.00    +0.000 C 
ATOM     27  F   UNL     1       8.109   7.089  18.704  0.00  0.00    +0.000 F 
ATOM     28  F   UNL     1       8.177   7.550  16.586  0.00  0.00    +0.000 F 
ATOM     29  F   UNL     1       6.425   8.084  17.756  0.00  0.00    +0.000 F 
ENDBRANCH   8  26
BRANCH   6  30
ATOM     30  N   UNL     1       6.358   3.709  14.143  0.00  0.00    +0.000 N 
ATOM     31  H   UNL     1       6.478   2.714  13.968  0.00  0.00    +0.000 HD
ATOM     32  H   UNL     1       6.988   4.274  13.579  0.00  0.00    +0.000 HD
ENDBRANCH   6  30
TORSDOF 5
ENDMDL
MODEL 2
REMARK VINA RESULT:      -8.3      0.614      1.181
REMARK  Name = 
REMARK  7 active torsions:
REMARK  status: ('A' for Active; 'I' for Inactive)
REMARK    1  A    between atoms: C_1  and  C_2
REMARK    2  A    between atoms: C_2  and  C_10
REMARK    3  A    between atoms: C_3  and  C_4
REMARK    4  A    between atoms: N_8  and  C_9
REMARK    5  A    between atoms: C_14  and  N_15
REMARK    6  A    between atoms: C_20  and  N_21
REMARK    7  A    between atoms: C_23  and  C_24
REMARK                            x       y       z     vdW  Elec       q    Type
REMARK                         _______ _______ _______ _____ _____    ______ ____
ROOT
ATOM      1  N   UNL     1       3.850   4.890  19.354  0.00  0.00    +0.000 N 
ATOM      2  C   UNL     1       5.214   5.477  19.432  0.00  0.00    +0.000 C 
ATOM      3  C   UNL     1       5.811   5.094  18.114  0.00  0.00    +0.000 A 
ATOM      4  C   UNL     1       5.160   3.933  17.681  0.00  0.00    +0.000 A 
ATOM      5  C   UNL     1       5.337   3.403  16.415  0.00  0.00    +0.000 A 
ATOM      6  C   UNL     1       6.219   4.039  15.549  0.00  0.00    +0.000 A 
ATOM      7  C   UNL     1       6.844   5.235  15.963  0.00  0.00    +0.000 A 
ATOM      8  C   UNL     1       6.668   5.771  17.258  0.00  0.00    +0.000 A 
ATOM      9  C   UNL     1       3.992   3.706  18.577  0.00  0.00    +0.000 C 
ATOM     10  O   UNL     1       3.222   2.772  18.466  0.00  0.00    +0.000 OA
ENDROOT
BRANCH   1  15
ATOM     11  C   UNL     1       2.012   8.055  19.443  0.00  0.00    +0.000 A 
ATOM     12  C   UNL     1       2.573   8.544  18.249  0.00  0.00    +0.000 A 
ATOM     13  C   UNL     1       3.035   7.679  17.261  0.00  0.00    +0.000 A 
ATOM     14  C   UNL     1       3.087   6.320  17.510  0.00  0.00    +0.000 A 
ATOM     15  C   UNL     1       2.910   5.875  18.825  0.00  0.00    +0.000 A 
ATOM     16  C   UNL     1       2.224   6.698  19.733  0.00  0.00    +0.000 A 
BRANCH  11  18
ATOM     17  C   UNL     1       1.173   8.550  21.816  0.00  0.00    +0.000 C 
ATOM     18  C   UNL     1       1.303   8.986  20.376  0.00  0.00    +0.000 C 
ATOM     19  C   UNL     1       0.765  10.118  19.861  0.00  0.00    +0.000 C 
BRANCH  19  20
ATOM     20  C   UNL     1       0.087  11.103  20.618  0.00  0.00    +0.000 A 
ATOM     21  N   UNL     1      -1.097  11.085  21.203  0.00  0.00    +0.000 NA
ATOM     22  N   UNL     1      -1.305  12.286  21.830  0.00  0.00    +0.000 NA
ATOM     23  C   UNL     1      -0.236  13.018  21.637  0.00  0.00    +0.000 A 
ATOM     24  N   UNL     1       0.669  12.321  20.893  0.00  0.00    +0.000 N 
ATOM     25  C   UNL     1       1.951  12.827  20.476  0.00  0.00    +0.000 C 
ENDBRANCH  19  20
ENDBRANCH  11  18
ENDBRANCH   1  15
BRANCH   8  26
ATOM     26  C   UNL     1       7.307   7.099  17.585  0.00  0.00    +0.000 C 
ATOM     27  F   UNL     1       8.148   7.565  16.620  0.00  0.00    +0.000 F 
ATOM     28  F   UNL     1       6.379   8.081  17.763  0.00  0.00    +0.000 F 
ATOM     29  F   UNL     1       8.036   7.061  18.732  0.00  0.00    +0.000 F 
ENDBRANCH   8  26
BRANCH   6  30
ATOM     30  N   UNL     1       6.251   3.684  14.194  0.00  0.00    +0.000 N 
ATOM     31  H   UNL     1       7.141   3.303  13.883  0.00  0.00    +0.000 HD
ATOM     32  H   UNL     1       5.894   4.391  13.556  0.00  0.00    +0.000 HD
ENDBRANCH   6  30
TORSDOF 5
ENDMDL
MODEL 3
REMARK VINA RESULT:      -8.3      1.792      2.763
REMARK  Name = 
REMARK  7 active torsions:
REMARK  status: ('A' for Active; 'I' for Inactive)
REMARK    1  A    between atoms: C_1  and  C_2
REMARK    2  A    between atoms: C_2  and  C_10
REMARK    3  A    between atoms: C_3  and  C_4
REMARK    4  A    between atoms: N_8  and  C_9
REMARK    5  A    between atoms: C_14  and  N_15
REMARK    6  A    between atoms: C_20  and  N_21
REMARK    7  A    between atoms: C_23  and  C_24
REMARK                            x       y       z     vdW  Elec       q    Type
REMARK                         _______ _______ _______ _____ _____    ______ ____
ROOT
ATOM      1  N   UNL     1       4.228   2.912  19.072  0.00  0.00    +0.000 N 
ATOM      2  C   UNL     1       5.686   3.203  19.113  0.00  0.00    +0.000 C 
ATOM      3  C   UNL     1       5.839   4.256  18.060  0.00  0.00    +0.000 A 
ATOM      4  C   UNL     1       4.801   4.081  17.139  0.00  0.00    +0.000 A 
ATOM      5  C   UNL     1       4.532   4.991  16.132  0.00  0.00    +0.000 A 
ATOM      6  C   UNL     1       5.346   6.113  16.019  0.00  0.00    +0.000 A 
ATOM      7  C   UNL     1       6.367   6.318  16.971  0.00  0.00    +0.000 A 
ATOM      8  C   UNL     1       6.644   5.384  17.995  0.00  0.00    +0.000 A 
ATOM      9  C   UNL     1       3.845   3.093  17.713  0.00  0.00    +0.000 C 
ATOM     10  O   UNL     1       2.833   2.722  17.151  0.00  0.00    +0.000 OA
ENDROOT
BRANCH   1  15
ATOM     11  C   UNL     1       2.176   5.783  20.044  0.00  0.00    +0.000 A 
ATOM     12  C   UNL     1       1.128   5.002  20.564  0.00  0.00    +0.000 A 
ATOM     13  C   UNL     1       1.359   3.720  21.057  0.00  0.00    +0.000 A 
ATOM     14  C   UNL     1       2.605   3.140  20.899  0.00  0.00    +0.000 A 
ATOM     15  C   UNL     1       3.521   3.750  20.036  0.00  0.00    +0.000 A 
ATOM     16  C   UNL     1       3.377   5.118  19.750  0.00  0.00    +0.000 A 
BRANCH  11  18
ATOM     17  C   UNL     1       2.533   7.770  18.460  0.00  0.00    +0.000 C 
ATOM     18  C   UNL     1       1.955   7.234  19.749  0.00  0.00    +0.000 C 
ATOM     19  C   UNL     1       1.319   7.984  20.680  0.00  0.00    +0.000 C 
BRANCH  19  20
ATOM     20  C   UNL     1       1.018   9.360  20.537  0.00  0.00    +0.000 A 
ATOM     21  N   UNL     1       1.155  10.174  19.507  0.00  0.00    +0.000 NA
ATOM     22  N   UNL     1       0.708  11.422  19.860  0.00  0.00    +0.000 NA
ATOM     23  C   UNL     1       0.285  11.350  21.097  0.00  0.00    +0.000 A 
ATOM     24  N   UNL     1       0.448  10.079  21.565  0.00  0.00    +0.000 N 
ATOM     25  C   UNL     1       0.104   9.644  22.893  0.00  0.00    +0.000 C 
ENDBRANCH  19  20
ENDBRANCH  11  18
ENDBRANCH   1  15
BRANCH   8  26
ATOM     26  C   UNL     1       7.697   5.727  19.022  0.00  0.00    +0.000 C 
ATOM     27  F   UNL     1       8.729   4.840  19.080  0.00  0.00    +0.000 F 
ATOM     28  F   UNL     1       8.271   6.938  18.779  0.00  0.00    +0.000 F 
ATOM     29  F   UNL     1       7.193   5.800  20.283  0.00  0.00    +0.000 F 
ENDBRANCH   8  26
BRANCH   6  30
ATOM     30  N   UNL     1       4.974   7.169  15.177  0.00  0.00    +0.000 N 
ATOM     31  H   UNL     1       4.010   7.125  14.853  0.00  0.00    +0.000 HD
ATOM     32  H   UNL     1       5.622   7.364  14.419  0.00  0.00    +0.000 HD
ENDBRANCH   6  30
TORSDOF 5
ENDMDL
MODEL 4
REMARK VINA RESULT:      -8.1      5.284     10.349
REMARK  Name = 
REMARK  7 active torsions:
REMARK  status: ('A' for Active; 'I' for Inactive)
REMARK    1  A    between atoms: C_1  and  C_2
REMARK    2  A    between atoms: C_2  and  C_10
REMARK    3  A    between atoms: C_3  and  C_4
REMARK    4  A    between atoms: N_8  and  C_9
REMARK    5  A    between atoms: C_14  and  N_15
REMARK    6  A    between atoms: C_20  and  N_21
REMARK    7  A    between atoms: C_23  and  C_24
REMARK                            x       y       z     vdW  Elec       q    Type
REMARK                         _______ _______ _______ _____ _____    ______ ____
ROOT
ATOM      1  N   UNL     1      -0.776  12.096  20.531  0.00  0.00    +0.000 N 
ATOM      2  C   UNL     1      -1.393  12.936  21.591  0.00  0.00    +0.000 C 
ATOM      3  C   UNL     1      -2.851  12.869  21.255  0.00  0.00    +0.000 A 
ATOM      4  C   UNL     1      -2.952  12.621  19.881  0.00  0.00    +0.000 A 
ATOM      5  C   UNL     1      -4.152  12.322  19.262  0.00  0.00    +0.000 A 
ATOM      6  C   UNL     1      -5.308  12.293  20.035  0.00  0.00    +0.000 A 
ATOM      7  C   UNL     1      -5.206  12.498  21.427  0.00  0.00    +0.000 A 
ATOM      8  C   UNL     1      -3.981  12.810  22.058  0.00  0.00    +0.000 A 
ATOM      9  C   UNL     1      -1.592  12.283  19.379  0.00  0.00    +0.000 C 
ATOM     10  O   UNL     1      -1.343  12.018  18.219  0.00  0.00    +0.000 OA
ENDROOT
BRANCH   1  15
ATOM     11  C   UNL     1       0.905   8.854  20.783  0.00  0.00    +0.000 A 
ATOM     12  C   UNL     1       1.044   8.908  22.181  0.00  0.00    +0.000 A 
ATOM     13  C   UNL     1       0.161   9.644  22.967  0.00  0.00    +0.000 A 
ATOM     14  C   UNL     1      -0.777  10.460  22.361  0.00  0.00    +0.000 A 
ATOM     15  C   UNL     1      -0.655  10.715  20.991  0.00  0.00    +0.000 A 
ATOM     16  C   UNL     1       0.060   9.807  20.193  0.00  0.00    +0.000 A 
BRANCH  11  18
ATOM     17  C   UNL     1       2.067   8.263  18.573  0.00  0.00    +0.000 C 
ATOM     18  C   UNL     1       1.705   7.871  19.987  0.00  0.00    +0.000 C 
ATOM     19  C   UNL     1       1.989   6.673  20.552  0.00  0.00    +0.000 C 
BRANCH  19  20
ATOM     20  C   UNL     1       2.751   5.652  19.935  0.00  0.00    +0.000 A 
ATOM     21  N   UNL     1       3.990   5.652  19.478  0.00  0.00    +0.000 NA
ATOM     22  N   UNL     1       4.281   4.409  18.976  0.00  0.00    +0.000 NA
ATOM     23  C   UNL     1       3.222   3.660  19.150  0.00  0.00    +0.000 A 
ATOM     24  N   UNL     1       2.239   4.386  19.755  0.00  0.00    +0.000 N 
ATOM     25  C   UNL     1       0.931   3.883  20.083  0.00  0.00    +0.000 C 
ENDBRANCH  19  20
ENDBRANCH  11  18
ENDBRANCH   1  15
BRANCH   8  26
ATOM     26  C   UNL     1      -3.950  12.927  23.563  0.00  0.00    +0.000 C 
ATOM     27  F   UNL     1      -3.347  14.059  24.021  0.00  0.00    +0.000 F 
ATOM     28  F   UNL     1      -5.203  12.940  24.099  0.00  0.00    +0.000 F 
ATOM     29  F   UNL     1      -3.301  11.890  24.155  0.00  0.00    +0.000 F 
ENDBRANCH   8  26
BRANCH   6  30
ATOM     30  N   UNL     1      -6.493  11.767  19.506  0.00  0.00    +0.000 N 
ATOM     31  H   UNL     1      -6.515  10.752  19.455  0.00  0.00    +0.000 HD
ATOM     32  H   UNL     1      -6.807  12.199  18.640  0.00  0.00    +0.000 HD
ENDBRANCH   6  30
TORSDOF 5
ENDMDL
MODEL 5
REMARK VINA RESULT:      -8.0      4.716     10.029
REMARK  Name = 
REMARK  7 active torsions:
REMARK  status: ('A' for Active; 'I' for Inactive)
REMARK    1  A    between atoms: C_1  and  C_2
REMARK    2  A    between atoms: C_2  and  C_10
REMARK    3  A    between atoms: C_3  and  C_4
REMARK    4  A    between atoms: N_8  and  C_9
REMARK    5  A    between atoms: C_14  and  N_15
REMARK    6  A    between atoms: C_20  and  N_21
REMARK    7  A    between atoms: C_23  and  C_24
REMARK                            x       y       z     vdW  Elec       q    Type
REMARK                         _______ _______ _______ _____ _____    ______ ____
ROOT
ATOM      1  N   UNL     1      -0.312  11.860  19.957  0.00  0.00    +0.000 N 
ATOM      2  C   UNL     1      -0.703  12.607  21.182  0.00  0.00    +0.000 C 
ATOM      3  C   UNL     1      -2.191  12.697  21.050  0.00  0.00    +0.000 A 
ATOM      4  C   UNL     1      -2.494  12.631  19.685  0.00  0.00    +0.000 A 
ATOM      5  C   UNL     1      -3.788  12.506  19.211  0.00  0.00    +0.000 A 
ATOM      6  C   UNL     1      -4.830  12.472  20.131  0.00  0.00    +0.000 A 
ATOM      7  C   UNL     1      -4.528  12.493  21.510  0.00  0.00    +0.000 A 
ATOM      8  C   UNL     1      -3.207  12.627  21.993  0.00  0.00    +0.000 A 
ATOM      9  C   UNL     1      -1.249  12.253  18.961  0.00  0.00    +0.000 C 
ATOM     10  O   UNL     1      -1.181  12.116  17.755  0.00  0.00    +0.000 OA
ENDROOT
BRANCH   1  15
ATOM     11  C   UNL     1       1.305   8.576  20.001  0.00  0.00    +0.000 A 
ATOM     12  C   UNL     1       1.240   8.437  21.399  0.00  0.00    +0.000 A 
ATOM     13  C   UNL     1       0.255   9.081  22.144  0.00  0.00    +0.000 A 
ATOM     14  C   UNL     1      -0.583   9.993  21.527  0.00  0.00    +0.000 A 
ATOM     15  C   UNL     1      -0.263  10.427  20.237  0.00  0.00    +0.000 A 
ATOM     16  C   UNL     1       0.557   9.618  19.432  0.00  0.00    +0.000 A 
BRANCH  11  18
ATOM     17  C   UNL     1       2.597   8.171  17.821  0.00  0.00    +0.000 C 
ATOM     18  C   UNL     1       2.208   7.691  19.200  0.00  0.00    +0.000 C 
ATOM     19  C   UNL     1       2.559   6.494  19.728  0.00  0.00    +0.000 C 
BRANCH  19  20
ATOM     20  C   UNL     1       3.422   5.561  19.103  0.00  0.00    +0.000 A 
ATOM     21  N   UNL     1       4.733   5.416  19.163  0.00  0.00    +0.000 NA
ATOM     22  N   UNL     1       5.102   4.351  18.383  0.00  0.00    +0.000 NA
ATOM     23  C   UNL     1       4.009   3.845  17.869  0.00  0.00    +0.000 A 
ATOM     24  N   UNL     1       2.928   4.559  18.296  0.00  0.00    +0.000 N 
ATOM     25  C   UNL     1       1.566   4.292  17.914  0.00  0.00    +0.000 C 
ENDBRANCH  19  20
ENDBRANCH  11  18
ENDBRANCH   1  15
BRANCH   8  26
ATOM     26  C   UNL     1      -2.969  12.553  23.482  0.00  0.00    +0.000 C 
ATOM     27  F   UNL     1      -2.454  13.693  24.021  0.00  0.00    +0.000 F 
ATOM     28  F   UNL     1      -4.119  12.311  24.170  0.00  0.00    +0.000 F 
ATOM     29  F   UNL     1      -2.111  11.555  23.825  0.00  0.00    +0.000 F 
ENDBRANCH   8  26
BRANCH   6  30
ATOM     30  N   UNL     1      -6.119  12.111  19.719  0.00  0.00    +0.000 N 
ATOM     31  H   UNL     1      -6.260  11.109  19.617  0.00  0.00    +0.000 HD
ATOM     32  H   UNL     1      -6.477  12.630  18.921  0.00  0.00    +0.000 HD
ENDBRANCH   6  30
TORSDOF 5
ENDMDL
MODEL 6
REMARK VINA RESULT:      -7.9      4.229      6.624
REMARK  Name = 
REMARK  7 active torsions:
REMARK  status: ('A' for Active; 'I' for Inactive)
REMARK    1  A    between atoms: C_1  and  C_2
REMARK    2  A    between atoms: C_2  and  C_10
REMARK    3  A    between atoms: C_3  and  C_4
REMARK    4  A    between atoms: N_8  and  C_9
REMARK    5  A    between atoms: C_14  and  N_15
REMARK    6  A    between atoms: C_20  and  N_21
REMARK    7  A    between atoms: C_23  and  C_24
REMARK                            x       y       z     vdW  Elec       q    Type
REMARK                         _______ _______ _______ _____ _____    ______ ____
ROOT
ATOM      1  N   UNL     1       6.119   5.513  15.539  0.00  0.00    +0.000 N 
ATOM      2  C   UNL     1       4.928   6.346  15.853  0.00  0.00    +0.000 C 
ATOM      3  C   UNL     1       4.169   5.484  16.813  0.00  0.00    +0.000 A 
ATOM      4  C   UNL     1       4.514   4.154  16.544  0.00  0.00    +0.000 A 
ATOM      5  C   UNL     1       4.134   3.103  17.359  0.00  0.00    +0.000 A 
ATOM      6  C   UNL     1       3.357   3.380  18.478  0.00  0.00    +0.000 A 
ATOM      7  C   UNL     1       3.043   4.722  18.780  0.00  0.00    +0.000 A 
ATOM      8  C   UNL     1       3.426   5.795  17.943  0.00  0.00    +0.000 A 
ATOM      9  C   UNL     1       5.662   4.165  15.596  0.00  0.00    +0.000 C 
ATOM     10  O   UNL     1       6.195   3.162  15.163  0.00  0.00    +0.000 OA
ENDROOT
BRANCH   1  15
ATOM     11  C   UNL     1       7.849   7.636  17.967  0.00  0.00    +0.000 A 
ATOM     12  C   UNL     1       7.814   6.680  18.998  0.00  0.00    +0.000 A 
ATOM     13  C   UNL     1       7.757   5.317  18.717  0.00  0.00    +0.000 A 
ATOM     14  C   UNL     1       7.579   4.894  17.413  0.00  0.00    +0.000 A 
ATOM     15  C   UNL     1       7.214   5.839  16.448  0.00  0.00    +0.000 A 
ATOM     16  C   UNL     1       7.507   7.193  16.680  0.00  0.00    +0.000 A 
BRANCH  11  18
ATOM     17  C   UNL     1       7.471  10.118  17.440  0.00  0.00    +0.000 C 
ATOM     18  C   UNL     1       8.156   9.067  18.282  0.00  0.00    +0.000 C 
ATOM     19  C   UNL     1       9.074   9.326  19.243  0.00  0.00    +0.000 C 
BRANCH  19  20
ATOM     20  C   UNL     1       9.452  10.623  19.666  0.00  0.00    +0.000 A 
ATOM     21  N   UNL     1       9.150  11.301  20.759  0.00  0.00    +0.000 NA
ATOM     22  N   UNL     1       9.775  12.521  20.715  0.00  0.00    +0.000 NA
ATOM     23  C   UNL     1      10.466  12.567  19.603  0.00  0.00    +0.000 A 
ATOM     24  N   UNL     1      10.307  11.400  18.915  0.00  0.00    +0.000 N 
ATOM     25  C   UNL     1      10.910  11.111  17.641  0.00  0.00    +0.000 C 
ENDBRANCH  19  20
ENDBRANCH  11  18
ENDBRANCH   1  15
BRANCH   8  26
ATOM     26  C   UNL     1       3.123   7.205  18.389  0.00  0.00    +0.000 C 
ATOM     27  F   UNL     1       4.137   8.088  18.169  0.00  0.00    +0.000 F 
ATOM     28  F   UNL     1       2.042   7.723  17.742  0.00  0.00    +0.000 F 
ATOM     29  F   UNL     1       2.838   7.284  19.716  0.00  0.00    +0.000 F 
ENDBRANCH   8  26
BRANCH   6  30
ATOM     30  N   UNL     1       3.151   2.394  19.452  0.00  0.00    +0.000 N 
ATOM     31  H   UNL     1       3.958   2.218  20.046  0.00  0.00    +0.000 HD
ATOM     32  H   UNL     1       2.734   1.532  19.110  0.00  0.00    +0.000 HD
ENDBRANCH   6  30
TORSDOF 5
ENDMDL
MODEL 7
REMARK VINA RESULT:      -7.9      4.015      8.819
REMARK  Name = 
REMARK  7 active torsions:
REMARK  status: ('A' for Active; 'I' for Inactive)
REMARK    1  A    between atoms: C_1  and  C_2
REMARK    2  A    between atoms: C_2  and  C_10
REMARK    3  A    between atoms: C_3  and  C_4
REMARK    4  A    between atoms: N_8  and  C_9
REMARK    5  A    between atoms: C_14  and  N_15
REMARK    6  A    between atoms: C_20  and  N_21
REMARK    7  A    between atoms: C_23  and  C_24
REMARK                            x       y       z     vdW  Elec       q    Type
REMARK                         _______ _______ _______ _____ _____    ______ ____
ROOT
ATOM      1  N   UNL     1       0.161   9.143  20.818  0.00  0.00    +0.000 N 
ATOM      2  C   UNL     1      -1.018   9.055  19.916  0.00  0.00    +0.000 C 
ATOM      3  C   UNL     1      -1.287  10.491  19.587  0.00  0.00    +0.000 A 
ATOM      4  C   UNL     1      -0.795  11.262  20.647  0.00  0.00    +0.000 A 
ATOM      5  C   UNL     1      -0.716  12.642  20.594  0.00  0.00    +0.000 A 
ATOM      6  C   UNL     1      -1.168  13.288  19.449  0.00  0.00    +0.000 A 
ATOM      7  C   UNL     1      -1.623  12.514  18.360  0.00  0.00    +0.000 A 
ATOM      8  C   UNL     1      -1.710  11.105  18.418  0.00  0.00    +0.000 A 
ATOM      9  C   UNL     1       0.001  10.365  21.530  0.00  0.00    +0.000 C 
ATOM     10  O   UNL     1       0.561  10.734  22.544  0.00  0.00    +0.000 OA
ENDROOT
BRANCH   1  15
ATOM     11  C   UNL     1       2.580   7.347  18.737  0.00  0.00    +0.000 A 
ATOM     12  C   UNL     1       2.443   8.210  17.635  0.00  0.00    +0.000 A 
ATOM     13  C   UNL     1       2.050   9.536  17.800  0.00  0.00    +0.000 A 
ATOM     14  C   UNL     1       1.639   9.978  19.045  0.00  0.00    +0.000 A 
ATOM     15  C   UNL     1       1.395   9.030  20.043  0.00  0.00    +0.000 A 
ATOM     16  C   UNL     1       2.009   7.770  19.948  0.00  0.00    +0.000 A 
BRANCH  11  18
ATOM     17  C   UNL     1       4.061   5.804  17.321  0.00  0.00    +0.000 C 
ATOM     18  C   UNL     1       3.234   6.012  18.568  0.00  0.00    +0.000 C 
ATOM     19  C   UNL     1       2.986   5.058  19.497  0.00  0.00    +0.000 C 
BRANCH  19  20
ATOM     20  C   UNL     1       3.547   3.758  19.486  0.00  0.00    +0.000 A 
ATOM     21  N   UNL     1       4.706   3.310  19.933  0.00  0.00    +0.000 NA
ATOM     22  N   UNL     1       4.785   1.961  19.699  0.00  0.00    +0.000 NA
ATOM     23  C   UNL     1       3.664   1.598  19.128  0.00  0.00    +0.000 A 
ATOM     24  N   UNL     1       2.850   2.682  18.981  0.00  0.00    +0.000 N 
ATOM     25  C   UNL     1       1.545   2.652  18.375  0.00  0.00    +0.000 C 
ENDBRANCH  19  20
ENDBRANCH  11  18
ENDBRANCH   1  15
BRANCH   8  26
ATOM     26  C   UNL     1      -2.126  10.354  17.176  0.00  0.00    +0.000 C 
ATOM     27  F   UNL     1      -1.194   9.470  16.721  0.00  0.00    +0.000 F 
ATOM     28  F   UNL     1      -3.255   9.620  17.378  0.00  0.00    +0.000 F 
ATOM     29  F   UNL     1      -2.399  11.181  16.131  0.00  0.00    +0.000 F 
ENDBRANCH   8  26
BRANCH   6  30
ATOM     30  N   UNL     1      -0.892  14.647  19.254  0.00  0.00    +0.000 N 
ATOM     31  H   UNL     1      -1.235  15.254  19.995  0.00  0.00    +0.000 HD
ATOM     32  H   UNL     1      -1.122  15.005  18.331  0.00  0.00    +0.000 HD
ENDBRANCH   6  30
TORSDOF 5
ENDMDL
MODEL 8
REMARK VINA RESULT:      -7.9      3.969      8.886
REMARK  Name = 
REMARK  7 active torsions:
REMARK  status: ('A' for Active; 'I' for Inactive)
REMARK    1  A    between atoms: C_1  and  C_2
REMARK    2  A    between atoms: C_2  and  C_10
REMARK    3  A    between atoms: C_3  and  C_4
REMARK    4  A    between atoms: N_8  and  C_9
REMARK    5  A    between atoms: C_14  and  N_15
REMARK    6  A    between atoms: C_20  and  N_21
REMARK    7  A    between atoms: C_23  and  C_24
REMARK                            x       y       z     vdW  Elec       q    Type
REMARK                         _______ _______ _______ _____ _____    ______ ____
ROOT
ATOM      1  N   UNL     1       0.078   9.229  20.881  0.00  0.00    +0.000 N 
ATOM      2  C   UNL     1      -1.093   9.124  19.971  0.00  0.00    +0.000 C 
ATOM      3  C   UNL     1      -1.357  10.553  19.612  0.00  0.00    +0.000 A 
ATOM      4  C   UNL     1      -0.875  11.344  20.661  0.00  0.00    +0.000 A 
ATOM      5  C   UNL     1      -0.793  12.723  20.582  0.00  0.00    +0.000 A 
ATOM      6  C   UNL     1      -1.234  13.347  19.420  0.00  0.00    +0.000 A 
ATOM      7  C   UNL     1      -1.680  12.553  18.342  0.00  0.00    +0.000 A 
ATOM      8  C   UNL     1      -1.769  11.145  18.426  0.00  0.00    +0.000 A 
ATOM      9  C   UNL     1      -0.087  10.464  21.568  0.00  0.00    +0.000 C 
ATOM     10  O   UNL     1       0.464  10.852  22.580  0.00  0.00    +0.000 OA
ENDROOT
BRANCH   1  15
ATOM     11  C   UNL     1       2.444   7.438  18.737  0.00  0.00    +0.000 A 
ATOM     12  C   UNL     1       2.369   8.368  17.684  0.00  0.00    +0.000 A 
ATOM     13  C   UNL     1       2.037   9.700  17.920  0.00  0.00    +0.000 A 
ATOM     14  C   UNL     1       1.626  10.090  19.182  0.00  0.00    +0.000 A 
ATOM     15  C   UNL     1       1.318   9.099  20.120  0.00  0.00    +0.000 A 
ATOM     16  C   UNL     1       1.873   7.818  19.961  0.00  0.00    +0.000 A 
BRANCH  11  18
ATOM     17  C   UNL     1       4.479   6.031  18.057  0.00  0.00    +0.000 C 
ATOM     18  C   UNL     1       3.036   6.083  18.500  0.00  0.00    +0.000 C 
ATOM     19  C   UNL     1       2.228   5.004  18.627  0.00  0.00    +0.000 C 
BRANCH  19  20
ATOM     20  C   UNL     1       2.645   3.661  18.457  0.00  0.00    +0.000 A 
ATOM     21  N   UNL     1       2.948   2.979  17.368  0.00  0.00    +0.000 NA
ATOM     22  N   UNL     1       3.310   1.705  17.725  0.00  0.00    +0.000 NA
ATOM     23  C   UNL     1       3.242   1.631  19.030  0.00  0.00    +0.000 A 
ATOM     24  N   UNL     1       2.841   2.831  19.539  0.00  0.00    +0.000 N 
ATOM     25  C   UNL     1       2.643   3.103  20.938  0.00  0.00    +0.000 C 
ENDBRANCH  19  20
ENDBRANCH  11  18
ENDBRANCH   1  15
BRANCH   8  26
ATOM     26  C   UNL     1      -2.174  10.371  17.195  0.00  0.00    +0.000 C 
ATOM     27  F   UNL     1      -3.325   9.657  17.340  0.00  0.00    +0.000 F 
ATOM     28  F   UNL     1      -2.385  11.187  16.126  0.00  0.00    +0.000 F 
ATOM     29  F   UNL     1      -1.226   9.479  16.803  0.00  0.00    +0.000 F 
ENDBRANCH   8  26
BRANCH   6  30
ATOM     30  N   UNL     1      -0.954  14.702  19.202  0.00  0.00    +0.000 N 
ATOM     31  H   UNL     1       0.033  14.910  19.073  0.00  0.00    +0.000 HD
ATOM     32  H   UNL     1      -1.397  15.344  19.855  0.00  0.00    +0.000 HD
ENDBRANCH   6  30
TORSDOF 5
ENDMDL
MODEL 9
REMARK VINA RESULT:      -7.8      4.242      6.626
REMARK  Name = 
REMARK  7 active torsions:
REMARK  status: ('A' for Active; 'I' for Inactive)
REMARK    1  A    between atoms: C_1  and  C_2
REMARK    2  A    between atoms: C_2  and  C_10
REMARK    3  A    between atoms: C_3  and  C_4
REMARK    4  A    between atoms: N_8  and  C_9
REMARK    5  A    between atoms: C_14  and  N_15
REMARK    6  A    between atoms: C_20  and  N_21
REMARK    7  A    between atoms: C_23  and  C_24
REMARK                            x       y       z     vdW  Elec       q    Type
REMARK                         _______ _______ _______ _____ _____    ______ ____
ROOT
ATOM      1  N   UNL     1       6.129   5.498  15.664  0.00  0.00    +0.000 N 
ATOM      2  C   UNL     1       4.932   6.342  15.918  0.00  0.00    +0.000 C 
ATOM      3  C   UNL     1       4.147   5.515  16.887  0.00  0.00    +0.000 A 
ATOM      4  C   UNL     1       4.496   4.176  16.672  0.00  0.00    +0.000 A 
ATOM      5  C   UNL     1       4.093   3.154  17.513  0.00  0.00    +0.000 A 
ATOM      6  C   UNL     1       3.287   3.470  18.601  0.00  0.00    +0.000 A 
ATOM      7  C   UNL     1       2.969   4.823  18.849  0.00  0.00    +0.000 A 
ATOM      8  C   UNL     1       3.375   5.865  17.986  0.00  0.00    +0.000 A 
ATOM      9  C   UNL     1       5.669   4.154  15.755  0.00  0.00    +0.000 C 
ATOM     10  O   UNL     1       6.211   3.136  15.371  0.00  0.00    +0.000 OA
ENDROOT
BRANCH   1  15
ATOM     11  C   UNL     1       7.873   7.757  17.956  0.00  0.00    +0.000 A 
ATOM     12  C   UNL     1       7.737   6.912  19.072  0.00  0.00    +0.000 A 
ATOM     13  C   UNL     1       7.613   5.533  18.923  0.00  0.00    +0.000 A 
ATOM     14  C   UNL     1       7.467   4.992  17.658  0.00  0.00    +0.000 A 
ATOM     15  C   UNL     1       7.201   5.854  16.589  0.00  0.00    +0.000 A 
ATOM     16  C   UNL     1       7.562   7.207  16.703  0.00  0.00    +0.000 A 
BRANCH  11  18
ATOM     17  C   UNL     1       7.477  10.217  17.345  0.00  0.00    +0.000 C 
ATOM     18  C   UNL     1       8.249   9.194  18.144  0.00  0.00    +0.000 C 
ATOM     19  C   UNL     1       9.295   9.478  18.955  0.00  0.00    +0.000 C 
BRANCH  19  20
ATOM     20  C   UNL     1       9.755  10.785  19.249  0.00  0.00    +0.000 A 
ATOM     21  N   UNL     1      10.445  11.644  18.523  0.00  0.00    +0.000 NA
ATOM     22  N   UNL     1      10.637  12.792  19.249  0.00  0.00    +0.000 NA
ATOM     23  C   UNL     1      10.043  12.626  20.404  0.00  0.00    +0.000 A 
ATOM     24  N   UNL     1       9.467  11.391  20.452  0.00  0.00    +0.000 N 
ATOM     25  C   UNL     1       8.745  10.867  21.581  0.00  0.00    +0.000 C 
ENDBRANCH  19  20
ENDBRANCH  11  18
ENDBRANCH   1  15
BRANCH   8  26
ATOM     26  C   UNL     1       3.064   7.290  18.375  0.00  0.00    +0.000 C 
ATOM     27  F   UNL     1       1.983   7.819  17.736  0.00  0.00    +0.000 F 
ATOM     28  F   UNL     1       2.794   7.408  19.705  0.00  0.00    +0.000 F 
ATOM     29  F   UNL     1       4.098   8.138  18.127  0.00  0.00    +0.000 F 
ENDBRANCH   8  26
BRANCH   6  30
ATOM     30  N   UNL     1       3.054   2.519  19.602  0.00  0.00    +0.000 N 
ATOM     31  H   UNL     1       2.890   2.914  20.525  0.00  0.00    +0.000 HD
ATOM     32  H   UNL     1       3.720   1.751  19.630  0.00  0.00    +0.000 HD
ENDBRANCH   6  30
TORSDOF 5
ENDMDL
