MODEL 1
REMARK VINA RESULT:      -8.2      0.000      0.000
REMARK  Name = 
REMARK  7 active torsions:
REMARK  status: ('A' for Active; 'I' for Inactive)
REMARK    1  A    between atoms: C_2  and  C_15
REMARK    2  A    between atoms: N_3  and  C_4
REMARK    3  A    between atoms: C_4  and  C_5
REMARK    4  A    between atoms: C_8  and  C_9
REMARK    5  A    between atoms: C_19  and  S_20
REMARK    6  A    between atoms: S_20  and  N_23
REMARK    7  A    between atoms: N_23  and  C_24
REMARK                            x       y       z     vdW  Elec       q    Type
REMARK                         _______ _______ _______ _____ _____    ______ ____
ROOT
ATOM      1  O   UNL     1       2.533   8.866  17.346  0.00  0.00    +0.000 OA
ATOM      2  C   UNL     1       2.016   8.480  18.393  0.00  0.00    +0.000 C 
ATOM      3  N   UNL     1       1.117   9.237  19.120  0.00  0.00    +0.000 N 
ATOM      4  H   UNL     1       0.928   8.995  20.083  0.00  0.00    +0.000 HD
ENDROOT
BRANCH   2   5
ATOM      5  C   UNL     1       2.368   7.147  18.934  0.00  0.00    +0.000 A 
ATOM      6  C   UNL     1       1.810   6.734  20.150  0.00  0.00    +0.000 A 
ATOM      7  C   UNL     1       2.133   5.478  20.681  0.00  0.00    +0.000 A 
ATOM      8  C   UNL     1       3.000   4.627  19.995  0.00  0.00    +0.000 A 
ATOM      9  C   UNL     1       3.556   5.050  18.783  0.00  0.00    +0.000 A 
ATOM     10  C   UNL     1       3.261   6.313  18.258  0.00  0.00    +0.000 A 
BRANCH   9  11
ATOM     11  S   UNL     1       4.545   3.957  17.799  0.00  0.00    +0.000 S 
ATOM     12  O   UNL     1       4.084   2.611  18.055  0.00  0.00    +0.000 OA
ATOM     13  O   UNL     1       4.595   4.481  16.448  0.00  0.00    +0.000 OA
BRANCH  11  14
ATOM     14  N   UNL     1       6.101   4.086  18.450  0.00  0.00    +0.000 NA
ATOM     15  H   UNL     1       6.755   3.631  17.809  0.00  0.00    +0.000 HD
BRANCH  14  16
ATOM     16  C   UNL     1       6.506   5.421  18.895  0.00  0.00    +0.000 C 
ATOM     17  C   UNL     1       7.415   6.257  18.039  0.00  0.00    +0.000 C 
ATOM     18  C   UNL     1       7.917   5.685  19.333  0.00  0.00    +0.000 C 
ENDBRANCH  14  16
ENDBRANCH  11  14
ENDBRANCH   9  11
ENDBRANCH   2   5
BRANCH   3  19
ATOM     19  C   UNL     1       0.795  10.581  18.691  0.00  0.00    +0.000 C 
BRANCH  19  20
ATOM     20  C   UNL     1      -0.690  10.801  18.553  0.00  0.00    +0.000 A 
ATOM     21  C   UNL     1      -1.340  11.762  19.338  0.00  0.00    +0.000 A 
ATOM     22  C   UNL     1      -2.698  12.036  19.150  0.00  0.00    +0.000 A 
ATOM     23  C   UNL     1      -3.437  11.353  18.175  0.00  0.00    +0.000 A 
ATOM     24  C   UNL     1      -2.788  10.386  17.394  0.00  0.00    +0.000 A 
ATOM     25  C   UNL     1      -1.429  10.112  17.582  0.00  0.00    +0.000 A 
BRANCH  23  26
ATOM     26  C   UNL     1      -4.899  11.656  17.953  0.00  0.00    +0.000 C 
ATOM     27  F   UNL     1      -5.707  10.565  18.078  0.00  0.00    +0.000 F 
ATOM     28  F   UNL     1      -5.383  12.577  18.834  0.00  0.00    +0.000 F 
ATOM     29  F   UNL     1      -5.146  12.160  16.712  0.00  0.00    +0.000 F 
ENDBRANCH  23  26
ENDBRANCH  19  20
ENDBRANCH   3  19
TORSDOF 7
ENDMDL
MODEL 2
REMARK VINA RESULT:      -8.1      1.874      3.124
REMARK  Name = 
REMARK  7 active torsions:
REMARK  status: ('A' for Active; 'I' for Inactive)
REMARK    1  A    between atoms: C_2  and  C_15
REMARK    2  A    between atoms: N_3  and  C_4
REMARK    3  A    between atoms: C_4  and  C_5
REMARK    4  A    between atoms: C_8  and  C_9
REMARK    5  A    between atoms: C_19  and  S_20
REMARK    6  A    between atoms: S_20  and  N_23
REMARK    7  A    between atoms: N_23  and  C_24
REMARK                            x       y       z     vdW  Elec       q    Type
REMARK                         _______ _______ _______ _____ _____    ______ ____
ROOT
ATOM      1  O   UNL     1       1.577   7.731  20.425  0.00  0.00    +0.000 OA
ATOM      2  C   UNL     1       1.922   8.086  19.299  0.00  0.00    +0.000 C 
ATOM      3  N   UNL     1       1.576   9.305  18.747  0.00  0.00    +0.000 N 
ATOM      4  H   UNL     1       1.655   9.440  17.749  0.00  0.00    +0.000 HD
ENDROOT
BRANCH   2   5
ATOM      5  C   UNL     1       2.738   7.175  18.463  0.00  0.00    +0.000 A 
ATOM      6  C   UNL     1       3.733   7.712  17.639  0.00  0.00    +0.000 A 
ATOM      7  C   UNL     1       4.515   6.868  16.837  0.00  0.00    +0.000 A 
ATOM      8  C   UNL     1       4.314   5.487  16.868  0.00  0.00    +0.000 A 
ATOM      9  C   UNL     1       3.314   4.960  17.692  0.00  0.00    +0.000 A 
ATOM     10  C   UNL     1       2.511   5.798  18.475  0.00  0.00    +0.000 A 
BRANCH   9  11
ATOM     11  S   UNL     1       3.113   3.210  17.881  0.00  0.00    +0.000 S 
ATOM     12  O   UNL     1       1.779   2.879  17.434  0.00  0.00    +0.000 OA
ATOM     13  O   UNL     1       4.273   2.554  17.311  0.00  0.00    +0.000 OA
BRANCH  11  14
ATOM     14  N   UNL     1       3.158   2.953  19.553  0.00  0.00    +0.000 NA
ATOM     15  H   UNL     1       3.603   3.762  19.990  0.00  0.00    +0.000 HD
BRANCH  14  16
ATOM     16  C   UNL     1       1.901   2.533  20.176  0.00  0.00    +0.000 C 
ATOM     17  C   UNL     1       0.979   3.555  20.778  0.00  0.00    +0.000 C 
ATOM     18  C   UNL     1       1.725   2.601  21.665  0.00  0.00    +0.000 C 
ENDBRANCH  14  16
ENDBRANCH  11  14
ENDBRANCH   9  11
ENDBRANCH   2   5
BRANCH   3  19
ATOM     19  C   UNL     1       0.711  10.206  19.478  0.00  0.00    +0.000 C 
BRANCH  19  20
ATOM     20  C   UNL     1      -0.577  10.488  18.749  0.00  0.00    +0.000 A 
ATOM     21  C   UNL     1      -0.911   9.768  17.595  0.00  0.00    +0.000 A 
ATOM     22  C   UNL     1      -2.145   9.960  16.966  0.00  0.00    +0.000 A 
ATOM     23  C   UNL     1      -3.072  10.879  17.476  0.00  0.00    +0.000 A 
ATOM     24  C   UNL     1      -2.735  11.606  18.628  0.00  0.00    +0.000 A 
ATOM     25  C   UNL     1      -1.500  11.413  19.257  0.00  0.00    +0.000 A 
BRANCH  23  26
ATOM     26  C   UNL     1      -4.413  11.079  16.814  0.00  0.00    +0.000 C 
ATOM     27  F   UNL     1      -5.449  10.519  17.501  0.00  0.00    +0.000 F 
ATOM     28  F   UNL     1      -4.735  12.395  16.669  0.00  0.00    +0.000 F 
ATOM     29  F   UNL     1      -4.465  10.542  15.563  0.00  0.00    +0.000 F 
ENDBRANCH  23  26
ENDBRANCH  19  20
ENDBRANCH   3  19
TORSDOF 7
ENDMDL
MODEL 3
REMARK VINA RESULT:      -8.0      2.859      3.827
REMARK  Name = 
REMARK  7 active torsions:
REMARK  status: ('A' for Active; 'I' for Inactive)
REMARK    1  A    between atoms: C_2  and  C_15
REMARK    2  A    between atoms: N_3  and  C_4
REMARK    3  A    between atoms: C_4  and  C_5
REMARK    4  A    between atoms: C_8  and  C_9
REMARK    5  A    between atoms: C_19  and  S_20
REMARK    6  A    between atoms: S_20  and  N_23
REMARK    7  A    between atoms: N_23  and  C_24
REMARK                            x       y       z     vdW  Elec       q    Type
REMARK                         _______ _______ _______ _____ _____    ______ ____
ROOT
ATOM      1  O   UNL     1       1.303   5.169  20.664  0.00  0.00    +0.000 OA
ATOM      2  C   UNL     1       2.112   5.807  19.991  0.00  0.00    +0.000 C 
ATOM      3  N   UNL     1       2.312   7.166  20.131  0.00  0.00    +0.000 N 
ATOM      4  H   UNL     1       2.780   7.679  19.396  0.00  0.00    +0.000 HD
ENDROOT
BRANCH   2   5
ATOM      5  C   UNL     1       2.913   5.110  18.957  0.00  0.00    +0.000 A 
ATOM      6  C   UNL     1       2.345   4.036  18.263  0.00  0.00    +0.000 A 
ATOM      7  C   UNL     1       3.086   3.360  17.284  0.00  0.00    +0.000 A 
ATOM      8  C   UNL     1       4.388   3.765  16.986  0.00  0.00    +0.000 A 
ATOM      9  C   UNL     1       4.948   4.837  17.688  0.00  0.00    +0.000 A 
ATOM     10  C   UNL     1       4.225   5.499  18.686  0.00  0.00    +0.000 A 
BRANCH   9  11
ATOM     11  S   UNL     1       6.539   5.485  17.251  0.00  0.00    +0.000 S 
ATOM     12  O   UNL     1       6.658   6.786  17.871  0.00  0.00    +0.000 OA
ATOM     13  O   UNL     1       7.531   4.455  17.488  0.00  0.00    +0.000 OA
BRANCH  11  14
ATOM     14  N   UNL     1       6.455   5.733  15.579  0.00  0.00    +0.000 NA
ATOM     15  H   UNL     1       6.828   6.662  15.374  0.00  0.00    +0.000 HD
BRANCH  14  16
ATOM     16  C   UNL     1       6.989   4.657  14.741  0.00  0.00    +0.000 C 
ATOM     17  C   UNL     1       7.109   4.848  13.256  0.00  0.00    +0.000 C 
ATOM     18  C   UNL     1       6.091   3.896  13.811  0.00  0.00    +0.000 C 
ENDBRANCH  14  16
ENDBRANCH  11  14
ENDBRANCH   9  11
ENDBRANCH   2   5
BRANCH   3  19
ATOM     19  C   UNL     1       1.503   7.921  21.064  0.00  0.00    +0.000 C 
BRANCH  19  20
ATOM     20  C   UNL     1       0.887   9.144  20.435  0.00  0.00    +0.000 A 
ATOM     21  C   UNL     1       1.174   9.478  19.105  0.00  0.00    +0.000 A 
ATOM     22  C   UNL     1       0.536  10.558  18.488  0.00  0.00    +0.000 A 
ATOM     23  C   UNL     1      -0.403  11.329  19.187  0.00  0.00    +0.000 A 
ATOM     24  C   UNL     1      -0.685  10.999  20.521  0.00  0.00    +0.000 A 
ATOM     25  C   UNL     1      -0.046   9.919  21.139  0.00  0.00    +0.000 A 
BRANCH  23  26
ATOM     26  C   UNL     1      -1.110  12.485  18.522  0.00  0.00    +0.000 C 
ATOM     27  F   UNL     1      -0.266  13.460  18.080  0.00  0.00    +0.000 F 
ATOM     28  F   UNL     1      -1.833  12.101  17.433  0.00  0.00    +0.000 F 
ATOM     29  F   UNL     1      -1.991  13.107  19.354  0.00  0.00    +0.000 F 
ENDBRANCH  23  26
ENDBRANCH  19  20
ENDBRANCH   3  19
TORSDOF 7
ENDMDL
MODEL 4
REMARK VINA RESULT:      -8.0      1.473      2.049
REMARK  Name = 
REMARK  7 active torsions:
REMARK  status: ('A' for Active; 'I' for Inactive)
REMARK    1  A    between atoms: C_2  and  C_15
REMARK    2  A    between atoms: N_3  and  C_4
REMARK    3  A    between atoms: C_4  and  C_5
REMARK    4  A    between atoms: C_8  and  C_9
REMARK    5  A    between atoms: C_19  and  S_20
REMARK    6  A    between atoms: S_20  and  N_23
REMARK    7  A    between atoms: N_23  and  C_24
REMARK                            x       y       z     vdW  Elec       q    Type
REMARK                         _______ _______ _______ _____ _____    ______ ____
ROOT
ATOM      1  O   UNL     1       2.522   8.737  17.375  0.00  0.00    +0.000 OA
ATOM      2  C   UNL     1       2.076   8.436  18.481  0.00  0.00    +0.000 C 
ATOM      3  N   UNL     1       1.305   9.288  19.247  0.00  0.00    +0.000 N 
ATOM      4  H   UNL     1       1.188   9.102  20.234  0.00  0.00    +0.000 HD
ENDROOT
BRANCH   2   5
ATOM      5  C   UNL     1       2.380   7.103  19.053  0.00  0.00    +0.000 A 
ATOM      6  C   UNL     1       1.669   6.664  20.175  0.00  0.00    +0.000 A 
ATOM      7  C   UNL     1       1.942   5.408  20.734  0.00  0.00    +0.000 A 
ATOM      8  C   UNL     1       2.914   4.583  20.165  0.00  0.00    +0.000 A 
ATOM      9  C   UNL     1       3.622   5.033  19.046  0.00  0.00    +0.000 A 
ATOM     10  C   UNL     1       3.375   6.296  18.498  0.00  0.00    +0.000 A 
BRANCH   9  11
ATOM     11  S   UNL     1       4.761   3.972  18.197  0.00  0.00    +0.000 S 
ATOM     12  O   UNL     1       6.032   4.073  18.877  0.00  0.00    +0.000 OA
ATOM     13  O   UNL     1       4.123   2.686  17.999  0.00  0.00    +0.000 OA
BRANCH  11  14
ATOM     14  N   UNL     1       4.951   4.683  16.673  0.00  0.00    +0.000 NA
ATOM     15  H   UNL     1       5.140   5.678  16.805  0.00  0.00    +0.000 HD
BRANCH  14  16
ATOM     16  C   UNL     1       5.863   4.000  15.752  0.00  0.00    +0.000 C 
ATOM     17  C   UNL     1       6.892   4.786  14.990  0.00  0.00    +0.000 C 
ATOM     18  C   UNL     1       5.725   4.177  14.269  0.00  0.00    +0.000 C 
ENDBRANCH  14  16
ENDBRANCH  11  14
ENDBRANCH   9  11
ENDBRANCH   2   5
BRANCH   3  19
ATOM     19  C   UNL     1       1.043  10.634  18.784  0.00  0.00    +0.000 C 
BRANCH  19  20
ATOM     20  C   UNL     1      -0.424  10.888  18.550  0.00  0.00    +0.000 A 
ATOM     21  C   UNL     1      -1.159  10.060  17.692  0.00  0.00    +0.000 A 
ATOM     22  C   UNL     1      -2.538  10.233  17.542  0.00  0.00    +0.000 A 
ATOM     23  C   UNL     1      -3.213  11.240  18.246  0.00  0.00    +0.000 A 
ATOM     24  C   UNL     1      -2.476  12.074  19.100  0.00  0.00    +0.000 A 
ATOM     25  C   UNL     1      -1.096  11.900  19.249  0.00  0.00    +0.000 A 
BRANCH  23  26
ATOM     26  C   UNL     1      -4.705  11.422  18.104  0.00  0.00    +0.000 C 
ATOM     27  F   UNL     1      -5.228  12.333  18.973  0.00  0.00    +0.000 F 
ATOM     28  F   UNL     1      -5.065  11.848  16.861  0.00  0.00    +0.000 F 
ATOM     29  F   UNL     1      -5.395  10.267  18.318  0.00  0.00    +0.000 F 
ENDBRANCH  23  26
ENDBRANCH  19  20
ENDBRANCH   3  19
TORSDOF 7
ENDMDL
MODEL 5
REMARK VINA RESULT:      -8.0      2.835      3.668
REMARK  Name = 
REMARK  7 active torsions:
REMARK  status: ('A' for Active; 'I' for Inactive)
REMARK    1  A    between atoms: C_2  and  C_15
REMARK    2  A    between atoms: N_3  and  C_4
REMARK    3  A    between atoms: C_4  and  C_5
REMARK    4  A    between atoms: C_8  and  C_9
REMARK    5  A    between atoms: C_19  and  S_20
REMARK    6  A    between atoms: S_20  and  N_23
REMARK    7  A    between atoms: N_23  and  C_24
REMARK                            x       y       z     vdW  Elec       q    Type
REMARK                         _______ _______ _______ _____ _____    ______ ____
ROOT
ATOM      1  O   UNL     1       1.060   5.175  20.714  0.00  0.00    +0.000 OA
ATOM      2  C   UNL     1       1.987   5.710  20.108  0.00  0.00    +0.000 C 
ATOM      3  N   UNL     1       2.346   7.033  20.283  0.00  0.00    +0.000 N 
ATOM      4  H   UNL     1       2.924   7.488  19.590  0.00  0.00    +0.000 HD
ENDROOT
BRANCH   2   5
ATOM      5  C   UNL     1       2.765   4.925  19.121  0.00  0.00    +0.000 A 
ATOM      6  C   UNL     1       2.136   3.884  18.429  0.00  0.00    +0.000 A 
ATOM      7  C   UNL     1       2.854   3.127  17.493  0.00  0.00    +0.000 A 
ATOM      8  C   UNL     1       4.196   3.417  17.236  0.00  0.00    +0.000 A 
ATOM      9  C   UNL     1       4.816   4.457  17.935  0.00  0.00    +0.000 A 
ATOM     10  C   UNL     1       4.114   5.201  18.891  0.00  0.00    +0.000 A 
BRANCH   9  11
ATOM     11  S   UNL     1       6.469   4.964  17.545  0.00  0.00    +0.000 S 
ATOM     12  O   UNL     1       6.410   6.351  17.142  0.00  0.00    +0.000 OA
ATOM     13  O   UNL     1       7.341   4.539  18.622  0.00  0.00    +0.000 OA
BRANCH  11  14
ATOM     14  N   UNL     1       6.881   4.060  16.175  0.00  0.00    +0.000 NA
ATOM     15  H   UNL     1       6.455   3.136  16.261  0.00  0.00    +0.000 HD
BRANCH  14  16
ATOM     16  C   UNL     1       6.669   4.716  14.883  0.00  0.00    +0.000 C 
ATOM     17  C   UNL     1       5.378   4.521  14.141  0.00  0.00    +0.000 C 
ATOM     18  C   UNL     1       6.646   3.915  13.614  0.00  0.00    +0.000 C 
ENDBRANCH  14  16
ENDBRANCH  11  14
ENDBRANCH   9  11
ENDBRANCH   2   5
BRANCH   3  19
ATOM     19  C   UNL     1       1.573   7.877  21.169  0.00  0.00    +0.000 C 
BRANCH  19  20
ATOM     20  C   UNL     1       0.866   8.988  20.437  0.00  0.00    +0.000 A 
ATOM     21  C   UNL     1      -0.089   9.775  21.094  0.00  0.00    +0.000 A 
ATOM     22  C   UNL     1      -0.681  10.864  20.448  0.00  0.00    +0.000 A 
ATOM     23  C   UNL     1      -0.333  11.190  19.130  0.00  0.00    +0.000 A 
ATOM     24  C   UNL     1       0.618  10.397  18.470  0.00  0.00    +0.000 A 
ATOM     25  C   UNL     1       1.210   9.307  19.116  0.00  0.00    +0.000 A 
BRANCH  23  26
ATOM     26  C   UNL     1      -0.954  12.375  18.432  0.00  0.00    +0.000 C 
ATOM     27  F   UNL     1      -1.609  12.049  17.282  0.00  0.00    +0.000 F 
ATOM     28  F   UNL     1      -1.869  13.021  19.209  0.00  0.00    +0.000 F 
ATOM     29  F   UNL     1      -0.033  13.316  18.080  0.00  0.00    +0.000 F 
ENDBRANCH  23  26
ENDBRANCH  19  20
ENDBRANCH   3  19
TORSDOF 7
ENDMDL
MODEL 6
REMARK VINA RESULT:      -7.9      2.003      3.044
REMARK  Name = 
REMARK  7 active torsions:
REMARK  status: ('A' for Active; 'I' for Inactive)
REMARK    1  A    between atoms: C_2  and  C_15
REMARK    2  A    between atoms: N_3  and  C_4
REMARK    3  A    between atoms: C_4  and  C_5
REMARK    4  A    between atoms: C_8  and  C_9
REMARK    5  A    between atoms: C_19  and  S_20
REMARK    6  A    between atoms: S_20  and  N_23
REMARK    7  A    between atoms: N_23  and  C_24
REMARK                            x       y       z     vdW  Elec       q    Type
REMARK                         _______ _______ _______ _____ _____    ______ ____
ROOT
ATOM      1  O   UNL     1       1.586   7.893  20.425  0.00  0.00    +0.000 OA
ATOM      2  C   UNL     1       1.916   8.182  19.276  0.00  0.00    +0.000 C 
ATOM      3  N   UNL     1       1.579   9.375  18.665  0.00  0.00    +0.000 N 
ATOM      4  H   UNL     1       1.642   9.454  17.660  0.00  0.00    +0.000 HD
ENDROOT
BRANCH   2   5
ATOM      5  C   UNL     1       2.703   7.214  18.476  0.00  0.00    +0.000 A 
ATOM      6  C   UNL     1       3.751   7.682  17.676  0.00  0.00    +0.000 A 
ATOM      7  C   UNL     1       4.507   6.784  16.909  0.00  0.00    +0.000 A 
ATOM      8  C   UNL     1       4.226   5.417  16.951  0.00  0.00    +0.000 A 
ATOM      9  C   UNL     1       3.173   4.960  17.750  0.00  0.00    +0.000 A 
ATOM     10  C   UNL     1       2.397   5.852  18.498  0.00  0.00    +0.000 A 
BRANCH   9  11
ATOM     11  S   UNL     1       2.866   3.226  17.955  0.00  0.00    +0.000 S 
ATOM     12  O   UNL     1       2.291   2.742  16.720  0.00  0.00    +0.000 OA
ATOM     13  O   UNL     1       4.057   2.616  18.510  0.00  0.00    +0.000 OA
BRANCH  11  14
ATOM     14  N   UNL     1       1.658   3.143  19.136  0.00  0.00    +0.000 NA
ATOM     15  H   UNL     1       0.820   2.741  18.710  0.00  0.00    +0.000 HD
BRANCH  14  16
ATOM     16  C   UNL     1       2.045   2.541  20.414  0.00  0.00    +0.000 C 
ATOM     17  C   UNL     1       1.190   2.744  21.633  0.00  0.00    +0.000 C 
ATOM     18  C   UNL     1       2.538   3.398  21.543  0.00  0.00    +0.000 C 
ENDBRANCH  14  16
ENDBRANCH  11  14
ENDBRANCH   9  11
ENDBRANCH   2   5
BRANCH   3  19
ATOM     19  C   UNL     1       0.741  10.327  19.361  0.00  0.00    +0.000 C 
BRANCH  19  20
ATOM     20  C   UNL     1      -0.622  10.464  18.733  0.00  0.00    +0.000 A 
ATOM     21  C   UNL     1      -1.554  11.373  19.251  0.00  0.00    +0.000 A 
ATOM     22  C   UNL     1      -2.785  11.570  18.618  0.00  0.00    +0.000 A 
ATOM     23  C   UNL     1      -3.113  10.861  17.455  0.00  0.00    +0.000 A 
ATOM     24  C   UNL     1      -2.183   9.945  16.940  0.00  0.00    +0.000 A 
ATOM     25  C   UNL     1      -0.951   9.748  17.574  0.00  0.00    +0.000 A 
BRANCH  23  26
ATOM     26  C   UNL     1      -4.432  11.082  16.755  0.00  0.00    +0.000 C 
ATOM     27  F   UNL     1      -4.468  10.577  15.489  0.00  0.00    +0.000 F 
ATOM     28  F   UNL     1      -5.477  10.506  17.413  0.00  0.00    +0.000 F 
ATOM     29  F   UNL     1      -4.746  12.402  16.637  0.00  0.00    +0.000 F 
ENDBRANCH  23  26
ENDBRANCH  19  20
ENDBRANCH   3  19
TORSDOF 7
ENDMDL
MODEL 7
REMARK VINA RESULT:      -7.9      1.313      1.701
REMARK  Name = 
REMARK  7 active torsions:
REMARK  status: ('A' for Active; 'I' for Inactive)
REMARK    1  A    between atoms: C_2  and  C_15
REMARK    2  A    between atoms: N_3  and  C_4
REMARK    3  A    between atoms: C_4  and  C_5
REMARK    4  A    between atoms: C_8  and  C_9
REMARK    5  A    between atoms: C_19  and  S_20
REMARK    6  A    between atoms: S_20  and  N_23
REMARK    7  A    between atoms: N_23  and  C_24
REMARK                            x       y       z     vdW  Elec       q    Type
REMARK                         _______ _______ _______ _____ _____    ______ ____
ROOT
ATOM      1  O   UNL     1       2.962   8.262  17.597  0.00  0.00    +0.000 OA
ATOM      2  C   UNL     1       2.280   8.000  18.587  0.00  0.00    +0.000 C 
ATOM      3  N   UNL     1       1.371   8.882  19.138  0.00  0.00    +0.000 N 
ATOM      4  H   UNL     1       1.036   8.729  20.079  0.00  0.00    +0.000 HD
ENDROOT
BRANCH   2   5
ATOM      5  C   UNL     1       2.432   6.684  19.252  0.00  0.00    +0.000 A 
ATOM      6  C   UNL     1       1.664   6.401  20.387  0.00  0.00    +0.000 A 
ATOM      7  C   UNL     1       1.794   5.164  21.033  0.00  0.00    +0.000 A 
ATOM      8  C   UNL     1       2.680   4.204  20.540  0.00  0.00    +0.000 A 
ATOM      9  C   UNL     1       3.446   4.498  19.408  0.00  0.00    +0.000 A 
ATOM     10  C   UNL     1       3.341   5.741  18.772  0.00  0.00    +0.000 A 
BRANCH   9  11
ATOM     11  S   UNL     1       4.474   3.268  18.653  0.00  0.00    +0.000 S 
ATOM     12  O   UNL     1       5.087   2.507  19.719  0.00  0.00    +0.000 OA
ATOM     13  O   UNL     1       3.708   2.609  17.615  0.00  0.00    +0.000 OA
BRANCH  11  14
ATOM     14  N   UNL     1       5.704   4.147  17.893  0.00  0.00    +0.000 NA
ATOM     15  H   UNL     1       6.589   3.919  18.350  0.00  0.00    +0.000 HD
BRANCH  14  16
ATOM     16  C   UNL     1       5.733   4.083  16.430  0.00  0.00    +0.000 C 
ATOM     17  C   UNL     1       6.827   4.774  15.667  0.00  0.00    +0.000 C 
ATOM     18  C   UNL     1       5.422   5.298  15.607  0.00  0.00    +0.000 C 
ENDBRANCH  14  16
ENDBRANCH  11  14
ENDBRANCH   9  11
ENDBRANCH   2   5
BRANCH   3  19
ATOM     19  C   UNL     1       1.235  10.213  18.587  0.00  0.00    +0.000 C 
BRANCH  19  20
ATOM     20  C   UNL     1      -0.205  10.607  18.378  0.00  0.00    +0.000 A 
ATOM     21  C   UNL     1      -1.031   9.853  17.536  0.00  0.00    +0.000 A 
ATOM     22  C   UNL     1      -2.390  10.159  17.409  0.00  0.00    +0.000 A 
ATOM     23  C   UNL     1      -2.952  11.227  18.121  0.00  0.00    +0.000 A 
ATOM     24  C   UNL     1      -2.122  11.987  18.959  0.00  0.00    +0.000 A 
ATOM     25  C   UNL     1      -0.763  11.681  19.085  0.00  0.00    +0.000 A 
BRANCH  23  26
ATOM     26  C   UNL     1      -4.421  11.552  18.005  0.00  0.00    +0.000 C 
ATOM     27  F   UNL     1      -5.226  10.452  18.030  0.00  0.00    +0.000 F 
ATOM     28  F   UNL     1      -4.861  12.356  19.013  0.00  0.00    +0.000 F 
ATOM     29  F   UNL     1      -4.722  12.205  16.848  0.00  0.00    +0.000 F 
ENDBRANCH  23  26
ENDBRANCH  19  20
ENDBRANCH   3  19
TORSDOF 7
ENDMDL
MODEL 8
REMARK VINA RESULT:      -7.9      2.983      3.893
REMARK  Name = 
REMARK  7 active torsions:
REMARK  status: ('A' for Active; 'I' for Inactive)
REMARK    1  A    between atoms: C_2  and  C_15
REMARK    2  A    between atoms: N_3  and  C_4
REMARK    3  A    between atoms: C_4  and  C_5
REMARK    4  A    between atoms: C_8  and  C_9
REMARK    5  A    between atoms: C_19  and  S_20
REMARK    6  A    between atoms: S_20  and  N_23
REMARK    7  A    between atoms: N_23  and  C_24
REMARK                            x       y       z     vdW  Elec       q    Type
REMARK                         _______ _______ _______ _____ _____    ______ ____
ROOT
ATOM      1  O   UNL     1       2.121   5.121  21.040  0.00  0.00    +0.000 OA
ATOM      2  C   UNL     1       2.524   5.694  20.030  0.00  0.00    +0.000 C 
ATOM      3  N   UNL     1       2.394   7.054  19.825  0.00  0.00    +0.000 N 
ATOM      4  H   UNL     1       2.497   7.429  18.892  0.00  0.00    +0.000 HD
ENDROOT
BRANCH   2   5
ATOM      5  C   UNL     1       3.172   4.909  18.953  0.00  0.00    +0.000 A 
ATOM      6  C   UNL     1       2.713   3.615  18.682  0.00  0.00    +0.000 A 
ATOM      7  C   UNL     1       3.313   2.853  17.669  0.00  0.00    +0.000 A 
ATOM      8  C   UNL     1       4.361   3.387  16.918  0.00  0.00    +0.000 A 
ATOM      9  C   UNL     1       4.816   4.679  17.199  0.00  0.00    +0.000 A 
ATOM     10  C   UNL     1       4.240   5.436  18.226  0.00  0.00    +0.000 A 
BRANCH   9  11
ATOM     11  S   UNL     1       6.042   5.459  16.185  0.00  0.00    +0.000 S 
ATOM     12  O   UNL     1       5.874   6.888  16.329  0.00  0.00    +0.000 OA
ATOM     13  O   UNL     1       7.320   4.830  16.450  0.00  0.00    +0.000 OA
BRANCH  11  14
ATOM     14  N   UNL     1       5.601   5.061  14.600  0.00  0.00    +0.000 NA
ATOM     15  H   UNL     1       5.453   5.928  14.081  0.00  0.00    +0.000 HD
BRANCH  14  16
ATOM     16  C   UNL     1       6.449   4.077  13.923  0.00  0.00    +0.000 C 
ATOM     17  C   UNL     1       7.142   4.436  12.639  0.00  0.00    +0.000 C 
ATOM     18  C   UNL     1       6.010   3.450  12.633  0.00  0.00    +0.000 C 
ENDBRANCH  14  16
ENDBRANCH  11  14
ENDBRANCH   9  11
ENDBRANCH   2   5
BRANCH   3  19
ATOM     19  C   UNL     1       1.696   7.865  20.799  0.00  0.00    +0.000 C 
BRANCH  19  20
ATOM     20  C   UNL     1       0.951   9.013  20.167  0.00  0.00    +0.000 A 
ATOM     21  C   UNL     1       1.153   9.333  18.819  0.00  0.00    +0.000 A 
ATOM     22  C   UNL     1       0.398  10.336  18.203  0.00  0.00    +0.000 A 
ATOM     23  C   UNL     1      -0.574  11.043  18.923  0.00  0.00    +0.000 A 
ATOM     24  C   UNL     1      -0.770  10.728  20.276  0.00  0.00    +0.000 A 
ATOM     25  C   UNL     1      -0.015   9.725  20.892  0.00  0.00    +0.000 A 
BRANCH  23  26
ATOM     26  C   UNL     1      -1.405  12.115  18.262  0.00  0.00    +0.000 C 
ATOM     27  F   UNL     1      -1.975  11.716  17.089  0.00  0.00    +0.000 F 
ATOM     28  F   UNL     1      -2.435  12.539  19.047  0.00  0.00    +0.000 F 
ATOM     29  F   UNL     1      -0.681  13.229  17.962  0.00  0.00    +0.000 F 
ENDBRANCH  23  26
ENDBRANCH  19  20
ENDBRANCH   3  19
TORSDOF 7
ENDMDL
MODEL 9
REMARK VINA RESULT:      -7.9      2.985      3.850
REMARK  Name = 
REMARK  7 active torsions:
REMARK  status: ('A' for Active; 'I' for Inactive)
REMARK    1  A    between atoms: C_2  and  C_15
REMARK    2  A    between atoms: N_3  and  C_4
REMARK    3  A    between atoms: C_4  and  C_5
REMARK    4  A    between atoms: C_8  and  C_9
REMARK    5  A    between atoms: C_19  and  S_20
REMARK    6  A    between atoms: S_20  and  N_23
REMARK    7  A    between atoms: N_23  and  C_24
REMARK                            x       y       z     vdW  Elec       q    Type
REMARK                         _______ _______ _______ _____ _____    ______ ____
ROOT
ATOM      1  O   UNL     1       1.988   5.158  20.922  0.00  0.00    +0.000 OA
ATOM      2  C   UNL     1       2.411   5.843  19.992  0.00  0.00    +0.000 C 
ATOM      3  N   UNL     1       2.276   7.216  19.938  0.00  0.00    +0.000 N 
ATOM      4  H   UNL     1       2.398   7.694  19.055  0.00  0.00    +0.000 HD
ENDROOT
BRANCH   2   5
ATOM      5  C   UNL     1       3.091   5.186  18.851  0.00  0.00    +0.000 A 
ATOM      6  C   UNL     1       2.474   4.098  18.224  0.00  0.00    +0.000 A 
ATOM      7  C   UNL     1       3.100   3.460  17.144  0.00  0.00    +0.000 A 
ATOM      8  C   UNL     1       4.336   3.915  16.681  0.00  0.00    +0.000 A 
ATOM      9  C   UNL     1       4.947   5.001  17.317  0.00  0.00    +0.000 A 
ATOM     10  C   UNL     1       4.341   5.626  18.413  0.00  0.00    +0.000 A 
BRANCH   9  11
ATOM     11  S   UNL     1       6.440   5.712  16.682  0.00  0.00    +0.000 S 
ATOM     12  O   UNL     1       6.457   7.102  17.077  0.00  0.00    +0.000 OA
ATOM     13  O   UNL     1       7.541   4.831  17.015  0.00  0.00    +0.000 OA
BRANCH  11  14
ATOM     14  N   UNL     1       6.251   5.671  15.001  0.00  0.00    +0.000 NA
ATOM     15  H   UNL     1       6.411   6.613  14.638  0.00  0.00    +0.000 HD
BRANCH  14  16
ATOM     16  C   UNL     1       6.974   4.610  14.296  0.00  0.00    +0.000 C 
ATOM     17  C   UNL     1       7.263   4.742  12.827  0.00  0.00    +0.000 C 
ATOM     18  C   UNL     1       6.266   3.729  13.309  0.00  0.00    +0.000 C 
ENDBRANCH  14  16
ENDBRANCH  11  14
ENDBRANCH   9  11
ENDBRANCH   2   5
BRANCH   3  19
ATOM     19  C   UNL     1       1.548   7.910  20.979  0.00  0.00    +0.000 C 
BRANCH  19  20
ATOM     20  C   UNL     1       0.804   9.112  20.459  0.00  0.00    +0.000 A 
ATOM     21  C   UNL     1      -0.070   9.821  21.294  0.00  0.00    +0.000 A 
ATOM     22  C   UNL     1      -0.693  10.990  20.847  0.00  0.00    +0.000 A 
ATOM     23  C   UNL     1      -0.457  11.476  19.553  0.00  0.00    +0.000 A 
ATOM     24  C   UNL     1       0.412  10.762  18.715  0.00  0.00    +0.000 A 
ATOM     25  C   UNL     1       1.035   9.592  19.163  0.00  0.00    +0.000 A 
BRANCH  23  26
ATOM     26  C   UNL     1      -1.111  12.747  19.069  0.00  0.00    +0.000 C 
ATOM     27  F   UNL     1      -1.976  13.293  19.970  0.00  0.00    +0.000 F 
ATOM     28  F   UNL     1      -0.206  13.726  18.785  0.00  0.00    +0.000 F 
ATOM     29  F   UNL     1      -1.832  12.563  17.928  0.00  0.00    +0.000 F 
ENDBRANCH  23  26
ENDBRANCH  19  20
ENDBRANCH   3  19
TORSDOF 7
ENDMDL
