MODEL 1
REMARK VINA RESULT:      -8.9      0.000      0.000
REMARK  Name = 
REMARK  5 active torsions:
REMARK  status: ('A' for Active; 'I' for Inactive)
REMARK    1  A    between atoms: C_9  and  S_10
REMARK    2  A    between atoms: S_10  and  N_13
REMARK    3  A    between atoms: N_13  and  C_14
REMARK    4  A    between atoms: C_17  and  O_18
REMARK    5  A    between atoms: O_18  and  C_19
REMARK                            x       y       z     vdW  Elec       q    Type
REMARK                         _______ _______ _______ _____ _____    ______ ____
ROOT
ATOM      1  S   UNL     1       1.845   4.121  20.730  0.00  0.00    +0.000 S 
ATOM      2  O   UNL     1       0.451   4.178  20.350  0.00  0.00    +0.000 OA
ATOM      3  O   UNL     1       2.337   3.123  21.655  0.00  0.00    +0.000 OA
ENDROOT
BRANCH   1  12
ATOM      4  O   UNL     1       6.655   4.017  14.165  0.00  0.00    +0.000 OA
ATOM      5  C   UNL     1       6.232   4.238  15.300  0.00  0.00    +0.000 C 
ATOM      6  C   UNL     1       6.966   5.098  16.267  0.00  0.00    +0.000 C 
ATOM      7  C   UNL     1       7.358   4.376  17.509  0.00  0.00    +0.000 C 
ATOM      8  O   UNL     1       8.535   4.237  17.847  0.00  0.00    +0.000 OA
ATOM      9  N   UNL     1       6.364   3.983  18.353  0.00  0.00    +0.000 N 
ATOM     10  C   UNL     1       4.976   3.989  18.144  0.00  0.00    +0.000 A 
ATOM     11  C   UNL     1       4.199   4.009  19.310  0.00  0.00    +0.000 A 
ATOM     12  C   UNL     1       2.806   3.965  19.237  0.00  0.00    +0.000 A 
ATOM     13  C   UNL     1       2.166   3.874  18.004  0.00  0.00    +0.000 A 
ATOM     14  C   UNL     1       2.935   3.809  16.840  0.00  0.00    +0.000 A 
ATOM     15  C   UNL     1       4.337   3.895  16.890  0.00  0.00    +0.000 A 
ATOM     16  N   UNL     1       4.989   3.802  15.650  0.00  0.00    +0.000 N 
ATOM     17  H   UNL     1       6.715   3.723  19.268  0.00  0.00    +0.000 HD
ATOM     18  H   UNL     1       4.477   3.429  14.858  0.00  0.00    +0.000 HD
ENDBRANCH   1  12
BRANCH   1  19
ATOM     19  N   UNL     1       2.324   5.621  21.346  0.00  0.00    +0.000 N 
ATOM     20  H   UNL     1       3.295   5.616  21.656  0.00  0.00    +0.000 HD
BRANCH  19  21
ATOM     21  C   UNL     1       1.820   6.800  20.737  0.00  0.00    +0.000 A 
ATOM     22  C   UNL     1       0.944   7.621  21.435  0.00  0.00    +0.000 A 
ATOM     23  C   UNL     1       0.556   8.841  20.880  0.00  0.00    +0.000 A 
ATOM     24  C   UNL     1       1.011   9.246  19.615  0.00  0.00    +0.000 A 
ATOM     25  C   UNL     1       1.879   8.400  18.910  0.00  0.00    +0.000 A 
ATOM     26 CL   UNL     1       2.584   8.792  17.385  0.00  0.00    +0.000 Cl
ATOM     27  C   UNL     1       2.287   7.185  19.481  0.00  0.00    +0.000 A 
BRANCH  24  28
ATOM     28  O   UNL     1       0.612  10.513  19.290  0.00  0.00    +0.000 OA
BRANCH  28  29
ATOM     29  C   UNL     1      -0.531  10.676  18.468  0.00  0.00    +0.000 C 
ATOM     30  F   UNL     1      -0.555   9.711  17.517  0.00  0.00    +0.000 F 
ATOM     31  F   UNL     1      -1.615  10.461  19.261  0.00  0.00    +0.000 F 
ENDBRANCH  28  29
ENDBRANCH  24  28
ENDBRANCH  19  21
ENDBRANCH   1  19
TORSDOF 5
ENDMDL
MODEL 2
REMARK VINA RESULT:      -8.7      1.118      1.511
REMARK  Name = 
REMARK  5 active torsions:
REMARK  status: ('A' for Active; 'I' for Inactive)
REMARK    1  A    between atoms: C_9  and  S_10
REMARK    2  A    between atoms: S_10  and  N_13
REMARK    3  A    between atoms: N_13  and  C_14
REMARK    4  A    between atoms: C_17  and  O_18
REMARK    5  A    between atoms: O_18  and  C_19
REMARK                            x       y       z     vdW  Elec       q    Type
REMARK                         _______ _______ _______ _____ _____    ______ ____
ROOT
ATOM      1  S   UNL     1       1.818   4.453  20.682  0.00  0.00    +0.000 S 
ATOM      2  O   UNL     1       0.434   4.587  20.289  0.00  0.00    +0.000 OA
ATOM      3  O   UNL     1       2.238   3.461  21.649  0.00  0.00    +0.000 OA
ENDROOT
BRANCH   1  12
ATOM      4  O   UNL     1       6.627   3.805  14.147  0.00  0.00    +0.000 OA
ATOM      5  C   UNL     1       6.209   4.109  15.265  0.00  0.00    +0.000 C 
ATOM      6  C   UNL     1       6.965   5.008  16.178  0.00  0.00    +0.000 C 
ATOM      7  C   UNL     1       7.337   4.356  17.463  0.00  0.00    +0.000 C 
ATOM      8  O   UNL     1       8.511   4.206  17.812  0.00  0.00    +0.000 OA
ATOM      9  N   UNL     1       6.333   4.044  18.328  0.00  0.00    +0.000 N 
ATOM     10  C   UNL     1       4.945   4.073  18.117  0.00  0.00    +0.000 A 
ATOM     11  C   UNL     1       4.170   4.188  19.278  0.00  0.00    +0.000 A 
ATOM     12  C   UNL     1       2.775   4.177  19.205  0.00  0.00    +0.000 A 
ATOM     13  C   UNL     1       2.134   4.025  17.978  0.00  0.00    +0.000 A 
ATOM     14  C   UNL     1       2.901   3.866  16.822  0.00  0.00    +0.000 A 
ATOM     15  C   UNL     1       4.305   3.918  16.870  0.00  0.00    +0.000 A 
ATOM     16  N   UNL     1       4.955   3.729  15.639  0.00  0.00    +0.000 N 
ATOM     17  H   UNL     1       6.677   3.833  19.259  0.00  0.00    +0.000 HD
ATOM     18  H   UNL     1       4.433   3.321  14.871  0.00  0.00    +0.000 HD
ENDBRANCH   1  12
BRANCH   1  19
ATOM     19  N   UNL     1       2.392   5.941  21.245  0.00  0.00    +0.000 N 
ATOM     20  H   UNL     1       3.357   5.883  21.565  0.00  0.00    +0.000 HD
BRANCH  19  21
ATOM     21  C   UNL     1       1.973   7.126  20.585  0.00  0.00    +0.000 A 
ATOM     22  C   UNL     1       2.330   7.344  19.261  0.00  0.00    +0.000 A 
ATOM     23  C   UNL     1       1.808   8.445  18.581  0.00  0.00    +0.000 A 
ATOM     24  C   UNL     1       0.948   9.355  19.217  0.00  0.00    +0.000 A 
ATOM     25  C   UNL     1       0.610   9.136  20.559  0.00  0.00    +0.000 A 
ATOM     26 CL   UNL     1      -0.493  10.118  21.450  0.00  0.00    +0.000 Cl
ATOM     27  C   UNL     1       1.117   8.015  21.233  0.00  0.00    +0.000 A 
BRANCH  24  28
ATOM     28  O   UNL     1       0.455  10.302  18.361  0.00  0.00    +0.000 OA
BRANCH  28  29
ATOM     29  C   UNL     1      -0.945  10.354  18.138  0.00  0.00    +0.000 C 
ATOM     30  F   UNL     1      -1.307  11.613  17.792  0.00  0.00    +0.000 F 
ATOM     31  F   UNL     1      -1.195   9.570  17.055  0.00  0.00    +0.000 F 
ENDBRANCH  28  29
ENDBRANCH  24  28
ENDBRANCH  19  21
ENDBRANCH   1  19
TORSDOF 5
ENDMDL
MODEL 3
REMARK VINA RESULT:      -8.6      3.331      6.669
REMARK  Name = 
REMARK  5 active torsions:
REMARK  status: ('A' for Active; 'I' for Inactive)
REMARK    1  A    between atoms: C_9  and  S_10
REMARK    2  A    between atoms: S_10  and  N_13
REMARK    3  A    between atoms: N_13  and  C_14
REMARK    4  A    between atoms: C_17  and  O_18
REMARK    5  A    between atoms: O_18  and  C_19
REMARK                            x       y       z     vdW  Elec       q    Type
REMARK                         _______ _______ _______ _____ _____    ______ ____
ROOT
ATOM      1  S   UNL     1       2.176   3.203  19.167  0.00  0.00    +0.000 S 
ATOM      2  O   UNL     1       1.653   2.827  20.461  0.00  0.00    +0.000 OA
ATOM      3  O   UNL     1       1.597   2.699  17.940  0.00  0.00    +0.000 OA
ENDROOT
BRANCH   1  12
ATOM      4  O   UNL     1       1.394  11.305  19.186  0.00  0.00    +0.000 OA
ATOM      5  C   UNL     1       1.293  10.120  19.508  0.00  0.00    +0.000 C 
ATOM      6  C   UNL     1       0.449   9.677  20.649  0.00  0.00    +0.000 C 
ATOM      7  C   UNL     1       1.224   8.985  21.715  0.00  0.00    +0.000 C 
ATOM      8  O   UNL     1       1.289   9.416  22.869  0.00  0.00    +0.000 OA
ATOM      9  N   UNL     1       1.760   7.769  21.420  0.00  0.00    +0.000 N 
ATOM     10  C   UNL     1       1.855   7.126  20.175  0.00  0.00    +0.000 A 
ATOM     11  C   UNL     1       1.986   5.732  20.235  0.00  0.00    +0.000 A 
ATOM     12  C   UNL     1       2.140   4.982  19.067  0.00  0.00    +0.000 A 
ATOM     13  C   UNL     1       2.194   5.611  17.826  0.00  0.00    +0.000 A 
ATOM     14  C   UNL     1       2.109   7.004  17.763  0.00  0.00    +0.000 A 
ATOM     15  C   UNL     1       1.909   7.772  18.923  0.00  0.00    +0.000 A 
ATOM     16  N   UNL     1       1.856   9.161  18.721  0.00  0.00    +0.000 N 
ATOM     17  H   UNL     1       2.056   7.266  22.249  0.00  0.00    +0.000 HD
ATOM     18  H   UNL     1       2.211   9.540  17.850  0.00  0.00    +0.000 HD
ENDBRANCH   1  12
BRANCH   1  19
ATOM     19  N   UNL     1       3.827   2.843  19.100  0.00  0.00    +0.000 N 
ATOM     20  H   UNL     1       3.996   1.864  18.873  0.00  0.00    +0.000 HD
BRANCH  19  21
ATOM     21  C   UNL     1       4.716   3.817  18.574  0.00  0.00    +0.000 A 
ATOM     22  C   UNL     1       5.379   4.684  19.433  0.00  0.00    +0.000 A 
ATOM     23  C   UNL     1       6.347   5.551  18.922  0.00  0.00    +0.000 A 
ATOM     24  C   UNL     1       6.645   5.584  17.550  0.00  0.00    +0.000 A 
ATOM     25  C   UNL     1       5.955   4.720  16.690  0.00  0.00    +0.000 A 
ATOM     26 CL   UNL     1       6.265   4.589  14.999  0.00  0.00    +0.000 Cl
ATOM     27  C   UNL     1       5.000   3.833  17.210  0.00  0.00    +0.000 A 
BRANCH  24  28
ATOM     28  O   UNL     1       7.692   6.415  17.258  0.00  0.00    +0.000 OA
BRANCH  28  29
ATOM     29  C   UNL     1       7.798   7.646  17.954  0.00  0.00    +0.000 C 
ATOM     30  F   UNL     1       8.797   7.572  18.866  0.00  0.00    +0.000 F 
ATOM     31  F   UNL     1       8.180   8.577  17.040  0.00  0.00    +0.000 F 
ENDBRANCH  28  29
ENDBRANCH  24  28
ENDBRANCH  19  21
ENDBRANCH   1  19
TORSDOF 5
ENDMDL
MODEL 4
REMARK VINA RESULT:      -8.5      1.110      1.138
REMARK  Name = 
REMARK  5 active torsions:
REMARK  status: ('A' for Active; 'I' for Inactive)
REMARK    1  A    between atoms: C_9  and  S_10
REMARK    2  A    between atoms: S_10  and  N_13
REMARK    3  A    between atoms: N_13  and  C_14
REMARK    4  A    between atoms: C_17  and  O_18
REMARK    5  A    between atoms: O_18  and  C_19
REMARK                            x       y       z     vdW  Elec       q    Type
REMARK                         _______ _______ _______ _____ _____    ______ ____
ROOT
ATOM      1  S   UNL     1       1.835   4.512  20.731  0.00  0.00    +0.000 S 
ATOM      2  O   UNL     1       0.442   4.578  20.351  0.00  0.00    +0.000 OA
ATOM      3  O   UNL     1       2.306   3.563  21.718  0.00  0.00    +0.000 OA
ENDROOT
BRANCH   1  12
ATOM      4  O   UNL     1       6.628   3.862  14.185  0.00  0.00    +0.000 OA
ATOM      5  C   UNL     1       6.215   4.160  15.306  0.00  0.00    +0.000 C 
ATOM      6  C   UNL     1       6.985   5.040  16.227  0.00  0.00    +0.000 C 
ATOM      7  C   UNL     1       7.349   4.371  17.505  0.00  0.00    +0.000 C 
ATOM      8  O   UNL     1       8.521   4.202  17.851  0.00  0.00    +0.000 OA
ATOM      9  N   UNL     1       6.342   4.064  18.368  0.00  0.00    +0.000 N 
ATOM     10  C   UNL     1       4.954   4.114  18.159  0.00  0.00    +0.000 A 
ATOM     11  C   UNL     1       4.181   4.228  19.322  0.00  0.00    +0.000 A 
ATOM     12  C   UNL     1       2.787   4.237  19.250  0.00  0.00    +0.000 A 
ATOM     13  C   UNL     1       2.142   4.106  18.023  0.00  0.00    +0.000 A 
ATOM     14  C   UNL     1       2.906   3.947  16.864  0.00  0.00    +0.000 A 
ATOM     15  C   UNL     1       4.311   3.979  16.911  0.00  0.00    +0.000 A 
ATOM     16  N   UNL     1       4.957   3.794  15.678  0.00  0.00    +0.000 N 
ATOM     17  H   UNL     1       6.683   3.840  19.297  0.00  0.00    +0.000 HD
ATOM     18  H   UNL     1       4.429   3.400  14.907  0.00  0.00    +0.000 HD
ENDBRANCH   1  12
BRANCH   1  19
ATOM     19  N   UNL     1       2.352   6.036  21.249  0.00  0.00    +0.000 N 
ATOM     20  H   UNL     1       3.364   6.082  21.353  0.00  0.00    +0.000 HD
BRANCH  19  21
ATOM     21  C   UNL     1       1.673   7.186  20.765  0.00  0.00    +0.000 A 
ATOM     22  C   UNL     1       0.723   7.814  21.560  0.00  0.00    +0.000 A 
ATOM     23  C   UNL     1       0.155   9.015  21.131  0.00  0.00    +0.000 A 
ATOM     24  C   UNL     1       0.505   9.589  19.899  0.00  0.00    +0.000 A 
ATOM     25  C   UNL     1       1.450   8.936  19.096  0.00  0.00    +0.000 A 
ATOM     26 CL   UNL     1       2.038   9.555  17.598  0.00  0.00    +0.000 Cl
ATOM     27  C   UNL     1       2.037   7.741  19.540  0.00  0.00    +0.000 A 
BRANCH  24  28
ATOM     28  O   UNL     1      -0.071  10.814  19.705  0.00  0.00    +0.000 OA
BRANCH  28  29
ATOM     29  C   UNL     1       0.532  11.951  20.300  0.00  0.00    +0.000 C 
ATOM     30  F   UNL     1       1.797  12.097  19.836  0.00  0.00    +0.000 F 
ATOM     31  F   UNL     1      -0.165  13.035  19.864  0.00  0.00    +0.000 F 
ENDBRANCH  28  29
ENDBRANCH  24  28
ENDBRANCH  19  21
ENDBRANCH   1  19
TORSDOF 5
ENDMDL
MODEL 5
REMARK VINA RESULT:      -8.5      3.379      7.194
REMARK  Name = 
REMARK  5 active torsions:
REMARK  status: ('A' for Active; 'I' for Inactive)
REMARK    1  A    between atoms: C_9  and  S_10
REMARK    2  A    between atoms: S_10  and  N_13
REMARK    3  A    between atoms: N_13  and  C_14
REMARK    4  A    between atoms: C_17  and  O_18
REMARK    5  A    between atoms: O_18  and  C_19
REMARK                            x       y       z     vdW  Elec       q    Type
REMARK                         _______ _______ _______ _____ _____    ______ ____
ROOT
ATOM      1  S   UNL     1       2.530   3.769  19.512  0.00  0.00    +0.000 S 
ATOM      2  O   UNL     1       1.857   3.338  20.717  0.00  0.00    +0.000 OA
ATOM      3  O   UNL     1       2.202   3.207  18.219  0.00  0.00    +0.000 OA
ENDROOT
BRANCH   1  12
ATOM      4  O   UNL     1       0.943  11.750  19.346  0.00  0.00    +0.000 OA
ATOM      5  C   UNL     1       0.941  10.565  19.681  0.00  0.00    +0.000 C 
ATOM      6  C   UNL     1       0.077  10.052  20.778  0.00  0.00    +0.000 C 
ATOM      7  C   UNL     1       0.851   9.453  21.900  0.00  0.00    +0.000 C 
ATOM      8  O   UNL     1       0.802   9.901  23.048  0.00  0.00    +0.000 OA
ATOM      9  N   UNL     1       1.523   8.294  21.658  0.00  0.00    +0.000 N 
ATOM     10  C   UNL     1       1.758   7.650  20.432  0.00  0.00    +0.000 A 
ATOM     11  C   UNL     1       2.023   6.277  20.523  0.00  0.00    +0.000 A 
ATOM     12  C   UNL     1       2.323   5.534  19.380  0.00  0.00    +0.000 A 
ATOM     13  C   UNL     1       2.389   6.151  18.134  0.00  0.00    +0.000 A 
ATOM     14  C   UNL     1       2.170   7.527  18.042  0.00  0.00    +0.000 A 
ATOM     15  C   UNL     1       1.824   8.285  19.175  0.00  0.00    +0.000 A 
ATOM     16  N   UNL     1       1.645   9.659  18.946  0.00  0.00    +0.000 N 
ATOM     17  H   UNL     1       1.817   7.832  22.511  0.00  0.00    +0.000 HD
ATOM     18  H   UNL     1       2.013  10.062  18.092  0.00  0.00    +0.000 HD
ENDBRANCH   1  12
BRANCH   1  19
ATOM     19  N   UNL     1       4.200   3.586  19.703  0.00  0.00    +0.000 N 
ATOM     20  H   UNL     1       4.438   2.714  20.173  0.00  0.00    +0.000 HD
BRANCH  19  21
ATOM     21  C   UNL     1       5.058   4.049  18.671  0.00  0.00    +0.000 A 
ATOM     22  C   UNL     1       4.888   3.590  17.371  0.00  0.00    +0.000 A 
ATOM     23  C   UNL     1       5.649   4.146  16.342  0.00  0.00    +0.000 A 
ATOM     24  C   UNL     1       6.605   5.142  16.596  0.00  0.00    +0.000 A 
ATOM     25  C   UNL     1       6.782   5.583  17.914  0.00  0.00    +0.000 A 
ATOM     26 CL   UNL     1       7.857   6.852  18.373  0.00  0.00    +0.000 Cl
ATOM     27  C   UNL     1       5.999   5.041  18.944  0.00  0.00    +0.000 A 
BRANCH  24  28
ATOM     28  O   UNL     1       7.168   5.638  15.453  0.00  0.00    +0.000 OA
BRANCH  28  29
ATOM     29  C   UNL     1       7.262   4.791  14.319  0.00  0.00    +0.000 C 
ATOM     30  F   UNL     1       6.075   4.766  13.666  0.00  0.00    +0.000 F 
ATOM     31  F   UNL     1       8.154   5.373  13.473  0.00  0.00    +0.000 F 
ENDBRANCH  28  29
ENDBRANCH  24  28
ENDBRANCH  19  21
ENDBRANCH   1  19
TORSDOF 5
ENDMDL
MODEL 6
REMARK VINA RESULT:      -8.3      3.138      6.816
REMARK  Name = 
REMARK  5 active torsions:
REMARK  status: ('A' for Active; 'I' for Inactive)
REMARK    1  A    between atoms: C_9  and  S_10
REMARK    2  A    between atoms: S_10  and  N_13
REMARK    3  A    between atoms: N_13  and  C_14
REMARK    4  A    between atoms: C_17  and  O_18
REMARK    5  A    between atoms: O_18  and  C_19
REMARK                            x       y       z     vdW  Elec       q    Type
REMARK                         _______ _______ _______ _____ _____    ______ ____
ROOT
ATOM      1  S   UNL     1       2.631   3.560  19.199  0.00  0.00    +0.000 S 
ATOM      2  O   UNL     1       3.404   3.270  20.387  0.00  0.00    +0.000 OA
ATOM      3  O   UNL     1       1.333   2.961  18.976  0.00  0.00    +0.000 OA
ENDROOT
BRANCH   1  12
ATOM      4  O   UNL     1       1.006  11.535  19.294  0.00  0.00    +0.000 OA
ATOM      5  C   UNL     1       1.028  10.343  19.603  0.00  0.00    +0.000 C 
ATOM      6  C   UNL     1       0.230   9.802  20.736  0.00  0.00    +0.000 C 
ATOM      7  C   UNL     1       1.069   9.184  21.799  0.00  0.00    +0.000 C 
ATOM      8  O   UNL     1       1.084   9.608  22.957  0.00  0.00    +0.000 OA
ATOM      9  N   UNL     1       1.731   8.034  21.494  0.00  0.00    +0.000 N 
ATOM     10  C   UNL     1       1.898   7.417  20.244  0.00  0.00    +0.000 A 
ATOM     11  C   UNL     1       2.174   6.044  20.291  0.00  0.00    +0.000 A 
ATOM     12  C   UNL     1       2.411   5.326  19.117  0.00  0.00    +0.000 A 
ATOM     13  C   UNL     1       2.403   5.971  17.883  0.00  0.00    +0.000 A 
ATOM     14  C   UNL     1       2.173   7.347  17.832  0.00  0.00    +0.000 A 
ATOM     15  C   UNL     1       1.890   8.079  18.999  0.00  0.00    +0.000 A 
ATOM     16  N   UNL     1       1.692   9.456  18.810  0.00  0.00    +0.000 N 
ATOM     17  H   UNL     1       2.074   7.556  22.320  0.00  0.00    +0.000 HD
ATOM     18  H   UNL     1       2.010   9.879  17.945  0.00  0.00    +0.000 HD
ENDBRANCH   1  12
BRANCH   1  19
ATOM     19  N   UNL     1       3.558   3.220  17.826  0.00  0.00    +0.000 N 
ATOM     20  H   UNL     1       2.980   2.952  17.031  0.00  0.00    +0.000 HD
BRANCH  19  21
ATOM     21  C   UNL     1       4.721   3.995  17.580  0.00  0.00    +0.000 A 
ATOM     22  C   UNL     1       4.952   4.514  16.313  0.00  0.00    +0.000 A 
ATOM     23  C   UNL     1       6.027   5.381  16.111  0.00  0.00    +0.000 A 
ATOM     24  C   UNL     1       6.899   5.720  17.159  0.00  0.00    +0.000 A 
ATOM     25  C   UNL     1       6.668   5.174  18.429  0.00  0.00    +0.000 A 
ATOM     26 CL   UNL     1       7.601   5.556  19.829  0.00  0.00    +0.000 Cl
ATOM     27  C   UNL     1       5.573   4.322  18.635  0.00  0.00    +0.000 A 
BRANCH  24  28
ATOM     28  O   UNL     1       7.820   6.663  16.795  0.00  0.00    +0.000 OA
BRANCH  28  29
ATOM     29  C   UNL     1       7.675   7.983  17.292  0.00  0.00    +0.000 C 
ATOM     30  F   UNL     1       6.412   8.166  17.746  0.00  0.00    +0.000 F 
ATOM     31  F   UNL     1       8.492   8.084  18.375  0.00  0.00    +0.000 F 
ENDBRANCH  28  29
ENDBRANCH  24  28
ENDBRANCH  19  21
ENDBRANCH   1  19
TORSDOF 5
ENDMDL
MODEL 7
REMARK VINA RESULT:      -8.2      4.576      7.658
REMARK  Name = 
REMARK  5 active torsions:
REMARK  status: ('A' for Active; 'I' for Inactive)
REMARK    1  A    between atoms: C_9  and  S_10
REMARK    2  A    between atoms: S_10  and  N_13
REMARK    3  A    between atoms: N_13  and  C_14
REMARK    4  A    between atoms: C_17  and  O_18
REMARK    5  A    between atoms: O_18  and  C_19
REMARK                            x       y       z     vdW  Elec       q    Type
REMARK                         _______ _______ _______ _____ _____    ______ ____
ROOT
ATOM      1  S   UNL     1       6.146   6.845  16.419  0.00  0.00    +0.000 S 
ATOM      2  O   UNL     1       5.255   7.230  15.347  0.00  0.00    +0.000 OA
ATOM      3  O   UNL     1       7.036   7.800  17.043  0.00  0.00    +0.000 OA
ENDROOT
BRANCH   1  12
ATOM      4  O   UNL     1       1.669   2.912  21.962  0.00  0.00    +0.000 OA
ATOM      5  C   UNL     1       2.453   3.137  21.039  0.00  0.00    +0.000 C 
ATOM      6  C   UNL     1       3.091   2.046  20.256  0.00  0.00    +0.000 C 
ATOM      7  C   UNL     1       4.576   2.054  20.345  0.00  0.00    +0.000 C 
ATOM      8  O   UNL     1       5.215   1.109  20.814  0.00  0.00    +0.000 OA
ATOM      9  N   UNL     1       5.239   3.091  19.762  0.00  0.00    +0.000 N 
ATOM     10  C   UNL     1       4.721   4.283  19.231  0.00  0.00    +0.000 A 
ATOM     11  C   UNL     1       5.535   4.914  18.281  0.00  0.00    +0.000 A 
ATOM     12  C   UNL     1       5.154   6.133  17.716  0.00  0.00    +0.000 A 
ATOM     13  C   UNL     1       3.972   6.754  18.110  0.00  0.00    +0.000 A 
ATOM     14  C   UNL     1       3.178   6.153  19.089  0.00  0.00    +0.000 A 
ATOM     15  C   UNL     1       3.522   4.905  19.637  0.00  0.00    +0.000 A 
ATOM     16  N   UNL     1       2.646   4.420  20.622  0.00  0.00    +0.000 N 
ATOM     17  H   UNL     1       6.231   2.904  19.655  0.00  0.00    +0.000 HD
ATOM     18  H   UNL     1       2.001   5.067  21.060  0.00  0.00    +0.000 HD
ENDBRANCH   1  12
BRANCH   1  19
ATOM     19  N   UNL     1       7.111   5.552  15.912  0.00  0.00    +0.000 N 
ATOM     20  H   UNL     1       7.533   5.059  16.698  0.00  0.00    +0.000 HD
BRANCH  19  21
ATOM     21  C   UNL     1       6.697   4.793  14.787  0.00  0.00    +0.000 A 
ATOM     22  C   UNL     1       5.650   3.889  14.909  0.00  0.00    +0.000 A 
ATOM     23  C   UNL     1       5.164   3.242  13.772  0.00  0.00    +0.000 A 
ATOM     24  C   UNL     1       5.730   3.467  12.506  0.00  0.00    +0.000 A 
ATOM     25  C   UNL     1       6.799   4.366  12.398  0.00  0.00    +0.000 A 
ATOM     26 CL   UNL     1       7.546   4.805  10.906  0.00  0.00    +0.000 Cl
ATOM     27  C   UNL     1       7.270   5.032  13.539  0.00  0.00    +0.000 A 
BRANCH  24  28
ATOM     28  O   UNL     1       5.051   2.831  11.504  0.00  0.00    +0.000 OA
BRANCH  28  29
ATOM     29  C   UNL     1       3.741   3.271  11.184  0.00  0.00    +0.000 C 
ATOM     30  F   UNL     1       3.806   4.382  10.411  0.00  0.00    +0.000 F 
ATOM     31  F   UNL     1       3.181   2.299  10.415  0.00  0.00    +0.000 F 
ENDBRANCH  28  29
ENDBRANCH  24  28
ENDBRANCH  19  21
ENDBRANCH   1  19
TORSDOF 5
ENDMDL
MODEL 8
REMARK VINA RESULT:      -8.2      1.034      1.089
REMARK  Name = 
REMARK  5 active torsions:
REMARK  status: ('A' for Active; 'I' for Inactive)
REMARK    1  A    between atoms: C_9  and  S_10
REMARK    2  A    between atoms: S_10  and  N_13
REMARK    3  A    between atoms: N_13  and  C_14
REMARK    4  A    between atoms: C_17  and  O_18
REMARK    5  A    between atoms: O_18  and  C_19
REMARK                            x       y       z     vdW  Elec       q    Type
REMARK                         _______ _______ _______ _____ _____    ______ ____
ROOT
ATOM      1  S   UNL     1       1.744   4.489  20.696  0.00  0.00    +0.000 S 
ATOM      2  O   UNL     1       0.496   4.541  19.970  0.00  0.00    +0.000 OA
ATOM      3  O   UNL     1       1.986   3.492  21.717  0.00  0.00    +0.000 OA
ENDROOT
BRANCH   1  12
ATOM      4  O   UNL     1       7.823   4.586  15.284  0.00  0.00    +0.000 OA
ATOM      5  C   UNL     1       7.058   4.923  16.189  0.00  0.00    +0.000 C 
ATOM      6  C   UNL     1       7.126   6.265  16.826  0.00  0.00    +0.000 C 
ATOM      7  C   UNL     1       7.408   6.205  18.286  0.00  0.00    +0.000 C 
ATOM      8  O   UNL     1       8.414   6.715  18.786  0.00  0.00    +0.000 OA
ATOM      9  N   UNL     1       6.447   5.682  19.096  0.00  0.00    +0.000 N 
ATOM     10  C   UNL     1       5.269   5.003  18.743  0.00  0.00    +0.000 A 
ATOM     11  C   UNL     1       4.258   5.022  19.713  0.00  0.00    +0.000 A 
ATOM     12  C   UNL     1       3.058   4.341  19.502  0.00  0.00    +0.000 A 
ATOM     13  C   UNL     1       2.859   3.608  18.335  0.00  0.00    +0.000 A 
ATOM     14  C   UNL     1       3.879   3.548  17.383  0.00  0.00    +0.000 A 
ATOM     15  C   UNL     1       5.077   4.263  17.558  0.00  0.00    +0.000 A 
ATOM     16  N   UNL     1       6.025   4.104  16.534  0.00  0.00    +0.000 N 
ATOM     17  H   UNL     1       6.608   5.894  20.075  0.00  0.00    +0.000 HD
ATOM     18  H   UNL     1       5.925   3.324  15.895  0.00  0.00    +0.000 HD
ENDBRANCH   1  12
BRANCH   1  19
ATOM     19  N   UNL     1       2.041   5.991  21.416  0.00  0.00    +0.000 N 
ATOM     20  H   UNL     1       2.975   6.043  21.822  0.00  0.00    +0.000 HD
BRANCH  19  21
ATOM     21  C   UNL     1       1.509   7.156  20.805  0.00  0.00    +0.000 A 
ATOM     22  C   UNL     1       0.543   7.905  21.466  0.00  0.00    +0.000 A 
ATOM     23  C   UNL     1       0.120   9.116  20.917  0.00  0.00    +0.000 A 
ATOM     24  C   UNL     1       0.631   9.583  19.695  0.00  0.00    +0.000 A 
ATOM     25  C   UNL     1       1.589   8.810  19.027  0.00  0.00    +0.000 A 
ATOM     26 CL   UNL     1       2.366   9.285  17.563  0.00  0.00    +0.000 Cl
ATOM     27  C   UNL     1       2.031   7.604  19.592  0.00  0.00    +0.000 A 
BRANCH  24  28
ATOM     28  O   UNL     1       0.179  10.834  19.378  0.00  0.00    +0.000 OA
BRANCH  28  29
ATOM     29  C   UNL     1      -0.941  10.955  18.516  0.00  0.00    +0.000 C 
ATOM     30  F   UNL     1      -1.112   9.804  17.821  0.00  0.00    +0.000 F 
ATOM     31  F   UNL     1      -2.034  11.087  19.315  0.00  0.00    +0.000 F 
ENDBRANCH  28  29
ENDBRANCH  24  28
ENDBRANCH  19  21
ENDBRANCH   1  19
TORSDOF 5
ENDMDL
MODEL 9
REMARK VINA RESULT:      -8.1      3.798      7.949
REMARK  Name = 
REMARK  5 active torsions:
REMARK  status: ('A' for Active; 'I' for Inactive)
REMARK    1  A    between atoms: C_9  and  S_10
REMARK    2  A    between atoms: S_10  and  N_13
REMARK    3  A    between atoms: N_13  and  C_14
REMARK    4  A    between atoms: C_17  and  O_18
REMARK    5  A    between atoms: O_18  and  C_19
REMARK                            x       y       z     vdW  Elec       q    Type
REMARK                         _______ _______ _______ _____ _____    ______ ____
ROOT
ATOM      1  S   UNL     1       2.876   4.937  19.133  0.00  0.00    +0.000 S 
ATOM      2  O   UNL     1       4.177   4.806  19.749  0.00  0.00    +0.000 OA
ATOM      3  O   UNL     1       1.761   4.107  19.537  0.00  0.00    +0.000 OA
ENDROOT
BRANCH   1  12
ATOM      4  O   UNL     1      -0.103  12.407  20.385  0.00  0.00    +0.000 OA
ATOM      5  C   UNL     1       0.110  11.199  20.499  0.00  0.00    +0.000 C 
ATOM      6  C   UNL     1      -0.636  10.351  21.467  0.00  0.00    +0.000 C 
ATOM      7  C   UNL     1       0.246   9.704  22.477  0.00  0.00    +0.000 C 
ATOM      8  O   UNL     1       0.132   9.920  23.686  0.00  0.00    +0.000 OA
ATOM      9  N   UNL     1       1.109   8.746  22.043  0.00  0.00    +0.000 N 
ATOM     10  C   UNL     1       1.440   8.387  20.726  0.00  0.00    +0.000 A 
ATOM     11  C   UNL     1       1.945   7.090  20.572  0.00  0.00    +0.000 A 
ATOM     12  C   UNL     1       2.358   6.631  19.319  0.00  0.00    +0.000 A 
ATOM     13  C   UNL     1       2.298   7.467  18.208  0.00  0.00    +0.000 A 
ATOM     14  C   UNL     1       1.837   8.776  18.362  0.00  0.00    +0.000 A 
ATOM     15  C   UNL     1       1.376   9.242  19.606  0.00  0.00    +0.000 A 
ATOM     16  N   UNL     1       0.954  10.581  19.627  0.00  0.00    +0.000 N 
ATOM     17  H   UNL     1       1.491   8.195  22.804  0.00  0.00    +0.000 HD
ATOM     18  H   UNL     1       1.234  11.191  18.867  0.00  0.00    +0.000 HD
ENDBRANCH   1  12
BRANCH   1  19
ATOM     19  N   UNL     1       3.024   4.757  17.458  0.00  0.00    +0.000 N 
ATOM     20  H   UNL     1       2.260   5.206  16.956  0.00  0.00    +0.000 HD
BRANCH  19  21
ATOM     21  C   UNL     1       4.321   4.795  16.882  0.00  0.00    +0.000 A 
ATOM     22  C   UNL     1       4.669   3.876  15.900  0.00  0.00    +0.000 A 
ATOM     23  C   UNL     1       5.897   4.001  15.247  0.00  0.00    +0.000 A 
ATOM     24  C   UNL     1       6.801   5.022  15.582  0.00  0.00    +0.000 A 
ATOM     25  C   UNL     1       6.448   5.931  16.588  0.00  0.00    +0.000 A 
ATOM     26 CL   UNL     1       7.415   7.280  17.055  0.00  0.00    +0.000 Cl
ATOM     27  C   UNL     1       5.203   5.818  17.226  0.00  0.00    +0.000 A 
BRANCH  24  28
ATOM     28  O   UNL     1       7.895   5.047  14.762  0.00  0.00    +0.000 OA
BRANCH  28  29
ATOM     29  C   UNL     1       7.741   5.526  13.436  0.00  0.00    +0.000 C 
ATOM     30  F   UNL     1       8.935   5.956  12.961  0.00  0.00    +0.000 F 
ATOM     31  F   UNL     1       7.387   4.456  12.675  0.00  0.00    +0.000 F 
ENDBRANCH  28  29
ENDBRANCH  24  28
ENDBRANCH  19  21
ENDBRANCH   1  19
TORSDOF 5
ENDMDL
