MODEL 1
REMARK VINA RESULT:      -8.1      0.000      0.000
REMARK  Name = 
REMARK  4 active torsions:
REMARK  status: ('A' for Active; 'I' for Inactive)
REMARK    1  A    between atoms: C_1  and  C_2
REMARK    2  A    between atoms: C_2  and  C_3
REMARK    3  A    between atoms: N_16  and  C_17
REMARK    4  A    between atoms: C_17  and  C_18
REMARK                            x       y       z     vdW  Elec       q    Type
REMARK                         _______ _______ _______ _____ _____    ______ ____
ROOT
ATOM      1  C   UNL     1       1.485  12.112  19.401  0.00  0.00    +0.000 C 
ATOM      2  C   UNL     1       0.945  10.701  19.229  0.00  0.00    +0.000 C 
ATOM      3  N   UNL     1       1.131   9.896  20.437  0.00  0.00    +0.000 N 
ATOM      4  C   UNL     1       1.345   8.570  20.115  0.00  0.00    +0.000 C 
ATOM      5  O   UNL     1       1.267   7.655  20.918  0.00  0.00    +0.000 OA
ATOM      6  N   UNL     1       1.655   8.507  18.800  0.00  0.00    +0.000 N 
ATOM      7  C   UNL     1       1.816   9.781  18.338  0.00  0.00    +0.000 C 
ATOM      8  O   UNL     1       2.500  10.125  17.385  0.00  0.00    +0.000 OA
ATOM      9  H   UNL     1       0.776  10.124  21.354  0.00  0.00    +0.000 HD
ENDROOT
BRANCH   2  10
ATOM     10  C   UNL     1      -0.552  10.717  18.803  0.00  0.00    +0.000 A 
ATOM     11  C   UNL     1      -0.905   9.975  17.650  0.00  0.00    +0.000 A 
ATOM     12  C   UNL     1      -2.190  10.003  17.124  0.00  0.00    +0.000 A 
ATOM     13  C   UNL     1      -3.167  10.777  17.734  0.00  0.00    +0.000 A 
ATOM     14  C   UNL     1      -2.889  11.502  18.898  0.00  0.00    +0.000 A 
ATOM     15  C   UNL     1      -3.917  12.269  19.470  0.00  0.00    +0.000 A 
ATOM     16  C   UNL     1      -3.710  13.001  20.632  0.00  0.00    +0.000 A 
ATOM     17  C   UNL     1      -2.479  12.936  21.257  0.00  0.00    +0.000 A 
ATOM     18  C   UNL     1      -1.456  12.155  20.707  0.00  0.00    +0.000 A 
ATOM     19  C   UNL     1      -1.589  11.454  19.482  0.00  0.00    +0.000 A 
ENDBRANCH   2  10
BRANCH   6  20
ATOM     20  C   UNL     1       1.736   7.315  17.988  0.00  0.00    +0.000 C 
BRANCH  20  21
ATOM     21  C   UNL     1       3.044   6.570  18.066  0.00  0.00    +0.000 A 
ATOM     22  C   UNL     1       4.191   7.138  17.482  0.00  0.00    +0.000 A 
ATOM     23  C   UNL     1       5.415   6.488  17.561  0.00  0.00    +0.000 A 
ATOM     24  C   UNL     1       5.502   5.265  18.218  0.00  0.00    +0.000 A 
ATOM     25  C   UNL     1       4.367   4.701  18.823  0.00  0.00    +0.000 A 
ATOM     26  C   UNL     1       4.448   3.483  19.513  0.00  0.00    +0.000 A 
ATOM     27  C   UNL     1       3.324   2.957  20.136  0.00  0.00    +0.000 A 
ATOM     28  C   UNL     1       2.150   3.675  20.051  0.00  0.00    +0.000 A 
ATOM     29  N   UNL     1       2.035   4.849  19.392  0.00  0.00    +0.000 NA
ATOM     30  C   UNL     1       3.120   5.359  18.766  0.00  0.00    +0.000 A 
ENDBRANCH  20  21
ENDBRANCH   6  20
TORSDOF 3
ENDMDL
MODEL 2
REMARK VINA RESULT:      -8.0      6.194     10.261
REMARK  Name = 
REMARK  4 active torsions:
REMARK  status: ('A' for Active; 'I' for Inactive)
REMARK    1  A    between atoms: C_1  and  C_2
REMARK    2  A    between atoms: C_2  and  C_3
REMARK    3  A    between atoms: N_16  and  C_17
REMARK    4  A    between atoms: C_17  and  C_18
REMARK                            x       y       z     vdW  Elec       q    Type
REMARK                         _______ _______ _______ _____ _____    ______ ____
ROOT
ATOM      1  C   UNL     1      -6.432  13.119  17.746  0.00  0.00    +0.000 C 
ATOM      2  C   UNL     1      -6.164  12.614  19.155  0.00  0.00    +0.000 C 
ATOM      3  N   UNL     1      -6.830  11.337  19.412  0.00  0.00    +0.000 N 
ATOM      4  C   UNL     1      -7.213  11.240  20.736  0.00  0.00    +0.000 C 
ATOM      5  O   UNL     1      -7.543  10.195  21.272  0.00  0.00    +0.000 OA
ATOM      6  N   UNL     1      -7.162  12.480  21.274  0.00  0.00    +0.000 N 
ATOM      7  C   UNL     1      -6.929  13.372  20.268  0.00  0.00    +0.000 C 
ATOM      8  O   UNL     1      -7.246  14.553  20.261  0.00  0.00    +0.000 OA
ATOM      9  H   UNL     1      -6.697  10.489  18.879  0.00  0.00    +0.000 HD
ENDROOT
BRANCH   2  10
ATOM     10  C   UNL     1      -4.637  12.506  19.436  0.00  0.00    +0.000 A 
ATOM     11  C   UNL     1      -4.096  13.372  20.417  0.00  0.00    +0.000 A 
ATOM     12  C   UNL     1      -2.732  13.431  20.672  0.00  0.00    +0.000 A 
ATOM     13  C   UNL     1      -1.861  12.624  19.953  0.00  0.00    +0.000 A 
ATOM     14  C   UNL     1      -2.340  11.721  18.998  0.00  0.00    +0.000 A 
ATOM     15  C   UNL     1      -1.411  10.931  18.300  0.00  0.00    +0.000 A 
ATOM     16  C   UNL     1      -1.821  10.007  17.348  0.00  0.00    +0.000 A 
ATOM     17  C   UNL     1      -3.173   9.833  17.118  0.00  0.00    +0.000 A 
ATOM     18  C   UNL     1      -4.106  10.598  17.827  0.00  0.00    +0.000 A 
ATOM     19  C   UNL     1      -3.739  11.611  18.749  0.00  0.00    +0.000 A 
ENDBRANCH   2  10
BRANCH   6  20
ATOM     20  C   UNL     1      -7.261  12.817  22.675  0.00  0.00    +0.000 C 
BRANCH  20  21
ATOM     21  C   UNL     1      -5.969  13.241  23.327  0.00  0.00    +0.000 A 
ATOM     22  C   UNL     1      -4.991  12.269  23.603  0.00  0.00    +0.000 A 
ATOM     23  C   UNL     1      -3.781  12.633  24.179  0.00  0.00    +0.000 A 
ATOM     24  C   UNL     1      -3.542  13.968  24.488  0.00  0.00    +0.000 A 
ATOM     25  C   UNL     1      -4.504  14.949  24.196  0.00  0.00    +0.000 A 
ATOM     26  C   UNL     1      -4.264  16.301  24.476  0.00  0.00    +0.000 A 
ATOM     27  C   UNL     1      -5.211  17.262  24.149  0.00  0.00    +0.000 A 
ATOM     28  C   UNL     1      -6.373  16.834  23.543  0.00  0.00    +0.000 A 
ATOM     29  N   UNL     1      -6.641  15.540  23.262  0.00  0.00    +0.000 NA
ATOM     30  C   UNL     1      -5.732  14.595  23.595  0.00  0.00    +0.000 A 
ENDBRANCH  20  21
ENDBRANCH   6  20
TORSDOF 3
ENDMDL
MODEL 3
REMARK VINA RESULT:      -7.9      4.401      8.449
REMARK  Name = 
REMARK  4 active torsions:
REMARK  status: ('A' for Active; 'I' for Inactive)
REMARK    1  A    between atoms: C_1  and  C_2
REMARK    2  A    between atoms: C_2  and  C_3
REMARK    3  A    between atoms: N_16  and  C_17
REMARK    4  A    between atoms: C_17  and  C_18
REMARK                            x       y       z     vdW  Elec       q    Type
REMARK                         _______ _______ _______ _____ _____    ______ ____
ROOT
ATOM      1  C   UNL     1      -0.320   9.795  20.373  0.00  0.00    +0.000 C 
ATOM      2  C   UNL     1      -0.357  11.245  19.916  0.00  0.00    +0.000 C 
ATOM      3  N   UNL     1       0.563  11.488  18.803  0.00  0.00    +0.000 N 
ATOM      4  C   UNL     1       1.077  12.769  18.863  0.00  0.00    +0.000 C 
ATOM      5  O   UNL     1       1.649  13.314  17.933  0.00  0.00    +0.000 OA
ATOM      6  N   UNL     1       0.840  13.255  20.102  0.00  0.00    +0.000 N 
ATOM      7  C   UNL     1       0.348  12.240  20.871  0.00  0.00    +0.000 C 
ATOM      8  O   UNL     1       0.430  12.148  22.088  0.00  0.00    +0.000 OA
ATOM      9  H   UNL     1       0.547  11.010  17.914  0.00  0.00    +0.000 HD
ENDROOT
BRANCH   2  10
ATOM     10  C   UNL     1      -1.802  11.684  19.542  0.00  0.00    +0.000 A 
ATOM     11  C   UNL     1      -2.526  12.422  20.511  0.00  0.00    +0.000 A 
ATOM     12  C   UNL     1      -3.856  12.775  20.323  0.00  0.00    +0.000 A 
ATOM     13  C   UNL     1      -4.508  12.400  19.157  0.00  0.00    +0.000 A 
ATOM     14  C   UNL     1      -3.836  11.705  18.147  0.00  0.00    +0.000 A 
ATOM     15  C   UNL     1      -4.549  11.351  16.989  0.00  0.00    +0.000 A 
ATOM     16  C   UNL     1      -3.938  10.671  15.944  0.00  0.00    +0.000 A 
ATOM     17  C   UNL     1      -2.589  10.377  16.031  0.00  0.00    +0.000 A 
ATOM     18  C   UNL     1      -1.866  10.747  17.170  0.00  0.00    +0.000 A 
ATOM     19  C   UNL     1      -2.458  11.369  18.298  0.00  0.00    +0.000 A 
ENDBRANCH   2  10
BRANCH   6  20
ATOM     20  C   UNL     1       1.000  14.622  20.539  0.00  0.00    +0.000 C 
BRANCH  20  21
ATOM     21  C   UNL     1      -0.047  15.584  20.038  0.00  0.00    +0.000 A 
ATOM     22  C   UNL     1      -1.314  15.596  20.648  0.00  0.00    +0.000 A 
ATOM     23  C   UNL     1      -2.290  16.490  20.227  0.00  0.00    +0.000 A 
ATOM     24  C   UNL     1      -2.008  17.373  19.190  0.00  0.00    +0.000 A 
ATOM     25  C   UNL     1      -0.739  17.384  18.588  0.00  0.00    +0.000 A 
ATOM     26  C   UNL     1      -0.435  18.288  17.562  0.00  0.00    +0.000 A 
ATOM     27  C   UNL     1       0.836  18.310  17.003  0.00  0.00    +0.000 A 
ATOM     28  C   UNL     1       1.767  17.422  17.497  0.00  0.00    +0.000 A 
ATOM     29  N   UNL     1       1.508  16.534  18.482  0.00  0.00    +0.000 NA
ATOM     30  C   UNL     1       0.268  16.493  19.019  0.00  0.00    +0.000 A 
ENDBRANCH  20  21
ENDBRANCH   6  20
TORSDOF 3
ENDMDL
MODEL 4
REMARK VINA RESULT:      -7.8      5.154      8.059
REMARK  Name = 
REMARK  4 active torsions:
REMARK  status: ('A' for Active; 'I' for Inactive)
REMARK    1  A    between atoms: C_1  and  C_2
REMARK    2  A    between atoms: C_2  and  C_3
REMARK    3  A    between atoms: N_16  and  C_17
REMARK    4  A    between atoms: C_17  and  C_18
REMARK                            x       y       z     vdW  Elec       q    Type
REMARK                         _______ _______ _______ _____ _____    ______ ____
ROOT
ATOM      1  C   UNL     1      -4.059  13.019  21.901  0.00  0.00    +0.000 C 
ATOM      2  C   UNL     1      -2.603  13.246  22.276  0.00  0.00    +0.000 C 
ATOM      3  N   UNL     1      -2.464  13.716  23.655  0.00  0.00    +0.000 N 
ATOM      4  C   UNL     1      -1.384  14.570  23.776  0.00  0.00    +0.000 C 
ATOM      5  O   UNL     1      -0.890  14.891  24.844  0.00  0.00    +0.000 OA
ATOM      6  N   UNL     1      -1.025  14.963  22.533  0.00  0.00    +0.000 N 
ATOM      7  C   UNL     1      -1.967  14.515  21.654  0.00  0.00    +0.000 C 
ATOM      8  O   UNL     1      -2.240  15.010  20.570  0.00  0.00    +0.000 OA
ATOM      9  H   UNL     1      -2.797  13.232  24.476  0.00  0.00    +0.000 HD
ENDROOT
BRANCH   2  10
ATOM     10  C   UNL     1      -1.752  11.965  22.042  0.00  0.00    +0.000 A 
ATOM     11  C   UNL     1      -1.373  11.220  23.186  0.00  0.00    +0.000 A 
ATOM     12  C   UNL     1      -0.530  10.120  23.100  0.00  0.00    +0.000 A 
ATOM     13  C   UNL     1      -0.035   9.727  21.865  0.00  0.00    +0.000 A 
ATOM     14  C   UNL     1      -0.404  10.398  20.695  0.00  0.00    +0.000 A 
ATOM     15  C   UNL     1       0.130   9.956  19.473  0.00  0.00    +0.000 A 
ATOM     16  C   UNL     1      -0.205  10.571  18.274  0.00  0.00    +0.000 A 
ATOM     17  C   UNL     1      -1.116  11.611  18.283  0.00  0.00    +0.000 A 
ATOM     18  C   UNL     1      -1.672  12.042  19.493  0.00  0.00    +0.000 A 
ATOM     19  C   UNL     1      -1.303  11.504  20.751  0.00  0.00    +0.000 A 
ENDBRANCH   2  10
BRANCH   6  20
ATOM     20  C   UNL     1       0.181  15.669  22.166  0.00  0.00    +0.000 C 
BRANCH  20  21
ATOM     21  C   UNL     1       1.049  14.975  21.147  0.00  0.00    +0.000 A 
ATOM     22  C   UNL     1       1.370  13.619  21.333  0.00  0.00    +0.000 A 
ATOM     23  C   UNL     1       2.146  12.946  20.398  0.00  0.00    +0.000 A 
ATOM     24  C   UNL     1       2.610  13.624  19.276  0.00  0.00    +0.000 A 
ATOM     25  C   UNL     1       2.276  14.973  19.071  0.00  0.00    +0.000 A 
ATOM     26  C   UNL     1       2.714  15.659  17.930  0.00  0.00    +0.000 A 
ATOM     27  C   UNL     1       2.344  16.982  17.725  0.00  0.00    +0.000 A 
ATOM     28  C   UNL     1       1.541  17.576  18.674  0.00  0.00    +0.000 A 
ATOM     29  N   UNL     1       1.104  16.947  19.787  0.00  0.00    +0.000 NA
ATOM     30  C   UNL     1       1.474  15.664  20.004  0.00  0.00    +0.000 A 
ENDBRANCH  20  21
ENDBRANCH   6  20
TORSDOF 3
ENDMDL
MODEL 5
REMARK VINA RESULT:      -7.8      3.948      7.699
REMARK  Name = 
REMARK  4 active torsions:
REMARK  status: ('A' for Active; 'I' for Inactive)
REMARK    1  A    between atoms: C_1  and  C_2
REMARK    2  A    between atoms: C_2  and  C_3
REMARK    3  A    between atoms: N_16  and  C_17
REMARK    4  A    between atoms: C_17  and  C_18
REMARK                            x       y       z     vdW  Elec       q    Type
REMARK                         _______ _______ _______ _____ _____    ______ ____
ROOT
ATOM      1  C   UNL     1      -0.359   9.043  20.290  0.00  0.00    +0.000 C 
ATOM      2  C   UNL     1      -0.131  10.481  19.850  0.00  0.00    +0.000 C 
ATOM      3  N   UNL     1       0.838  10.569  18.757  0.00  0.00    +0.000 N 
ATOM      4  C   UNL     1       1.567  11.739  18.841  0.00  0.00    +0.000 C 
ATOM      5  O   UNL     1       2.244  12.184  17.928  0.00  0.00    +0.000 OA
ATOM      6  N   UNL     1       1.394  12.248  20.082  0.00  0.00    +0.000 N 
ATOM      7  C   UNL     1       0.718  11.328  20.830  0.00  0.00    +0.000 C 
ATOM      8  O   UNL     1       0.759  11.213  22.046  0.00  0.00    +0.000 OA
ATOM      9  H   UNL     1       0.755  10.108  17.863  0.00  0.00    +0.000 HD
ENDROOT
BRANCH   2  10
ATOM     10  C   UNL     1      -1.470  11.170  19.457  0.00  0.00    +0.000 A 
ATOM     11  C   UNL     1      -2.039  12.065  20.396  0.00  0.00    +0.000 A 
ATOM     12  C   UNL     1      -3.280  12.654  20.190  0.00  0.00    +0.000 A 
ATOM     13  C   UNL     1      -3.996  12.366  19.037  0.00  0.00    +0.000 A 
ATOM     14  C   UNL     1      -3.470  11.520  18.055  0.00  0.00    +0.000 A 
ATOM     15  C   UNL     1      -4.241  11.265  16.909  0.00  0.00    +0.000 A 
ATOM     16  C   UNL     1      -3.773  10.444  15.892  0.00  0.00    +0.000 A 
ATOM     17  C   UNL     1      -2.503   9.905  15.993  0.00  0.00    +0.000 A 
ATOM     18  C   UNL     1      -1.718  10.175  17.121  0.00  0.00    +0.000 A 
ATOM     19  C   UNL     1      -2.179  10.938  18.222  0.00  0.00    +0.000 A 
ENDBRANCH   2  10
BRANCH   6  20
ATOM     20  C   UNL     1       1.782  13.562  20.537  0.00  0.00    +0.000 C 
BRANCH  20  21
ATOM     21  C   UNL     1       0.992  14.706  19.954  0.00  0.00    +0.000 A 
ATOM     22  C   UNL     1      -0.309  14.950  20.427  0.00  0.00    +0.000 A 
ATOM     23  C   UNL     1      -1.052  16.012  19.927  0.00  0.00    +0.000 A 
ATOM     24  C   UNL     1      -0.501  16.833  18.949  0.00  0.00    +0.000 A 
ATOM     25  C   UNL     1       0.805  16.610  18.485  0.00  0.00    +0.000 A 
ATOM     26  C   UNL     1       1.381  17.448  17.520  0.00  0.00    +0.000 A 
ATOM     27  C   UNL     1       2.687  17.235  17.099  0.00  0.00    +0.000 A 
ATOM     28  C   UNL     1       3.379  16.186  17.666  0.00  0.00    +0.000 A 
ATOM     29  N   UNL     1       2.856  15.357  18.595  0.00  0.00    +0.000 NA
ATOM     30  C   UNL     1       1.578  15.545  18.997  0.00  0.00    +0.000 A 
ENDBRANCH  20  21
ENDBRANCH   6  20
TORSDOF 3
ENDMDL
MODEL 6
REMARK VINA RESULT:      -7.8      3.212      9.120
REMARK  Name = 
REMARK  4 active torsions:
REMARK  status: ('A' for Active; 'I' for Inactive)
REMARK    1  A    between atoms: C_1  and  C_2
REMARK    2  A    between atoms: C_2  and  C_3
REMARK    3  A    between atoms: N_16  and  C_17
REMARK    4  A    between atoms: C_17  and  C_18
REMARK                            x       y       z     vdW  Elec       q    Type
REMARK                         _______ _______ _______ _____ _____    ______ ____
ROOT
ATOM      1  C   UNL     1       0.546  13.091  19.174  0.00  0.00    +0.000 C 
ATOM      2  C   UNL     1      -0.535  12.024  19.096  0.00  0.00    +0.000 C 
ATOM      3  N   UNL     1      -0.864  11.683  17.712  0.00  0.00    +0.000 N 
ATOM      4  C   UNL     1      -2.199  11.345  17.594  0.00  0.00    +0.000 C 
ATOM      5  O   UNL     1      -2.671  10.774  16.624  0.00  0.00    +0.000 OA
ATOM      6  N   UNL     1      -2.835  11.772  18.709  0.00  0.00    +0.000 N 
ATOM      7  C   UNL     1      -1.961  12.525  19.437  0.00  0.00    +0.000 C 
ATOM      8  O   UNL     1      -2.253  13.411  20.227  0.00  0.00    +0.000 OA
ATOM      9  H   UNL     1      -0.212  11.341  17.022  0.00  0.00    +0.000 HD
ENDROOT
BRANCH   2  10
ATOM     10  C   UNL     1      -0.132  10.752  19.897  0.00  0.00    +0.000 A 
ATOM     11  C   UNL     1      -0.620  10.639  21.222  0.00  0.00    +0.000 A 
ATOM     12  C   UNL     1      -0.239   9.597  22.058  0.00  0.00    +0.000 A 
ATOM     13  C   UNL     1       0.646   8.633  21.597  0.00  0.00    +0.000 A 
ATOM     14  C   UNL     1       1.132   8.670  20.286  0.00  0.00    +0.000 A 
ATOM     15  C   UNL     1       2.026   7.667  19.876  0.00  0.00    +0.000 A 
ATOM     16  C   UNL     1       2.537   7.639  18.585  0.00  0.00    +0.000 A 
ATOM     17  C   UNL     1       2.119   8.594  17.676  0.00  0.00    +0.000 A 
ATOM     18  C   UNL     1       1.209   9.582  18.069  0.00  0.00    +0.000 A 
ATOM     19  C   UNL     1       0.722   9.704  19.394  0.00  0.00    +0.000 A 
ENDBRANCH   2  10
BRANCH   6  20
ATOM     20  C   UNL     1      -4.180  11.439  19.115  0.00  0.00    +0.000 C 
BRANCH  20  21
ATOM     21  C   UNL     1      -5.249  12.394  18.648  0.00  0.00    +0.000 A 
ATOM     22  C   UNL     1      -5.671  12.346  17.307  0.00  0.00    +0.000 A 
ATOM     23  C   UNL     1      -6.672  13.195  16.854  0.00  0.00    +0.000 A 
ATOM     24  C   UNL     1      -7.254  14.100  17.735  0.00  0.00    +0.000 A 
ATOM     25  C   UNL     1      -6.855  14.141  19.081  0.00  0.00    +0.000 A 
ATOM     26  C   UNL     1      -7.454  15.029  19.985  0.00  0.00    +0.000 A 
ATOM     27  C   UNL     1      -7.073  15.030  21.320  0.00  0.00    +0.000 A 
ATOM     28  C   UNL     1      -6.101  14.134  21.709  0.00  0.00    +0.000 A 
ATOM     29  N   UNL     1      -5.499  13.267  20.865  0.00  0.00    +0.000 NA
ATOM     30  C   UNL     1      -5.851  13.271  19.559  0.00  0.00    +0.000 A 
ENDBRANCH  20  21
ENDBRANCH   6  20
TORSDOF 3
ENDMDL
MODEL 7
REMARK VINA RESULT:      -7.8      4.308      7.411
REMARK  Name = 
REMARK  4 active torsions:
REMARK  status: ('A' for Active; 'I' for Inactive)
REMARK    1  A    between atoms: C_1  and  C_2
REMARK    2  A    between atoms: C_2  and  C_3
REMARK    3  A    between atoms: N_16  and  C_17
REMARK    4  A    between atoms: C_17  and  C_18
REMARK                            x       y       z     vdW  Elec       q    Type
REMARK                         _______ _______ _______ _____ _____    ______ ____
ROOT
ATOM      1  C   UNL     1      -6.286  15.232  22.847  0.00  0.00    +0.000 C 
ATOM      2  C   UNL     1      -5.430  14.140  22.224  0.00  0.00    +0.000 C 
ATOM      3  N   UNL     1      -4.923  13.206  23.230  0.00  0.00    +0.000 N 
ATOM      4  C   UNL     1      -3.678  12.727  22.871  0.00  0.00    +0.000 C 
ATOM      5  O   UNL     1      -3.152  11.753  23.384  0.00  0.00    +0.000 OA
ATOM      6  N   UNL     1      -3.188  13.531  21.900  0.00  0.00    +0.000 N 
ATOM      7  C   UNL     1      -4.023  14.602  21.772  0.00  0.00    +0.000 C 
ATOM      8  O   UNL     1      -3.719  15.711  21.356  0.00  0.00    +0.000 OA
ATOM      9  H   UNL     1      -5.491  12.663  23.864  0.00  0.00    +0.000 HD
ENDROOT
BRANCH   2  10
ATOM     10  C   UNL     1      -6.206  13.381  21.108  0.00  0.00    +0.000 A 
ATOM     11  C   UNL     1      -6.561  12.035  21.367  0.00  0.00    +0.000 A 
ATOM     12  C   UNL     1      -7.163  11.236  20.404  0.00  0.00    +0.000 A 
ATOM     13  C   UNL     1      -7.430  11.757  19.146  0.00  0.00    +0.000 A 
ATOM     14  C   UNL     1      -7.137  13.091  18.842  0.00  0.00    +0.000 A 
ATOM     15  C   UNL     1      -7.428  13.563  17.552  0.00  0.00    +0.000 A 
ATOM     16  C   UNL     1      -7.174  14.879  17.190  0.00  0.00    +0.000 A 
ATOM     17  C   UNL     1      -6.665  15.750  18.135  0.00  0.00    +0.000 A 
ATOM     18  C   UNL     1      -6.395  15.295  19.431  0.00  0.00    +0.000 A 
ATOM     19  C   UNL     1      -6.560  13.944  19.828  0.00  0.00    +0.000 A 
ENDBRANCH   2  10
BRANCH   6  20
ATOM     20  C   UNL     1      -2.027  13.282  21.078  0.00  0.00    +0.000 C 
BRANCH  20  21
ATOM     21  C   UNL     1      -2.240  12.316  19.939  0.00  0.00    +0.000 A 
ATOM     22  C   UNL     1      -3.496  12.270  19.307  0.00  0.00    +0.000 A 
ATOM     23  C   UNL     1      -3.714  11.410  18.239  0.00  0.00    +0.000 A 
ATOM     24  C   UNL     1      -2.681  10.588  17.798  0.00  0.00    +0.000 A 
ATOM     25  C   UNL     1      -1.418  10.644  18.408  0.00  0.00    +0.000 A 
ATOM     26  C   UNL     1      -0.362   9.841  17.955  0.00  0.00    +0.000 A 
ATOM     27  C   UNL     1       0.891   9.935  18.546  0.00  0.00    +0.000 A 
ATOM     28  C   UNL     1       1.046  10.837  19.576  0.00  0.00    +0.000 A 
ATOM     29  N   UNL     1       0.052  11.623  20.042  0.00  0.00    +0.000 NA
ATOM     30  C   UNL     1      -1.177  11.526  19.484  0.00  0.00    +0.000 A 
ENDBRANCH  20  21
ENDBRANCH   6  20
TORSDOF 3
ENDMDL
MODEL 8
REMARK VINA RESULT:      -7.7      4.691      7.292
REMARK  Name = 
REMARK  4 active torsions:
REMARK  status: ('A' for Active; 'I' for Inactive)
REMARK    1  A    between atoms: C_1  and  C_2
REMARK    2  A    between atoms: C_2  and  C_3
REMARK    3  A    between atoms: N_16  and  C_17
REMARK    4  A    between atoms: C_17  and  C_18
REMARK                            x       y       z     vdW  Elec       q    Type
REMARK                         _______ _______ _______ _____ _____    ______ ____
ROOT
ATOM      1  C   UNL     1      -0.441  16.958  23.540  0.00  0.00    +0.000 C 
ATOM      2  C   UNL     1      -1.247  16.044  22.630  0.00  0.00    +0.000 C 
ATOM      3  N   UNL     1      -2.675  16.362  22.665  0.00  0.00    +0.000 N 
ATOM      4  C   UNL     1      -3.436  15.222  22.493  0.00  0.00    +0.000 C 
ATOM      5  O   UNL     1      -4.625  15.234  22.221  0.00  0.00    +0.000 OA
ATOM      6  N   UNL     1      -2.632  14.152  22.696  0.00  0.00    +0.000 N 
ATOM      7  C   UNL     1      -1.433  14.603  23.165  0.00  0.00    +0.000 C 
ATOM      8  O   UNL     1      -0.645  13.975  23.858  0.00  0.00    +0.000 OA
ATOM      9  H   UNL     1      -3.081  17.258  22.441  0.00  0.00    +0.000 HD
ENDROOT
BRANCH   2  10
ATOM     10  C   UNL     1      -0.709  16.084  21.170  0.00  0.00    +0.000 A 
ATOM     11  C   UNL     1      -1.295  17.026  20.289  0.00  0.00    +0.000 A 
ATOM     12  C   UNL     1      -0.963  17.077  18.942  0.00  0.00    +0.000 A 
ATOM     13  C   UNL     1      -0.033  16.184  18.428  0.00  0.00    +0.000 A 
ATOM     14  C   UNL     1       0.609  15.257  19.256  0.00  0.00    +0.000 A 
ATOM     15  C   UNL     1       1.540  14.378  18.679  0.00  0.00    +0.000 A 
ATOM     16  C   UNL     1       2.220  13.441  19.446  0.00  0.00    +0.000 A 
ATOM     17  C   UNL     1       2.004  13.406  20.812  0.00  0.00    +0.000 A 
ATOM     18  C   UNL     1       1.096  14.295  21.398  0.00  0.00    +0.000 A 
ATOM     19  C   UNL     1       0.317  15.214  20.651  0.00  0.00    +0.000 A 
ENDBRANCH   2  10
BRANCH   6  20
ATOM     20  C   UNL     1      -2.943  12.773  22.403  0.00  0.00    +0.000 C 
BRANCH  20  21
ATOM     21  C   UNL     1      -2.105  12.140  21.320  0.00  0.00    +0.000 A 
ATOM     22  C   UNL     1      -2.211  12.623  20.003  0.00  0.00    +0.000 A 
ATOM     23  C   UNL     1      -1.433  12.078  18.990  0.00  0.00    +0.000 A 
ATOM     24  C   UNL     1      -0.549  11.046  19.284  0.00  0.00    +0.000 A 
ATOM     25  C   UNL     1      -0.420  10.572  20.600  0.00  0.00    +0.000 A 
ATOM     26  C   UNL     1       0.488   9.552  20.914  0.00  0.00    +0.000 A 
ATOM     27  C   UNL     1       0.629   9.120  22.226  0.00  0.00    +0.000 A 
ATOM     28  C   UNL     1      -0.146   9.732  23.187  0.00  0.00    +0.000 A 
ATOM     29  N   UNL     1      -1.034  10.715  22.921  0.00  0.00    +0.000 NA
ATOM     30  C   UNL     1      -1.192  11.129  21.643  0.00  0.00    +0.000 A 
ENDBRANCH  20  21
ENDBRANCH   6  20
TORSDOF 3
ENDMDL
MODEL 9
REMARK VINA RESULT:      -7.7      3.639      9.366
REMARK  Name = 
REMARK  4 active torsions:
REMARK  status: ('A' for Active; 'I' for Inactive)
REMARK    1  A    between atoms: C_1  and  C_2
REMARK    2  A    between atoms: C_2  and  C_3
REMARK    3  A    between atoms: N_16  and  C_17
REMARK    4  A    between atoms: C_17  and  C_18
REMARK                            x       y       z     vdW  Elec       q    Type
REMARK                         _______ _______ _______ _____ _____    ______ ____
ROOT
ATOM      1  C   UNL     1       1.292  13.101  20.543  0.00  0.00    +0.000 C 
ATOM      2  C   UNL     1       0.045  12.310  20.907  0.00  0.00    +0.000 C 
ATOM      3  N   UNL     1      -1.049  12.557  19.967  0.00  0.00    +0.000 N 
ATOM      4  C   UNL     1      -2.272  12.488  20.607  0.00  0.00    +0.000 C 
ATOM      5  O   UNL     1      -3.339  12.393  20.024  0.00  0.00    +0.000 OA
ATOM      6  N   UNL     1      -2.047  12.561  21.939  0.00  0.00    +0.000 N 
ATOM      7  C   UNL     1      -0.729  12.853  22.134  0.00  0.00    +0.000 C 
ATOM      8  O   UNL     1      -0.249  13.417  23.107  0.00  0.00    +0.000 OA
ATOM      9  H   UNL     1      -1.012  12.403  18.970  0.00  0.00    +0.000 HD
ENDROOT
BRANCH   2  10
ATOM     10  C   UNL     1       0.350  10.788  21.009  0.00  0.00    +0.000 A 
ATOM     11  C   UNL     1       0.036  10.144  22.230  0.00  0.00    +0.000 A 
ATOM     12  C   UNL     1       0.361   8.814  22.464  0.00  0.00    +0.000 A 
ATOM     13  C   UNL     1       1.014   8.082  21.483  0.00  0.00    +0.000 A 
ATOM     14  C   UNL     1       1.316   8.651  20.242  0.00  0.00    +0.000 A 
ATOM     15  C   UNL     1       1.980   7.862  19.288  0.00  0.00    +0.000 A 
ATOM     16  C   UNL     1       2.299   8.362  18.032  0.00  0.00    +0.000 A 
ATOM     17  C   UNL     1       1.915   9.650  17.704  0.00  0.00    +0.000 A 
ATOM     18  C   UNL     1       1.232  10.435  18.640  0.00  0.00    +0.000 A 
ATOM     19  C   UNL     1       0.954  10.002  19.961  0.00  0.00    +0.000 A 
ENDBRANCH   2  10
BRANCH   6  20
ATOM     20  C   UNL     1      -3.003  12.303  22.990  0.00  0.00    +0.000 C 
BRANCH  20  21
ATOM     21  C   UNL     1      -3.921  13.453  23.321  0.00  0.00    +0.000 A 
ATOM     22  C   UNL     1      -3.400  14.573  23.992  0.00  0.00    +0.000 A 
ATOM     23  C   UNL     1      -4.215  15.659  24.287  0.00  0.00    +0.000 A 
ATOM     24  C   UNL     1      -5.556  15.629  23.918  0.00  0.00    +0.000 A 
ATOM     25  C   UNL     1      -6.080  14.524  23.229  0.00  0.00    +0.000 A 
ATOM     26  C   UNL     1      -7.423  14.495  22.827  0.00  0.00    +0.000 A 
ATOM     27  C   UNL     1      -7.916  13.410  22.114  0.00  0.00    +0.000 A 
ATOM     28  C   UNL     1      -7.042  12.385  21.823  0.00  0.00    +0.000 A 
ATOM     29  N   UNL     1      -5.744  12.377  22.197  0.00  0.00    +0.000 NA
ATOM     30  C   UNL     1      -5.259  13.421  22.907  0.00  0.00    +0.000 A 
ENDBRANCH  20  21
ENDBRANCH   6  20
TORSDOF 3
ENDMDL
