MODEL 1
REMARK VINA RESULT:      -8.8      0.000      0.000
REMARK  Name = 
REMARK  5 active torsions:
REMARK  status: ('A' for Active; 'I' for Inactive)
REMARK    1  A    between atoms: C_2  and  C_18
REMARK    2  A    between atoms: N_3  and  C_4
REMARK    3  A    between atoms: C_7  and  C_8
REMARK    4  A    between atoms: C_8  and  C_9
REMARK    5  A    between atoms: C_22  and  N_23
REMARK                            x       y       z     vdW  Elec       q    Type
REMARK                         _______ _______ _______ _____ _____    ______ ____
ROOT
ATOM      1  O   UNL     1       8.176   6.606  19.085  0.00  0.00    +0.000 OA
ATOM      2  C   UNL     1       7.616   6.945  18.050  0.00  0.00    +0.000 C 
ATOM      3  N   UNL     1       7.621   8.202  17.471  0.00  0.00    +0.000 N 
ATOM      4  H   UNL     1       6.958   8.378  16.730  0.00  0.00    +0.000 HD
ENDROOT
BRANCH   3   5
ATOM      5  C   UNL     1       8.281   9.332  17.998  0.00  0.00    +0.000 A 
ATOM      6  C   UNL     1       9.083   9.279  19.138  0.00  0.00    +0.000 A 
ATOM      7  C   UNL     1       9.614  10.444  19.694  0.00  0.00    +0.000 A 
ATOM      8  C   UNL     1       9.358  11.686  19.105  0.00  0.00    +0.000 A 
ATOM      9  C   UNL     1       8.611  11.734  17.919  0.00  0.00    +0.000 A 
ATOM     10  C   UNL     1       8.086  10.563  17.363  0.00  0.00    +0.000 A 
BRANCH   8  11
ATOM     11  C   UNL     1       9.814  12.947  19.794  0.00  0.00    +0.000 C 
BRANCH  11  12
ATOM     12  C   UNL     1       9.270  14.248  19.228  0.00  0.00    +0.000 C 
ATOM     13  O   UNL     1       8.205  14.748  19.588  0.00  0.00    +0.000 OA
ATOM     14  N   UNL     1      10.059  14.852  18.266  0.00  0.00    +0.000 N 
ATOM     15  C   UNL     1      11.329  14.392  17.735  0.00  0.00    +0.000 C 
ATOM     16  C   UNL     1      11.981  15.671  17.242  0.00  0.00    +0.000 C 
ATOM     17  C   UNL     1      10.805  16.500  16.737  0.00  0.00    +0.000 C 
ATOM     18  C   UNL     1       9.626  16.066  17.603  0.00  0.00    +0.000 C 
ENDBRANCH  11  12
ENDBRANCH   8  11
ENDBRANCH   3   5
BRANCH   2  19
ATOM     19  C   UNL     1       6.759   5.941  17.377  0.00  0.00    +0.000 A 
ATOM     20  C   UNL     1       6.716   5.973  15.980  0.00  0.00    +0.000 A 
ATOM     21  C   UNL     1       5.936   5.054  15.299  0.00  0.00    +0.000 A 
ATOM     22  C   UNL     1       5.193   4.119  16.014  0.00  0.00    +0.000 A 
ATOM     23  C   UNL     1       5.179   4.091  17.416  0.00  0.00    +0.000 A 
ATOM     24  C   UNL     1       5.994   5.010  18.094  0.00  0.00    +0.000 A 
BRANCH  23  25
ATOM     25  N   UNL     1       4.414   3.177  18.156  0.00  0.00    +0.000 N 
ATOM     26  C   UNL     1       3.285   3.366  18.948  0.00  0.00    +0.000 A 
ATOM     27  N   UNL     1       2.569   4.502  18.879  0.00  0.00    +0.000 NA
ATOM     28  C   UNL     1       1.535   4.657  19.716  0.00  0.00    +0.000 A 
ATOM     29  C   UNL     1       1.172   3.713  20.637  0.00  0.00    +0.000 A 
ATOM     30  C   UNL     1       1.941   2.575  20.633  0.00  0.00    +0.000 A 
ATOM     31  N   UNL     1       2.989   2.378  19.806  0.00  0.00    +0.000 NA
ATOM     32  H   UNL     1       4.849   2.305  18.418  0.00  0.00    +0.000 HD
ENDBRANCH  23  25
ENDBRANCH   2  19
TORSDOF 5
ENDMDL
MODEL 2
REMARK VINA RESULT:      -8.8      1.673     11.136
REMARK  Name = 
REMARK  5 active torsions:
REMARK  status: ('A' for Active; 'I' for Inactive)
REMARK    1  A    between atoms: C_2  and  C_18
REMARK    2  A    between atoms: N_3  and  C_4
REMARK    3  A    between atoms: C_7  and  C_8
REMARK    4  A    between atoms: C_8  and  C_9
REMARK    5  A    between atoms: C_22  and  N_23
REMARK                            x       y       z     vdW  Elec       q    Type
REMARK                         _______ _______ _______ _____ _____    ______ ____
ROOT
ATOM      1  O   UNL     1       7.542   9.945  17.432  0.00  0.00    +0.000 OA
ATOM      2  C   UNL     1       8.431   9.588  18.196  0.00  0.00    +0.000 C 
ATOM      3  N   UNL     1       8.655   8.309  18.677  0.00  0.00    +0.000 N 
ATOM      4  H   UNL     1       9.300   8.206  19.448  0.00  0.00    +0.000 HD
ENDROOT
BRANCH   3   5
ATOM      5  C   UNL     1       7.867   7.181  18.368  0.00  0.00    +0.000 A 
ATOM      6  C   UNL     1       7.081   7.095  17.220  0.00  0.00    +0.000 A 
ATOM      7  C   UNL     1       6.224   6.012  17.018  0.00  0.00    +0.000 A 
ATOM      8  C   UNL     1       6.151   4.986  17.964  0.00  0.00    +0.000 A 
ATOM      9  C   UNL     1       6.993   5.035  19.085  0.00  0.00    +0.000 A 
ATOM     10  C   UNL     1       7.854   6.120  19.279  0.00  0.00    +0.000 A 
BRANCH   8  11
ATOM     11  C   UNL     1       5.119   3.898  17.808  0.00  0.00    +0.000 C 
BRANCH  11  12
ATOM     12  C   UNL     1       4.570   3.311  19.098  0.00  0.00    +0.000 C 
ATOM     13  O   UNL     1       5.175   2.475  19.770  0.00  0.00    +0.000 OA
ATOM     14  N   UNL     1       3.328   3.781  19.481  0.00  0.00    +0.000 N 
ATOM     15  C   UNL     1       2.493   4.755  18.803  0.00  0.00    +0.000 C 
ATOM     16  C   UNL     1       1.633   5.313  19.922  0.00  0.00    +0.000 C 
ATOM     17  C   UNL     1       1.414   4.112  20.836  0.00  0.00    +0.000 C 
ATOM     18  C   UNL     1       2.666   3.258  20.660  0.00  0.00    +0.000 C 
ENDBRANCH  11  12
ENDBRANCH   8  11
ENDBRANCH   3   5
BRANCH   2  19
ATOM     19  C   UNL     1       9.319  10.637  18.749  0.00  0.00    +0.000 A 
ATOM     20  C   UNL     1       9.676  10.526  20.096  0.00  0.00    +0.000 A 
ATOM     21  C   UNL     1      10.509  11.475  20.663  0.00  0.00    +0.000 A 
ATOM     22  C   UNL     1      10.967  12.538  19.889  0.00  0.00    +0.000 A 
ATOM     23  C   UNL     1      10.589  12.703  18.549  0.00  0.00    +0.000 A 
ATOM     24  C   UNL     1       9.767  11.720  17.979  0.00  0.00    +0.000 A 
BRANCH  23  25
ATOM     25  N   UNL     1      11.016  13.783  17.761  0.00  0.00    +0.000 N 
ATOM     26  C   UNL     1      10.765  15.147  17.874  0.00  0.00    +0.000 A 
ATOM     27  N   UNL     1      10.261  15.671  19.005  0.00  0.00    +0.000 NA
ATOM     28  C   UNL     1       9.972  16.978  19.031  0.00  0.00    +0.000 A 
ATOM     29  C   UNL     1      10.170  17.807  17.961  0.00  0.00    +0.000 A 
ATOM     30  C   UNL     1      10.703  17.201  16.850  0.00  0.00    +0.000 A 
ATOM     31  N   UNL     1      11.009  15.888  16.783  0.00  0.00    +0.000 NA
ATOM     32  H   UNL     1      11.309  13.586  16.816  0.00  0.00    +0.000 HD
ENDBRANCH  23  25
ENDBRANCH   2  19
TORSDOF 5
ENDMDL
MODEL 3
REMARK VINA RESULT:      -8.8      7.672     11.648
REMARK  Name = 
REMARK  5 active torsions:
REMARK  status: ('A' for Active; 'I' for Inactive)
REMARK    1  A    between atoms: C_2  and  C_18
REMARK    2  A    between atoms: N_3  and  C_4
REMARK    3  A    between atoms: C_7  and  C_8
REMARK    4  A    between atoms: C_8  and  C_9
REMARK    5  A    between atoms: C_22  and  N_23
REMARK                            x       y       z     vdW  Elec       q    Type
REMARK                         _______ _______ _______ _____ _____    ______ ____
ROOT
ATOM      1  O   UNL     1       1.540  11.862  21.337  0.00  0.00    +0.000 OA
ATOM      2  C   UNL     1       0.372  11.495  21.282  0.00  0.00    +0.000 C 
ATOM      3  N   UNL     1      -0.113  10.341  20.689  0.00  0.00    +0.000 N 
ATOM      4  H   UNL     1      -1.111  10.271  20.551  0.00  0.00    +0.000 HD
ENDROOT
BRANCH   3   5
ATOM      5  C   UNL     1       0.678   9.382  20.022  0.00  0.00    +0.000 A 
ATOM      6  C   UNL     1       1.253   8.290  20.670  0.00  0.00    +0.000 A 
ATOM      7  C   UNL     1       2.128   7.437  19.995  0.00  0.00    +0.000 A 
ATOM      8  C   UNL     1       2.430   7.659  18.649  0.00  0.00    +0.000 A 
ATOM      9  C   UNL     1       1.797   8.714  17.976  0.00  0.00    +0.000 A 
ATOM     10  C   UNL     1       0.918   9.563  18.656  0.00  0.00    +0.000 A 
BRANCH   8  11
ATOM     11  C   UNL     1       3.485   6.821  17.972  0.00  0.00    +0.000 C 
BRANCH  11  12
ATOM     12  C   UNL     1       3.923   5.572  18.718  0.00  0.00    +0.000 C 
ATOM     13  O   UNL     1       4.921   5.531  19.437  0.00  0.00    +0.000 OA
ATOM     14  N   UNL     1       3.118   4.462  18.541  0.00  0.00    +0.000 N 
ATOM     15  C   UNL     1       1.919   4.349  17.730  0.00  0.00    +0.000 C 
ATOM     16  C   UNL     1       1.166   3.204  18.384  0.00  0.00    +0.000 C 
ATOM     17  C   UNL     1       2.276   2.271  18.855  0.00  0.00    +0.000 C 
ATOM     18  C   UNL     1       3.457   3.191  19.149  0.00  0.00    +0.000 C 
ENDBRANCH  11  12
ENDBRANCH   8  11
ENDBRANCH   3   5
BRANCH   2  19
ATOM     19  C   UNL     1      -0.659  12.411  21.822  0.00  0.00    +0.000 A 
ATOM     20  C   UNL     1      -0.233  13.674  22.243  0.00  0.00    +0.000 A 
ATOM     21  C   UNL     1      -1.155  14.573  22.750  0.00  0.00    +0.000 A 
ATOM     22  C   UNL     1      -2.494  14.202  22.849  0.00  0.00    +0.000 A 
ATOM     23  C   UNL     1      -2.945  12.927  22.479  0.00  0.00    +0.000 A 
ATOM     24  C   UNL     1      -2.005  12.035  21.941  0.00  0.00    +0.000 A 
BRANCH  23  25
ATOM     25  N   UNL     1      -4.283  12.523  22.598  0.00  0.00    +0.000 N 
ATOM     26  C   UNL     1      -5.296  12.436  21.647  0.00  0.00    +0.000 A 
ATOM     27  N   UNL     1      -5.020  12.474  20.332  0.00  0.00    +0.000 NA
ATOM     28  C   UNL     1      -6.040  12.459  19.464  0.00  0.00    +0.000 A 
ATOM     29  C   UNL     1      -7.350  12.402  19.855  0.00  0.00    +0.000 A 
ATOM     30  C   UNL     1      -7.548  12.349  21.212  0.00  0.00    +0.000 A 
ATOM     31  N   UNL     1      -6.549  12.361  22.119  0.00  0.00    +0.000 NA
ATOM     32  H   UNL     1      -4.703  12.560  23.514  0.00  0.00    +0.000 HD
ENDBRANCH  23  25
ENDBRANCH   2  19
TORSDOF 5
ENDMDL
MODEL 4
REMARK VINA RESULT:      -8.8      0.893      1.397
REMARK  Name = 
REMARK  5 active torsions:
REMARK  status: ('A' for Active; 'I' for Inactive)
REMARK    1  A    between atoms: C_2  and  C_18
REMARK    2  A    between atoms: N_3  and  C_4
REMARK    3  A    between atoms: C_7  and  C_8
REMARK    4  A    between atoms: C_8  and  C_9
REMARK    5  A    between atoms: C_22  and  N_23
REMARK                            x       y       z     vdW  Elec       q    Type
REMARK                         _______ _______ _______ _____ _____    ______ ____
ROOT
ATOM      1  O   UNL     1       8.081   6.705  18.953  0.00  0.00    +0.000 OA
ATOM      2  C   UNL     1       7.561   7.059  17.902  0.00  0.00    +0.000 C 
ATOM      3  N   UNL     1       7.571   8.330  17.353  0.00  0.00    +0.000 N 
ATOM      4  H   UNL     1       6.938   8.513  16.587  0.00  0.00    +0.000 HD
ENDROOT
BRANCH   3   5
ATOM      5  C   UNL     1       8.186   9.458  17.935  0.00  0.00    +0.000 A 
ATOM      6  C   UNL     1       8.076  10.742  17.404  0.00  0.00    +0.000 A 
ATOM      7  C   UNL     1       8.802  11.805  17.943  0.00  0.00    +0.000 A 
ATOM      8  C   UNL     1       9.645  11.598  19.038  0.00  0.00    +0.000 A 
ATOM      9  C   UNL     1       9.704  10.323  19.618  0.00  0.00    +0.000 A 
ATOM     10  C   UNL     1       8.970   9.262  19.077  0.00  0.00    +0.000 A 
BRANCH   8  11
ATOM     11  C   UNL     1      10.533  12.718  19.519  0.00  0.00    +0.000 C 
BRANCH  11  12
ATOM     12  C   UNL     1       9.935  14.113  19.462  0.00  0.00    +0.000 C 
ATOM     13  O   UNL     1       9.072  14.510  20.245  0.00  0.00    +0.000 OA
ATOM     14  N   UNL     1      10.426  14.928  18.459  0.00  0.00    +0.000 N 
ATOM     15  C   UNL     1      11.432  14.611  17.462  0.00  0.00    +0.000 C 
ATOM     16  C   UNL     1      11.989  15.971  17.086  0.00  0.00    +0.000 C 
ATOM     17  C   UNL     1      10.776  16.891  17.181  0.00  0.00    +0.000 C 
ATOM     18  C   UNL     1       9.897  16.263  18.257  0.00  0.00    +0.000 C 
ENDBRANCH  11  12
ENDBRANCH   8  11
ENDBRANCH   3   5
BRANCH   2  19
ATOM     19  C   UNL     1       6.753   6.058  17.168  0.00  0.00    +0.000 A 
ATOM     20  C   UNL     1       7.372   5.395  16.103  0.00  0.00    +0.000 A 
ATOM     21  C   UNL     1       6.665   4.445  15.387  0.00  0.00    +0.000 A 
ATOM     22  C   UNL     1       5.342   4.172  15.725  0.00  0.00    +0.000 A 
ATOM     23  C   UNL     1       4.680   4.853  16.757  0.00  0.00    +0.000 A 
ATOM     24  C   UNL     1       5.415   5.794  17.493  0.00  0.00    +0.000 A 
BRANCH  23  25
ATOM     25  N   UNL     1       3.339   4.615  17.094  0.00  0.00    +0.000 N 
ATOM     26  C   UNL     1       2.779   3.868  18.126  0.00  0.00    +0.000 A 
ATOM     27  N   UNL     1       3.517   3.469  19.176  0.00  0.00    +0.000 NA
ATOM     28  C   UNL     1       2.943   2.692  20.103  0.00  0.00    +0.000 A 
ATOM     29  C   UNL     1       1.638   2.287  20.033  0.00  0.00    +0.000 A 
ATOM     30  C   UNL     1       0.946   2.750  18.941  0.00  0.00    +0.000 A 
ATOM     31  N   UNL     1       1.487   3.535  17.986  0.00  0.00    +0.000 NA
ATOM     32  H   UNL     1       2.645   4.738  16.372  0.00  0.00    +0.000 HD
ENDBRANCH  23  25
ENDBRANCH   2  19
TORSDOF 5
ENDMDL
MODEL 5
REMARK VINA RESULT:      -8.8      8.217     12.154
REMARK  Name = 
REMARK  5 active torsions:
REMARK  status: ('A' for Active; 'I' for Inactive)
REMARK    1  A    between atoms: C_2  and  C_18
REMARK    2  A    between atoms: N_3  and  C_4
REMARK    3  A    between atoms: C_7  and  C_8
REMARK    4  A    between atoms: C_8  and  C_9
REMARK    5  A    between atoms: C_22  and  N_23
REMARK                            x       y       z     vdW  Elec       q    Type
REMARK                         _______ _______ _______ _____ _____    ______ ____
ROOT
ATOM      1  O   UNL     1       1.496  12.304  21.121  0.00  0.00    +0.000 OA
ATOM      2  C   UNL     1       0.406  11.769  21.287  0.00  0.00    +0.000 C 
ATOM      3  N   UNL     1       0.026  10.504  20.870  0.00  0.00    +0.000 N 
ATOM      4  H   UNL     1      -0.957  10.277  20.904  0.00  0.00    +0.000 HD
ENDROOT
BRANCH   3   5
ATOM      5  C   UNL     1       0.849   9.606  20.159  0.00  0.00    +0.000 A 
ATOM      6  C   UNL     1       1.210   9.802  18.826  0.00  0.00    +0.000 A 
ATOM      7  C   UNL     1       1.923   8.826  18.127  0.00  0.00    +0.000 A 
ATOM      8  C   UNL     1       2.297   7.638  18.761  0.00  0.00    +0.000 A 
ATOM      9  C   UNL     1       1.997   7.470  20.120  0.00  0.00    +0.000 A 
ATOM     10  C   UNL     1       1.288   8.453  20.817  0.00  0.00    +0.000 A 
BRANCH   8  11
ATOM     11  C   UNL     1       2.937   6.533  17.959  0.00  0.00    +0.000 C 
BRANCH  11  12
ATOM     12  C   UNL     1       3.518   5.380  18.760  0.00  0.00    +0.000 C 
ATOM     13  O   UNL     1       4.571   5.460  19.391  0.00  0.00    +0.000 OA
ATOM     14  N   UNL     1       2.778   4.212  18.739  0.00  0.00    +0.000 N 
ATOM     15  C   UNL     1       1.529   3.958  18.046  0.00  0.00    +0.000 C 
ATOM     16  C   UNL     1       0.911   2.827  18.849  0.00  0.00    +0.000 C 
ATOM     17  C   UNL     1       2.117   2.006  19.294  0.00  0.00    +0.000 C 
ATOM     18  C   UNL     1       3.252   3.018  19.413  0.00  0.00    +0.000 C 
ENDBRANCH  11  12
ENDBRANCH   8  11
ENDBRANCH   3   5
BRANCH   2  19
ATOM     19  C   UNL     1      -0.664  12.577  21.916  0.00  0.00    +0.000 A 
ATOM     20  C   UNL     1      -0.300  13.821  22.440  0.00  0.00    +0.000 A 
ATOM     21  C   UNL     1      -1.261  14.620  23.034  0.00  0.00    +0.000 A 
ATOM     22  C   UNL     1      -2.575  14.169  23.117  0.00  0.00    +0.000 A 
ATOM     23  C   UNL     1      -2.963  12.907  22.643  0.00  0.00    +0.000 A 
ATOM     24  C   UNL     1      -1.985  12.117  22.019  0.00  0.00    +0.000 A 
BRANCH  23  25
ATOM     25  N   UNL     1      -4.275  12.421  22.743  0.00  0.00    +0.000 N 
ATOM     26  C   UNL     1      -5.447  13.045  23.159  0.00  0.00    +0.000 A 
ATOM     27  N   UNL     1      -5.522  14.384  23.269  0.00  0.00    +0.000 NA
ATOM     28  C   UNL     1      -6.652  14.924  23.743  0.00  0.00    +0.000 A 
ATOM     29  C   UNL     1      -7.736  14.178  24.117  0.00  0.00    +0.000 A 
ATOM     30  C   UNL     1      -7.588  12.822  23.959  0.00  0.00    +0.000 A 
ATOM     31  N   UNL     1      -6.468  12.238  23.484  0.00  0.00    +0.000 NA
ATOM     32  H   UNL     1      -4.401  11.423  22.808  0.00  0.00    +0.000 HD
ENDBRANCH  23  25
ENDBRANCH   2  19
TORSDOF 5
ENDMDL
MODEL 6
REMARK VINA RESULT:      -8.8      5.608     10.024
REMARK  Name = 
REMARK  5 active torsions:
REMARK  status: ('A' for Active; 'I' for Inactive)
REMARK    1  A    between atoms: C_2  and  C_18
REMARK    2  A    between atoms: N_3  and  C_4
REMARK    3  A    between atoms: C_7  and  C_8
REMARK    4  A    between atoms: C_8  and  C_9
REMARK    5  A    between atoms: C_22  and  N_23
REMARK                            x       y       z     vdW  Elec       q    Type
REMARK                         _______ _______ _______ _____ _____    ______ ____
ROOT
ATOM      1  O   UNL     1       1.519   6.634  20.958  0.00  0.00    +0.000 OA
ATOM      2  C   UNL     1       1.523   7.675  20.312  0.00  0.00    +0.000 C 
ATOM      3  N   UNL     1       2.098   7.884  19.069  0.00  0.00    +0.000 N 
ATOM      4  H   UNL     1       2.192   8.838  18.752  0.00  0.00    +0.000 HD
ENDROOT
BRANCH   3   5
ATOM      5  C   UNL     1       2.801   6.909  18.330  0.00  0.00    +0.000 A 
ATOM      6  C   UNL     1       2.455   5.558  18.334  0.00  0.00    +0.000 A 
ATOM      7  C   UNL     1       3.253   4.613  17.687  0.00  0.00    +0.000 A 
ATOM      8  C   UNL     1       4.410   5.012  17.013  0.00  0.00    +0.000 A 
ATOM      9  C   UNL     1       4.721   6.378  16.947  0.00  0.00    +0.000 A 
ATOM     10  C   UNL     1       3.915   7.321  17.593  0.00  0.00    +0.000 A 
BRANCH   8  11
ATOM     11  C   UNL     1       5.340   3.970  16.443  0.00  0.00    +0.000 C 
BRANCH  11  12
ATOM     12  C   UNL     1       6.559   4.498  15.705  0.00  0.00    +0.000 C 
ATOM     13  O   UNL     1       7.531   4.992  16.276  0.00  0.00    +0.000 OA
ATOM     14  N   UNL     1       6.512   4.387  14.328  0.00  0.00    +0.000 N 
ATOM     15  C   UNL     1       5.446   3.837  13.512  0.00  0.00    +0.000 C 
ATOM     16  C   UNL     1       6.164   3.413  12.244  0.00  0.00    +0.000 C 
ATOM     17  C   UNL     1       7.251   4.470  12.079  0.00  0.00    +0.000 C 
ATOM     18  C   UNL     1       7.585   4.906  13.502  0.00  0.00    +0.000 C 
ENDBRANCH  11  12
ENDBRANCH   8  11
ENDBRANCH   3   5
BRANCH   2  19
ATOM     19  C   UNL     1       0.937   8.878  20.948  0.00  0.00    +0.000 A 
ATOM     20  C   UNL     1       0.302   8.701  22.181  0.00  0.00    +0.000 A 
ATOM     21  C   UNL     1      -0.259   9.792  22.823  0.00  0.00    +0.000 A 
ATOM     22  C   UNL     1      -0.196  11.048  22.226  0.00  0.00    +0.000 A 
ATOM     23  C   UNL     1       0.393  11.249  20.970  0.00  0.00    +0.000 A 
ATOM     24  C   UNL     1       0.981  10.141  20.341  0.00  0.00    +0.000 A 
BRANCH  23  25
ATOM     25  N   UNL     1       0.441  12.501  20.337  0.00  0.00    +0.000 N 
ATOM     26  C   UNL     1       1.323  13.566  20.492  0.00  0.00    +0.000 A 
ATOM     27  N   UNL     1       2.499  13.409  21.126  0.00  0.00    +0.000 NA
ATOM     28  C   UNL     1       3.276  14.485  21.308  0.00  0.00    +0.000 A 
ATOM     29  C   UNL     1       2.930  15.736  20.877  0.00  0.00    +0.000 A 
ATOM     30  C   UNL     1       1.724  15.811  20.224  0.00  0.00    +0.000 A 
ATOM     31  N   UNL     1       0.913  14.752  20.019  0.00  0.00    +0.000 NA
ATOM     32  H   UNL     1      -0.408  12.845  19.914  0.00  0.00    +0.000 HD
ENDBRANCH  23  25
ENDBRANCH   2  19
TORSDOF 5
ENDMDL
MODEL 7
REMARK VINA RESULT:      -8.7      5.790     10.320
REMARK  Name = 
REMARK  5 active torsions:
REMARK  status: ('A' for Active; 'I' for Inactive)
REMARK    1  A    between atoms: C_2  and  C_18
REMARK    2  A    between atoms: N_3  and  C_4
REMARK    3  A    between atoms: C_7  and  C_8
REMARK    4  A    between atoms: C_8  and  C_9
REMARK    5  A    between atoms: C_22  and  N_23
REMARK                            x       y       z     vdW  Elec       q    Type
REMARK                         _______ _______ _______ _____ _____    ______ ____
ROOT
ATOM      1  O   UNL     1       2.107   9.600  17.303  0.00  0.00    +0.000 OA
ATOM      2  C   UNL     1       1.797   9.150  18.399  0.00  0.00    +0.000 C 
ATOM      3  N   UNL     1       2.082   7.889  18.895  0.00  0.00    +0.000 N 
ATOM      4  H   UNL     1       1.595   7.594  19.729  0.00  0.00    +0.000 HD
ENDROOT
BRANCH   3   5
ATOM      5  C   UNL     1       2.784   6.885  18.196  0.00  0.00    +0.000 A 
ATOM      6  C   UNL     1       2.425   5.538  18.237  0.00  0.00    +0.000 A 
ATOM      7  C   UNL     1       3.221   4.566  17.630  0.00  0.00    +0.000 A 
ATOM      8  C   UNL     1       4.390   4.933  16.957  0.00  0.00    +0.000 A 
ATOM      9  C   UNL     1       4.716   6.293  16.854  0.00  0.00    +0.000 A 
ATOM     10  C   UNL     1       3.911   7.263  17.459  0.00  0.00    +0.000 A 
BRANCH   8  11
ATOM     11  C   UNL     1       5.316   3.864  16.433  0.00  0.00    +0.000 C 
BRANCH  11  12
ATOM     12  C   UNL     1       6.553   4.357  15.701  0.00  0.00    +0.000 C 
ATOM     13  O   UNL     1       7.553   4.784  16.278  0.00  0.00    +0.000 OA
ATOM     14  N   UNL     1       6.491   4.295  14.322  0.00  0.00    +0.000 N 
ATOM     15  C   UNL     1       5.393   3.825  13.498  0.00  0.00    +0.000 C 
ATOM     16  C   UNL     1       6.079   3.409  12.209  0.00  0.00    +0.000 C 
ATOM     17  C   UNL     1       7.215   4.418  12.070  0.00  0.00    +0.000 C 
ATOM     18  C   UNL     1       7.581   4.790  13.503  0.00  0.00    +0.000 C 
ENDBRANCH  11  12
ENDBRANCH   8  11
ENDBRANCH   3   5
BRANCH   2  19
ATOM     19  C   UNL     1       0.946   9.995  19.269  0.00  0.00    +0.000 A 
ATOM     20  C   UNL     1       0.534   9.446  20.487  0.00  0.00    +0.000 A 
ATOM     21  C   UNL     1      -0.257  10.194  21.341  0.00  0.00    +0.000 A 
ATOM     22  C   UNL     1      -0.645  11.479  20.971  0.00  0.00    +0.000 A 
ATOM     23  C   UNL     1      -0.286  12.040  19.737  0.00  0.00    +0.000 A 
ATOM     24  C   UNL     1       0.537  11.282  18.891  0.00  0.00    +0.000 A 
BRANCH  23  25
ATOM     25  N   UNL     1      -0.691  13.321  19.332  0.00  0.00    +0.000 N 
ATOM     26  C   UNL     1       0.047  14.479  19.101  0.00  0.00    +0.000 A 
ATOM     27  N   UNL     1       1.384  14.436  18.967  0.00  0.00    +0.000 NA
ATOM     28  C   UNL     1       2.049  15.590  18.819  0.00  0.00    +0.000 A 
ATOM     29  C   UNL     1       1.429  16.809  18.795  0.00  0.00    +0.000 A 
ATOM     30  C   UNL     1       0.063  16.767  18.921  0.00  0.00    +0.000 A 
ATOM     31  N   UNL     1      -0.645  15.628  19.070  0.00  0.00    +0.000 NA
ATOM     32  H   UNL     1      -1.654  13.578  19.484  0.00  0.00    +0.000 HD
ENDBRANCH  23  25
ENDBRANCH   2  19
TORSDOF 5
ENDMDL
MODEL 8
REMARK VINA RESULT:      -8.7      1.127      1.468
REMARK  Name = 
REMARK  5 active torsions:
REMARK  status: ('A' for Active; 'I' for Inactive)
REMARK    1  A    between atoms: C_2  and  C_18
REMARK    2  A    between atoms: N_3  and  C_4
REMARK    3  A    between atoms: C_7  and  C_8
REMARK    4  A    between atoms: C_8  and  C_9
REMARK    5  A    between atoms: C_22  and  N_23
REMARK                            x       y       z     vdW  Elec       q    Type
REMARK                         _______ _______ _______ _____ _____    ______ ____
ROOT
ATOM      1  O   UNL     1       8.252   6.638  18.913  0.00  0.00    +0.000 OA
ATOM      2  C   UNL     1       7.586   7.037  17.965  0.00  0.00    +0.000 C 
ATOM      3  N   UNL     1       7.536   8.326  17.464  0.00  0.00    +0.000 N 
ATOM      4  H   UNL     1       6.798   8.545  16.809  0.00  0.00    +0.000 HD
ENDROOT
BRANCH   3   5
ATOM      5  C   UNL     1       8.251   9.425  17.986  0.00  0.00    +0.000 A 
ATOM      6  C   UNL     1       9.020   9.347  19.146  0.00  0.00    +0.000 A 
ATOM      7  C   UNL     1       9.609  10.488  19.692  0.00  0.00    +0.000 A 
ATOM      8  C   UNL     1       9.446  11.730  19.072  0.00  0.00    +0.000 A 
ATOM      9  C   UNL     1       8.733  11.799  17.866  0.00  0.00    +0.000 A 
ATOM     10  C   UNL     1       8.149  10.651  17.321  0.00  0.00    +0.000 A 
BRANCH   8  11
ATOM     11  C   UNL     1       9.963  12.976  19.747  0.00  0.00    +0.000 C 
BRANCH  11  12
ATOM     12  C   UNL     1       8.914  14.001  20.144  0.00  0.00    +0.000 C 
ATOM     13  O   UNL     1       8.183  13.873  21.126  0.00  0.00    +0.000 OA
ATOM     14  N   UNL     1       8.828  15.110  19.324  0.00  0.00    +0.000 N 
ATOM     15  C   UNL     1       9.610  15.406  18.137  0.00  0.00    +0.000 C 
ATOM     16  C   UNL     1       9.541  16.919  18.045  0.00  0.00    +0.000 C 
ATOM     17  C   UNL     1       8.142  17.244  18.558  0.00  0.00    +0.000 C 
ATOM     18  C   UNL     1       7.829  16.134  19.557  0.00  0.00    +0.000 C 
ENDBRANCH  11  12
ENDBRANCH   8  11
ENDBRANCH   3   5
BRANCH   2  19
ATOM     19  C   UNL     1       6.660   6.072  17.327  0.00  0.00    +0.000 A 
ATOM     20  C   UNL     1       7.138   5.364  16.221  0.00  0.00    +0.000 A 
ATOM     21  C   UNL     1       6.316   4.446  15.590  0.00  0.00    +0.000 A 
ATOM     22  C   UNL     1       5.019   4.250  16.056  0.00  0.00    +0.000 A 
ATOM     23  C   UNL     1       4.495   4.979  17.133  0.00  0.00    +0.000 A 
ATOM     24  C   UNL     1       5.346   5.887  17.781  0.00  0.00    +0.000 A 
BRANCH  23  25
ATOM     25  N   UNL     1       3.181   4.818  17.599  0.00  0.00    +0.000 N 
ATOM     26  C   UNL     1       2.681   4.108  18.687  0.00  0.00    +0.000 A 
ATOM     27  N   UNL     1       3.494   3.671  19.665  0.00  0.00    +0.000 NA
ATOM     28  C   UNL     1       2.968   2.930  20.650  0.00  0.00    +0.000 A 
ATOM     29  C   UNL     1       1.641   2.601  20.708  0.00  0.00    +0.000 A 
ATOM     30  C   UNL     1       0.876   3.099  19.683  0.00  0.00    +0.000 A 
ATOM     31  N   UNL     1       1.365   3.849  18.674  0.00  0.00    +0.000 NA
ATOM     32  H   UNL     1       2.430   4.978  16.946  0.00  0.00    +0.000 HD
ENDBRANCH  23  25
ENDBRANCH   2  19
TORSDOF 5
ENDMDL
MODEL 9
REMARK VINA RESULT:      -8.7      8.066     11.185
REMARK  Name = 
REMARK  5 active torsions:
REMARK  status: ('A' for Active; 'I' for Inactive)
REMARK    1  A    between atoms: C_2  and  C_18
REMARK    2  A    between atoms: N_3  and  C_4
REMARK    3  A    between atoms: C_7  and  C_8
REMARK    4  A    between atoms: C_8  and  C_9
REMARK    5  A    between atoms: C_22  and  N_23
REMARK                            x       y       z     vdW  Elec       q    Type
REMARK                         _______ _______ _______ _____ _____    ______ ____
ROOT
ATOM      1  O   UNL     1       0.404  10.157  22.909  0.00  0.00    +0.000 OA
ATOM      2  C   UNL     1      -0.100  10.839  22.025  0.00  0.00    +0.000 C 
ATOM      3  N   UNL     1       0.058  10.682  20.658  0.00  0.00    +0.000 N 
ATOM      4  H   UNL     1      -0.257  11.435  20.062  0.00  0.00    +0.000 HD
ENDROOT
BRANCH   3   5
ATOM      5  C   UNL     1       0.856   9.694  20.045  0.00  0.00    +0.000 A 
ATOM      6  C   UNL     1       1.282   9.777  18.720  0.00  0.00    +0.000 A 
ATOM      7  C   UNL     1       1.964   8.718  18.120  0.00  0.00    +0.000 A 
ATOM      8  C   UNL     1       2.243   7.557  18.847  0.00  0.00    +0.000 A 
ATOM      9  C   UNL     1       1.878   7.500  20.200  0.00  0.00    +0.000 A 
ATOM     10  C   UNL     1       1.199   8.567  20.798  0.00  0.00    +0.000 A 
BRANCH   8  11
ATOM     11  C   UNL     1       2.849   6.366  18.149  0.00  0.00    +0.000 C 
BRANCH  11  12
ATOM     12  C   UNL     1       3.945   5.637  18.909  0.00  0.00    +0.000 C 
ATOM     13  O   UNL     1       3.721   4.868  19.844  0.00  0.00    +0.000 OA
ATOM     14  N   UNL     1       5.234   5.890  18.479  0.00  0.00    +0.000 N 
ATOM     15  C   UNL     1       5.661   6.764  17.402  0.00  0.00    +0.000 C 
ATOM     16  C   UNL     1       7.005   6.187  16.998  0.00  0.00    +0.000 C 
ATOM     17  C   UNL     1       7.588   5.687  18.316  0.00  0.00    +0.000 C 
ATOM     18  C   UNL     1       6.374   5.304  19.156  0.00  0.00    +0.000 C 
ENDBRANCH  11  12
ENDBRANCH   8  11
ENDBRANCH   3   5
BRANCH   2  19
ATOM     19  C   UNL     1      -0.893  12.019  22.440  0.00  0.00    +0.000 A 
ATOM     20  C   UNL     1      -0.315  13.277  22.245  0.00  0.00    +0.000 A 
ATOM     21  C   UNL     1      -1.015  14.415  22.610  0.00  0.00    +0.000 A 
ATOM     22  C   UNL     1      -2.280  14.291  23.179  0.00  0.00    +0.000 A 
ATOM     23  C   UNL     1      -2.867  13.042  23.429  0.00  0.00    +0.000 A 
ATOM     24  C   UNL     1      -2.159  11.898  23.031  0.00  0.00    +0.000 A 
BRANCH  23  25
ATOM     25  N   UNL     1      -4.127  12.895  24.029  0.00  0.00    +0.000 N 
ATOM     26  C   UNL     1      -5.391  12.749  23.466  0.00  0.00    +0.000 A 
ATOM     27  N   UNL     1      -5.543  12.433  22.167  0.00  0.00    +0.000 NA
ATOM     28  C   UNL     1      -6.783  12.377  21.664  0.00  0.00    +0.000 A 
ATOM     29  C   UNL     1      -7.903  12.622  22.410  0.00  0.00    +0.000 A 
ATOM     30  C   UNL     1      -7.666  12.920  23.729  0.00  0.00    +0.000 A 
ATOM     31  N   UNL     1      -6.434  12.985  24.276  0.00  0.00    +0.000 NA
ATOM     32  H   UNL     1      -4.233  13.211  24.981  0.00  0.00    +0.000 HD
ENDBRANCH  23  25
ENDBRANCH   2  19
TORSDOF 5
ENDMDL
