MODEL 1
REMARK VINA RESULT:      -8.3      0.000      0.000
REMARK  Name = 
REMARK  1 active torsions:
REMARK  status: ('A' for Active; 'I' for Inactive)
REMARK    1  A    between atoms: C_2  and  C_3
REMARK                            x       y       z     vdW  Elec       q    Type
REMARK                         _______ _______ _______ _____ _____    ______ ____
ROOT
ATOM      1  O   UNL     1       3.047   3.283  16.231  0.00  0.00    +0.000 OA
ATOM      2  C   UNL     1       3.769   3.549  17.188  0.00  0.00    +0.000 C 
ATOM      3  N   UNL     1       5.091   3.962  17.045  0.00  0.00    +0.000 N 
ATOM      4  C   UNL     1       5.619   4.196  15.702  0.00  0.00    +0.000 C 
ATOM      5  C   UNL     1       5.982   5.675  15.540  0.00  0.00    +0.000 C 
ATOM      6  C   UNL     1       6.756   6.207  16.726  0.00  0.00    +0.000 A 
ATOM      7  C   UNL     1       7.389   7.455  16.650  0.00  0.00    +0.000 A 
ATOM      8  C   UNL     1       8.087   7.950  17.748  0.00  0.00    +0.000 A 
ATOM      9  F   UNL     1       8.671   9.151  17.669  0.00  0.00    +0.000 F 
ATOM     10  C   UNL     1       8.185   7.222  18.925  0.00  0.00    +0.000 A 
ATOM     11  C   UNL     1       7.545   5.995  19.007  0.00  0.00    +0.000 A 
ATOM     12  F   UNL     1       7.634   5.291  20.143  0.00  0.00    +0.000 F 
ATOM     13  C   UNL     1       6.798   5.489  17.937  0.00  0.00    +0.000 A 
ATOM     14  C   UNL     1       6.059   4.184  18.114  0.00  0.00    +0.000 C 
ENDROOT
BRANCH   2  15
ATOM     15  C   UNL     1       3.147   3.432  18.580  0.00  0.00    +0.000 A 
ATOM     16  N   UNL     1       2.984   2.234  19.069  0.00  0.00    +0.000 NA
ATOM     17  N   UNL     1       2.407   2.106  20.295  0.00  0.00    +0.000 N 
ATOM     18  C   UNL     1       1.852   3.118  21.036  0.00  0.00    +0.000 A 
ATOM     19  O   UNL     1       1.288   2.918  22.104  0.00  0.00    +0.000 OA
ATOM     20  C   UNL     1       1.994   4.476  20.484  0.00  0.00    +0.000 A 
ATOM     21  C   UNL     1       1.442   5.569  21.168  0.00  0.00    +0.000 A 
ATOM     22  C   UNL     1       1.596   6.856  20.657  0.00  0.00    +0.000 A 
ATOM     23  C   UNL     1       2.317   7.050  19.479  0.00  0.00    +0.000 A 
ATOM     24  C   UNL     1       2.865   5.958  18.798  0.00  0.00    +0.000 A 
ATOM     25  C   UNL     1       2.685   4.656  19.286  0.00  0.00    +0.000 A 
ATOM     26  H   UNL     1       2.324   1.165  20.667  0.00  0.00    +0.000 HD
ENDBRANCH   2  15
TORSDOF 1
ENDMDL
MODEL 2
REMARK VINA RESULT:      -8.0      2.584      5.972
REMARK  Name = 
REMARK  1 active torsions:
REMARK  status: ('A' for Active; 'I' for Inactive)
REMARK    1  A    between atoms: C_2  and  C_3
REMARK                            x       y       z     vdW  Elec       q    Type
REMARK                         _______ _______ _______ _____ _____    ______ ____
ROOT
ATOM      1  O   UNL     1       3.519   2.086  17.821  0.00  0.00    +0.000 OA
ATOM      2  C   UNL     1       3.478   3.291  17.590  0.00  0.00    +0.000 C 
ATOM      3  N   UNL     1       2.432   4.106  18.015  0.00  0.00    +0.000 N 
ATOM      4  C   UNL     1       1.388   3.535  18.863  0.00  0.00    +0.000 C 
ATOM      5  C   UNL     1       1.408   4.214  20.236  0.00  0.00    +0.000 C 
ATOM      6  C   UNL     1       1.511   5.719  20.129  0.00  0.00    +0.000 A 
ATOM      7  C   UNL     1       1.290   6.521  21.255  0.00  0.00    +0.000 A 
ATOM      8  C   UNL     1       1.401   7.905  21.158  0.00  0.00    +0.000 A 
ATOM      9  F   UNL     1       1.207   8.659  22.247  0.00  0.00    +0.000 F 
ATOM     10  C   UNL     1       1.715   8.519  19.954  0.00  0.00    +0.000 A 
ATOM     11  C   UNL     1       1.950   7.724  18.841  0.00  0.00    +0.000 A 
ATOM     12  F   UNL     1       2.257   8.313  17.677  0.00  0.00    +0.000 F 
ATOM     13  C   UNL     1       1.890   6.328  18.916  0.00  0.00    +0.000 A 
ATOM     14  C   UNL     1       2.233   5.515  17.691  0.00  0.00    +0.000 C 
ENDROOT
BRANCH   2  15
ATOM     15  C   UNL     1       4.657   3.891  16.821  0.00  0.00    +0.000 A 
ATOM     16  N   UNL     1       4.733   3.640  15.544  0.00  0.00    +0.000 NA
ATOM     17  N   UNL     1       5.789   4.141  14.847  0.00  0.00    +0.000 N 
ATOM     18  C   UNL     1       6.872   4.794  15.379  0.00  0.00    +0.000 A 
ATOM     19  O   UNL     1       7.820   5.159  14.696  0.00  0.00    +0.000 OA
ATOM     20  C   UNL     1       6.821   5.057  16.827  0.00  0.00    +0.000 A 
ATOM     21  C   UNL     1       7.893   5.705  17.457  0.00  0.00    +0.000 A 
ATOM     22  C   UNL     1       7.835   5.974  18.822  0.00  0.00    +0.000 A 
ATOM     23  C   UNL     1       6.700   5.615  19.549  0.00  0.00    +0.000 A 
ATOM     24  C   UNL     1       5.632   4.968  18.919  0.00  0.00    +0.000 A 
ATOM     25  C   UNL     1       5.697   4.661  17.552  0.00  0.00    +0.000 A 
ATOM     26  H   UNL     1       5.807   3.960  13.847  0.00  0.00    +0.000 HD
ENDBRANCH   2  15
TORSDOF 1
ENDMDL
MODEL 3
REMARK VINA RESULT:      -7.4      3.108      6.508
REMARK  Name = 
REMARK  1 active torsions:
REMARK  status: ('A' for Active; 'I' for Inactive)
REMARK    1  A    between atoms: C_2  and  C_3
REMARK                            x       y       z     vdW  Elec       q    Type
REMARK                         _______ _______ _______ _____ _____    ______ ____
ROOT
ATOM      1  O   UNL     1       4.540   3.331  19.517  0.00  0.00    +0.000 OA
ATOM      2  C   UNL     1       4.306   4.413  18.987  0.00  0.00    +0.000 C 
ATOM      3  N   UNL     1       3.058   5.028  19.043  0.00  0.00    +0.000 N 
ATOM      4  C   UNL     1       2.005   4.421  19.854  0.00  0.00    +0.000 C 
ATOM      5  C   UNL     1       1.627   5.363  21.001  0.00  0.00    +0.000 C 
ATOM      6  C   UNL     1       1.449   6.791  20.533  0.00  0.00    +0.000 A 
ATOM      7  C   UNL     1       0.863   7.741  21.379  0.00  0.00    +0.000 A 
ATOM      8  C   UNL     1       0.715   9.057  20.952  0.00  0.00    +0.000 A 
ATOM      9  F   UNL     1       0.171   9.959  21.778  0.00  0.00    +0.000 F 
ATOM     10  C   UNL     1       1.125   9.454  19.688  0.00  0.00    +0.000 A 
ATOM     11  C   UNL     1       1.721   8.518  18.855  0.00  0.00    +0.000 A 
ATOM     12  F   UNL     1       2.122   8.898  17.635  0.00  0.00    +0.000 F 
ATOM     13  C   UNL     1       1.925   7.197  19.271  0.00  0.00    +0.000 A 
ATOM     14  C   UNL     1       2.650   6.246  18.350  0.00  0.00    +0.000 C 
ENDROOT
BRANCH   2  15
ATOM     15  C   UNL     1       5.468   5.096  18.262  0.00  0.00    +0.000 A 
ATOM     16  N   UNL     1       6.132   6.009  18.915  0.00  0.00    +0.000 NA
ATOM     17  N   UNL     1       7.151   6.649  18.279  0.00  0.00    +0.000 N 
ATOM     18  C   UNL     1       7.483   6.521  16.954  0.00  0.00    +0.000 A 
ATOM     19  O   UNL     1       8.373   7.181  16.434  0.00  0.00    +0.000 OA
ATOM     20  C   UNL     1       6.720   5.521  16.190  0.00  0.00    +0.000 A 
ATOM     21  C   UNL     1       6.983   5.336  14.825  0.00  0.00    +0.000 A 
ATOM     22  C   UNL     1       6.277   4.373  14.108  0.00  0.00    +0.000 A 
ATOM     23  C   UNL     1       5.328   3.584  14.758  0.00  0.00    +0.000 A 
ATOM     24  C   UNL     1       5.067   3.771  16.119  0.00  0.00    +0.000 A 
ATOM     25  C   UNL     1       5.748   4.762  16.842  0.00  0.00    +0.000 A 
ATOM     26  H   UNL     1       7.674   7.330  18.821  0.00  0.00    +0.000 HD
ENDBRANCH   2  15
TORSDOF 1
ENDMDL
MODEL 4
REMARK VINA RESULT:      -7.1      3.474      5.103
REMARK  Name = 
REMARK  1 active torsions:
REMARK  status: ('A' for Active; 'I' for Inactive)
REMARK    1  A    between atoms: C_2  and  C_3
REMARK                            x       y       z     vdW  Elec       q    Type
REMARK                         _______ _______ _______ _____ _____    ______ ____
ROOT
ATOM      1  O   UNL     1       1.412   5.690  20.526  0.00  0.00    +0.000 OA
ATOM      2  C   UNL     1       2.238   6.285  19.839  0.00  0.00    +0.000 C 
ATOM      3  N   UNL     1       3.434   5.706  19.425  0.00  0.00    +0.000 N 
ATOM      4  C   UNL     1       3.680   4.296  19.723  0.00  0.00    +0.000 C 
ATOM      5  C   UNL     1       3.774   3.500  18.418  0.00  0.00    +0.000 C 
ATOM      6  C   UNL     1       4.648   4.186  17.392  0.00  0.00    +0.000 A 
ATOM      7  C   UNL     1       5.056   3.498  16.242  0.00  0.00    +0.000 A 
ATOM      8  C   UNL     1       5.847   4.136  15.291  0.00  0.00    +0.000 A 
ATOM      9  F   UNL     1       6.214   3.474  14.187  0.00  0.00    +0.000 F 
ATOM     10  C   UNL     1       6.259   5.450  15.463  0.00  0.00    +0.000 A 
ATOM     11  C   UNL     1       5.842   6.138  16.593  0.00  0.00    +0.000 A 
ATOM     12  F   UNL     1       6.235   7.408  16.761  0.00  0.00    +0.000 F 
ATOM     13  C   UNL     1       5.010   5.539  17.546  0.00  0.00    +0.000 A 
ATOM     14  C   UNL     1       4.525   6.364  18.714  0.00  0.00    +0.000 C 
ENDROOT
BRANCH   2  15
ATOM     15  C   UNL     1       1.891   7.715  19.421  0.00  0.00    +0.000 A 
ATOM     16  N   UNL     1       2.282   8.110  18.241  0.00  0.00    +0.000 NA
ATOM     17  N   UNL     1       2.009   9.387  17.861  0.00  0.00    +0.000 N 
ATOM     18  C   UNL     1       1.461  10.366  18.651  0.00  0.00    +0.000 A 
ATOM     19  O   UNL     1       1.305  11.515  18.260  0.00  0.00    +0.000 OA
ATOM     20  C   UNL     1       1.044   9.949  20.000  0.00  0.00    +0.000 A 
ATOM     21  C   UNL     1       0.490  10.889  20.881  0.00  0.00    +0.000 A 
ATOM     22  C   UNL     1       0.074  10.489  22.149  0.00  0.00    +0.000 A 
ATOM     23  C   UNL     1       0.194   9.151  22.526  0.00  0.00    +0.000 A 
ATOM     24  C   UNL     1       0.748   8.217  21.646  0.00  0.00    +0.000 A 
ATOM     25  C   UNL     1       1.202   8.616  20.381  0.00  0.00    +0.000 A 
ATOM     26  H   UNL     1       2.294   9.659  16.924  0.00  0.00    +0.000 HD
ENDBRANCH   2  15
TORSDOF 1
ENDMDL
MODEL 5
REMARK VINA RESULT:      -6.9      4.042      5.891
REMARK  Name = 
REMARK  1 active torsions:
REMARK  status: ('A' for Active; 'I' for Inactive)
REMARK    1  A    between atoms: C_2  and  C_3
REMARK                            x       y       z     vdW  Elec       q    Type
REMARK                         _______ _______ _______ _____ _____    ______ ____
ROOT
ATOM      1  O   UNL     1       2.715   8.639  17.846  0.00  0.00    +0.000 OA
ATOM      2  C   UNL     1       2.248   7.889  18.699  0.00  0.00    +0.000 C 
ATOM      3  N   UNL     1       2.250   6.503  18.567  0.00  0.00    +0.000 N 
ATOM      4  C   UNL     1       2.929   5.900  17.422  0.00  0.00    +0.000 C 
ATOM      5  C   UNL     1       4.107   5.051  17.908  0.00  0.00    +0.000 C 
ATOM      6  C   UNL     1       3.732   4.165  19.075  0.00  0.00    +0.000 A 
ATOM      7  C   UNL     1       4.595   3.144  19.490  0.00  0.00    +0.000 A 
ATOM      8  C   UNL     1       4.255   2.340  20.574  0.00  0.00    +0.000 A 
ATOM      9  F   UNL     1       5.098   1.380  20.973  0.00  0.00    +0.000 F 
ATOM     10  C   UNL     1       3.059   2.519  21.254  0.00  0.00    +0.000 A 
ATOM     11  C   UNL     1       2.210   3.541  20.855  0.00  0.00    +0.000 A 
ATOM     12  F   UNL     1       1.056   3.720  21.511  0.00  0.00    +0.000 F 
ATOM     13  C   UNL     1       2.544   4.395  19.797  0.00  0.00    +0.000 A 
ATOM     14  C   UNL     1       1.617   5.538  19.460  0.00  0.00    +0.000 C 
ENDROOT
BRANCH   2  15
ATOM     15  C   UNL     1       1.669   8.541  19.955  0.00  0.00    +0.000 A 
ATOM     16  N   UNL     1       2.064   8.080  21.109  0.00  0.00    +0.000 NA
ATOM     17  N   UNL     1       1.539   8.627  22.240  0.00  0.00    +0.000 N 
ATOM     18  C   UNL     1       0.525   9.549  22.296  0.00  0.00    +0.000 A 
ATOM     19  O   UNL     1       0.057   9.948  23.354  0.00  0.00    +0.000 OA
ATOM     20  C   UNL     1       0.040  10.056  21.001  0.00  0.00    +0.000 A 
ATOM     21  C   UNL     1      -1.006  10.989  20.965  0.00  0.00    +0.000 A 
ATOM     22  C   UNL     1      -1.449  11.486  19.741  0.00  0.00    +0.000 A 
ATOM     23  C   UNL     1      -0.833  11.068  18.561  0.00  0.00    +0.000 A 
ATOM     24  C   UNL     1       0.210  10.136  18.601  0.00  0.00    +0.000 A 
ATOM     25  C   UNL     1       0.638   9.604  19.825  0.00  0.00    +0.000 A 
ATOM     26  H   UNL     1       1.889   8.274  23.126  0.00  0.00    +0.000 HD
ENDBRANCH   2  15
TORSDOF 1
ENDMDL
MODEL 6
REMARK VINA RESULT:      -6.7      2.571      3.619
REMARK  Name = 
REMARK  1 active torsions:
REMARK  status: ('A' for Active; 'I' for Inactive)
REMARK    1  A    between atoms: C_2  and  C_3
REMARK                            x       y       z     vdW  Elec       q    Type
REMARK                         _______ _______ _______ _____ _____    ______ ____
ROOT
ATOM      1  O   UNL     1       1.088   3.678  19.246  0.00  0.00    +0.000 OA
ATOM      2  C   UNL     1       2.095   4.370  19.366  0.00  0.00    +0.000 C 
ATOM      3  N   UNL     1       3.353   3.951  18.939  0.00  0.00    +0.000 N 
ATOM      4  C   UNL     1       3.473   2.684  18.221  0.00  0.00    +0.000 C 
ATOM      5  C   UNL     1       3.962   2.943  16.793  0.00  0.00    +0.000 C 
ATOM      6  C   UNL     1       5.123   3.911  16.752  0.00  0.00    +0.000 A 
ATOM      7  C   UNL     1       5.861   4.076  15.573  0.00  0.00    +0.000 A 
ATOM      8  C   UNL     1       6.920   4.979  15.533  0.00  0.00    +0.000 A 
ATOM      9  F   UNL     1       7.605   5.140  14.395  0.00  0.00    +0.000 F 
ATOM     10  C   UNL     1       7.275   5.720  16.651  0.00  0.00    +0.000 A 
ATOM     11  C   UNL     1       6.534   5.571  17.814  0.00  0.00    +0.000 A 
ATOM     12  F   UNL     1       6.871   6.287  18.895  0.00  0.00    +0.000 F 
ATOM     13  C   UNL     1       5.437   4.704  17.874  0.00  0.00    +0.000 A 
ATOM     14  C   UNL     1       4.621   4.644  19.143  0.00  0.00    +0.000 C 
ENDROOT
BRANCH   2  15
ATOM     15  C   UNL     1       1.917   5.753  19.994  0.00  0.00    +0.000 A 
ATOM     16  N   UNL     1       1.541   5.804  21.241  0.00  0.00    +0.000 NA
ATOM     17  N   UNL     1       1.350   7.026  21.810  0.00  0.00    +0.000 N 
ATOM     18  C   UNL     1       1.392   8.235  21.164  0.00  0.00    +0.000 A 
ATOM     19  O   UNL     1       1.142   9.291  21.729  0.00  0.00    +0.000 OA
ATOM     20  C   UNL     1       1.780   8.194  19.744  0.00  0.00    +0.000 A 
ATOM     21  C   UNL     1       1.832   9.383  19.001  0.00  0.00    +0.000 A 
ATOM     22  C   UNL     1       2.222   9.347  17.664  0.00  0.00    +0.000 A 
ATOM     23  C   UNL     1       2.579   8.132  17.080  0.00  0.00    +0.000 A 
ATOM     24  C   UNL     1       2.524   6.948  17.823  0.00  0.00    +0.000 A 
ATOM     25  C   UNL     1       2.099   6.969  19.159  0.00  0.00    +0.000 A 
ATOM     26  H   UNL     1       1.091   7.038  22.793  0.00  0.00    +0.000 HD
ENDBRANCH   2  15
TORSDOF 1
ENDMDL
MODEL 7
REMARK VINA RESULT:      -6.6      9.380     10.880
REMARK  Name = 
REMARK  1 active torsions:
REMARK  status: ('A' for Active; 'I' for Inactive)
REMARK    1  A    between atoms: C_2  and  C_3
REMARK                            x       y       z     vdW  Elec       q    Type
REMARK                         _______ _______ _______ _____ _____    ______ ____
ROOT
ATOM      1  O   UNL     1       7.372  18.268  19.327  0.00  0.00    +0.000 OA
ATOM      2  C   UNL     1       7.112  17.141  18.915  0.00  0.00    +0.000 C 
ATOM      3  N   UNL     1       8.034  16.357  18.227  0.00  0.00    +0.000 N 
ATOM      4  C   UNL     1       9.405  16.842  18.078  0.00  0.00    +0.000 C 
ATOM      5  C   UNL     1      10.368  15.906  18.814  0.00  0.00    +0.000 C 
ATOM      6  C   UNL     1      10.080  14.449  18.528  0.00  0.00    +0.000 A 
ATOM      7  C   UNL     1      11.001  13.463  18.904  0.00  0.00    +0.000 A 
ATOM      8  C   UNL     1      10.727  12.121  18.655  0.00  0.00    +0.000 A 
ATOM      9  F   UNL     1      11.606  11.188  19.037  0.00  0.00    +0.000 F 
ATOM     10  C   UNL     1       9.555  11.733  18.021  0.00  0.00    +0.000 A 
ATOM     11  C   UNL     1       8.635  12.707  17.662  0.00  0.00    +0.000 A 
ATOM     12  F   UNL     1       7.501  12.335  17.053  0.00  0.00    +0.000 F 
ATOM     13  C   UNL     1       8.861  14.060  17.939  0.00  0.00    +0.000 A 
ATOM     14  C   UNL     1       7.787  15.065  17.596  0.00  0.00    +0.000 C 
ENDROOT
BRANCH   2  15
ATOM     15  C   UNL     1       5.712  16.600  19.209  0.00  0.00    +0.000 A 
ATOM     16  N   UNL     1       4.723  17.073  18.504  0.00  0.00    +0.000 NA
ATOM     17  N   UNL     1       3.465  16.626  18.769  0.00  0.00    +0.000 N 
ATOM     18  C   UNL     1       3.101  15.803  19.804  0.00  0.00    +0.000 A 
ATOM     19  O   UNL     1       1.937  15.495  20.021  0.00  0.00    +0.000 OA
ATOM     20  C   UNL     1       4.201  15.286  20.635  0.00  0.00    +0.000 A 
ATOM     21  C   UNL     1       3.919  14.451  21.726  0.00  0.00    +0.000 A 
ATOM     22  C   UNL     1       4.961  13.942  22.498  0.00  0.00    +0.000 A 
ATOM     23  C   UNL     1       6.280  14.251  22.167  0.00  0.00    +0.000 A 
ATOM     24  C   UNL     1       6.559  15.085  21.079  0.00  0.00    +0.000 A 
ATOM     25  C   UNL     1       5.515  15.630  20.318  0.00  0.00    +0.000 A 
ATOM     26  H   UNL     1       2.717  16.984  18.182  0.00  0.00    +0.000 HD
ENDBRANCH   2  15
TORSDOF 1
ENDMDL
MODEL 8
REMARK VINA RESULT:      -6.6      9.335     12.253
REMARK  Name = 
REMARK  1 active torsions:
REMARK  status: ('A' for Active; 'I' for Inactive)
REMARK    1  A    between atoms: C_2  and  C_3
REMARK                            x       y       z     vdW  Elec       q    Type
REMARK                         _______ _______ _______ _____ _____    ______ ____
ROOT
ATOM      1  O   UNL     1      -0.716  13.755  23.678  0.00  0.00    +0.000 OA
ATOM      2  C   UNL     1      -1.595  13.082  23.147  0.00  0.00    +0.000 C 
ATOM      3  N   UNL     1      -2.906  13.529  23.006  0.00  0.00    +0.000 N 
ATOM      4  C   UNL     1      -3.237  14.896  23.404  0.00  0.00    +0.000 C 
ATOM      5  C   UNL     1      -3.681  15.699  22.178  0.00  0.00    +0.000 C 
ATOM      6  C   UNL     1      -4.666  14.936  21.321  0.00  0.00    +0.000 A 
ATOM      7  C   UNL     1      -5.372  15.594  20.305  0.00  0.00    +0.000 A 
ATOM      8  C   UNL     1      -6.266  14.887  19.507  0.00  0.00    +0.000 A 
ATOM      9  F   UNL     1      -6.920  15.523  18.528  0.00  0.00    +0.000 F 
ATOM     10  C   UNL     1      -6.490  13.532  19.705  0.00  0.00    +0.000 A 
ATOM     11  C   UNL     1      -5.780  12.876  20.699  0.00  0.00    +0.000 A 
ATOM     12  F   UNL     1      -5.991  11.567  20.890  0.00  0.00    +0.000 F 
ATOM     13  C   UNL     1      -4.841  13.549  21.489  0.00  0.00    +0.000 A 
ATOM     14  C   UNL     1      -4.042  12.763  22.502  0.00  0.00    +0.000 C 
ENDROOT
BRANCH   2  15
ATOM     15  C   UNL     1      -1.189  11.709  22.610  0.00  0.00    +0.000 A 
ATOM     16  N   UNL     1      -1.012  10.751  23.477  0.00  0.00    +0.000 NA
ATOM     17  N   UNL     1      -0.623   9.529  23.023  0.00  0.00    +0.000 N 
ATOM     18  C   UNL     1      -0.269   9.221  21.733  0.00  0.00    +0.000 A 
ATOM     19  O   UNL     1       0.136   8.112  21.410  0.00  0.00    +0.000 OA
ATOM     20  C   UNL     1      -0.428  10.300  20.745  0.00  0.00    +0.000 A 
ATOM     21  C   UNL     1      -0.074  10.078  19.406  0.00  0.00    +0.000 A 
ATOM     22  C   UNL     1      -0.247  11.092  18.466  0.00  0.00    +0.000 A 
ATOM     23  C   UNL     1      -0.790  12.314  18.860  0.00  0.00    +0.000 A 
ATOM     24  C   UNL     1      -1.140  12.534  20.196  0.00  0.00    +0.000 A 
ATOM     25  C   UNL     1      -0.938  11.532  21.156  0.00  0.00    +0.000 A 
ATOM     26  H   UNL     1      -0.526   8.791  23.715  0.00  0.00    +0.000 HD
ENDBRANCH   2  15
TORSDOF 1
ENDMDL
MODEL 9
REMARK VINA RESULT:      -6.5      8.908     11.659
REMARK  Name = 
REMARK  1 active torsions:
REMARK  status: ('A' for Active; 'I' for Inactive)
REMARK    1  A    between atoms: C_2  and  C_3
REMARK                            x       y       z     vdW  Elec       q    Type
REMARK                         _______ _______ _______ _____ _____    ______ ____
ROOT
ATOM      1  O   UNL     1      -0.406  14.961  18.785  0.00  0.00    +0.000 OA
ATOM      2  C   UNL     1      -0.566  14.063  19.607  0.00  0.00    +0.000 C 
ATOM      3  N   UNL     1      -1.091  14.287  20.877  0.00  0.00    +0.000 N 
ATOM      4  C   UNL     1      -1.576  15.623  21.218  0.00  0.00    +0.000 C 
ATOM      5  C   UNL     1      -3.084  15.575  21.480  0.00  0.00    +0.000 C 
ATOM      6  C   UNL     1      -3.473  14.414  22.369  0.00  0.00    +0.000 A 
ATOM      7  C   UNL     1      -4.759  14.351  22.921  0.00  0.00    +0.000 A 
ATOM      8  C   UNL     1      -5.120  13.274  23.726  0.00  0.00    +0.000 A 
ATOM      9  F   UNL     1      -6.358  13.216  24.232  0.00  0.00    +0.000 F 
ATOM     10  C   UNL     1      -4.222  12.256  24.010  0.00  0.00    +0.000 A 
ATOM     11  C   UNL     1      -2.954  12.309  23.450  0.00  0.00    +0.000 A 
ATOM     12  F   UNL     1      -2.085  11.325  23.719  0.00  0.00    +0.000 F 
ATOM     13  C   UNL     1      -2.574  13.355  22.601  0.00  0.00    +0.000 A 
ATOM     14  C   UNL     1      -1.208  13.316  21.959  0.00  0.00    +0.000 C 
ENDROOT
BRANCH   2  15
ATOM     15  C   UNL     1      -0.181  12.648  19.173  0.00  0.00    +0.000 A 
ATOM     16  N   UNL     1       1.079  12.321  19.234  0.00  0.00    +0.000 NA
ATOM     17  N   UNL     1       1.447  11.075  18.826  0.00  0.00    +0.000 N 
ATOM     18  C   UNL     1       0.632  10.148  18.228  0.00  0.00    +0.000 A 
ATOM     19  O   UNL     1       1.048   9.070  17.825  0.00  0.00    +0.000 OA
ATOM     20  C   UNL     1      -0.790  10.513  18.117  0.00  0.00    +0.000 A 
ATOM     21  C   UNL     1      -1.692   9.631  17.504  0.00  0.00    +0.000 A 
ATOM     22  C   UNL     1      -3.041   9.966  17.420  0.00  0.00    +0.000 A 
ATOM     23  C   UNL     1      -3.489  11.169  17.967  0.00  0.00    +0.000 A 
ATOM     24  C   UNL     1      -2.588  12.048  18.576  0.00  0.00    +0.000 A 
ATOM     25  C   UNL     1      -1.222  11.734  18.634  0.00  0.00    +0.000 A 
ATOM     26  H   UNL     1       2.429  10.834  18.916  0.00  0.00    +0.000 HD
ENDBRANCH   2  15
TORSDOF 1
ENDMDL
