MODEL 1
REMARK VINA RESULT:      -7.5      0.000      0.000
REMARK  Name = 
REMARK  2 active torsions:
REMARK  status: ('A' for Active; 'I' for Inactive)
REMARK    1  A    between atoms: C_7  and  S_8
REMARK    2  A    between atoms: S_8  and  N_11
REMARK                            x       y       z     vdW  Elec       q    Type
REMARK                         _______ _______ _______ _____ _____    ______ ____
ROOT
ATOM      1  S   UNL     1      -1.012  13.524  22.033  0.00  0.00    +0.000 S 
ATOM      2  O   UNL     1      -0.385  13.345  23.330  0.00  0.00    +0.000 OA
ATOM      3  O   UNL     1      -1.263  14.854  21.527  0.00  0.00    +0.000 OA
ENDROOT
BRANCH   1  10
ATOM      4  O   UNL     1       2.014   8.086  17.825  0.00  0.00    +0.000 OA
ATOM      5  C   UNL     1       1.665   9.090  18.409  0.00  0.00    +0.000 C 
ATOM      6  N   UNL     1       1.672  10.369  17.871  0.00  0.00    +0.000 N 
ATOM      7  C   UNL     1       1.196  11.316  18.761  0.00  0.00    +0.000 A 
ATOM      8  C   UNL     1       1.006  12.673  18.605  0.00  0.00    +0.000 A 
ATOM      9  C   UNL     1       0.411  13.325  19.700  0.00  0.00    +0.000 A 
ATOM     10  C   UNL     1       0.049  12.628  20.892  0.00  0.00    +0.000 A 
ATOM     11  C   UNL     1       0.316  11.234  21.033  0.00  0.00    +0.000 A 
ATOM     12  C   UNL     1       0.082  10.321  22.091  0.00  0.00    +0.000 A 
ATOM     13  C   UNL     1       0.368   8.945  21.956  0.00  0.00    +0.000 A 
ATOM     14  C   UNL     1       0.895   8.410  20.772  0.00  0.00    +0.000 A 
ATOM     15  C   UNL     1       1.154   9.312  19.747  0.00  0.00    +0.000 A 
ATOM     16  C   UNL     1       0.875  10.658  19.930  0.00  0.00    +0.000 A 
ATOM     17  H   UNL     1       1.958  10.547  16.918  0.00  0.00    +0.000 HD
ENDBRANCH   1  10
BRANCH   1  18
ATOM     18  N   UNL     1      -2.424  12.623  22.003  0.00  0.00    +0.000 N 
ATOM     19  C   UNL     1      -3.119  12.293  23.280  0.00  0.00    +0.000 C 
ATOM     20  C   UNL     1      -4.418  13.241  23.423  0.00  0.00    +0.000 C 
ATOM     21  C   UNL     1      -4.953  14.865  23.341  0.00  0.00    +0.000 C 
ATOM     22  C   UNL     1      -4.062  15.290  24.460  0.00  0.00    +0.000 C 
ATOM     23  C   UNL     1      -3.777  13.844  24.718  0.00  0.00    +0.000 C 
ATOM     24  C   UNL     1      -4.654  12.969  21.834  0.00  0.00    +0.000 A 
ATOM     25  C   UNL     1      -5.823  12.485  21.232  0.00  0.00    +0.000 A 
ATOM     26  C   UNL     1      -5.778  11.981  19.925  0.00  0.00    +0.000 A 
ATOM     27  C   UNL     1      -4.599  12.053  19.169  0.00  0.00    +0.000 A 
ATOM     28  C   UNL     1      -3.423  12.537  19.738  0.00  0.00    +0.000 A 
ATOM     29  C   UNL     1      -3.470  12.874  21.079  0.00  0.00    +0.000 A 
ENDBRANCH   1  18
TORSDOF 2
ENDMDL
MODEL 2
REMARK VINA RESULT:      -7.2      1.525      2.426
REMARK  Name = 
REMARK  2 active torsions:
REMARK  status: ('A' for Active; 'I' for Inactive)
REMARK    1  A    between atoms: C_7  and  S_8
REMARK    2  A    between atoms: S_8  and  N_11
REMARK                            x       y       z     vdW  Elec       q    Type
REMARK                         _______ _______ _______ _____ _____    ______ ____
ROOT
ATOM      1  S   UNL     1      -1.729  12.853  22.067  0.00  0.00    +0.000 S 
ATOM      2  O   UNL     1      -1.010  13.452  23.176  0.00  0.00    +0.000 OA
ATOM      3  O   UNL     1      -1.787  13.528  20.791  0.00  0.00    +0.000 OA
ENDROOT
BRANCH   1  10
ATOM      4  O   UNL     1       2.579   7.199  19.636  0.00  0.00    +0.000 OA
ATOM      5  C   UNL     1       1.817   7.975  20.172  0.00  0.00    +0.000 C 
ATOM      6  N   UNL     1       1.523   7.994  21.529  0.00  0.00    +0.000 N 
ATOM      7  C   UNL     1       0.637   9.005  21.861  0.00  0.00    +0.000 A 
ATOM      8  C   UNL     1       0.131   9.382  23.087  0.00  0.00    +0.000 A 
ATOM      9  C   UNL     1      -0.686  10.527  23.070  0.00  0.00    +0.000 A 
ATOM     10  C   UNL     1      -0.979  11.232  21.866  0.00  0.00    +0.000 A 
ATOM     11  C   UNL     1      -0.481  10.773  20.610  0.00  0.00    +0.000 A 
ATOM     12  C   UNL     1      -0.631  11.262  19.288  0.00  0.00    +0.000 A 
ATOM     13  C   UNL     1       0.041  10.665  18.200  0.00  0.00    +0.000 A 
ATOM     14  C   UNL     1       0.893   9.564  18.368  0.00  0.00    +0.000 A 
ATOM     15  C   UNL     1       1.013   9.066  19.659  0.00  0.00    +0.000 A 
ATOM     16  C   UNL     1       0.319   9.671  20.697  0.00  0.00    +0.000 A 
ATOM     17  H   UNL     1       1.957   7.354  22.180  0.00  0.00    +0.000 HD
ENDBRANCH   1  10
BRANCH   1  18
ATOM     18  N   UNL     1      -3.278  12.476  22.586  0.00  0.00    +0.000 N 
ATOM     19  C   UNL     1      -3.631  12.621  24.027  0.00  0.00    +0.000 C 
ATOM     20  C   UNL     1      -4.524  13.953  24.212  0.00  0.00    +0.000 C 
ATOM     21  C   UNL     1      -4.598  15.622  23.841  0.00  0.00    +0.000 C 
ATOM     22  C   UNL     1      -3.339  15.917  24.585  0.00  0.00    +0.000 C 
ATOM     23  C   UNL     1      -3.393  14.526  25.132  0.00  0.00    +0.000 C 
ATOM     24  C   UNL     1      -5.278  13.503  22.840  0.00  0.00    +0.000 A 
ATOM     25  C   UNL     1      -6.657  13.334  22.660  0.00  0.00    +0.000 A 
ATOM     26  C   UNL     1      -7.136  12.625  21.550  0.00  0.00    +0.000 A 
ATOM     27  C   UNL     1      -6.256  12.172  20.556  0.00  0.00    +0.000 A 
ATOM     28  C   UNL     1      -4.880  12.333  20.703  0.00  0.00    +0.000 A 
ATOM     29  C   UNL     1      -4.439  12.894  21.888  0.00  0.00    +0.000 A 
ENDBRANCH   1  18
TORSDOF 2
ENDMDL
MODEL 3
REMARK VINA RESULT:      -7.2      1.516      1.874
REMARK  Name = 
REMARK  2 active torsions:
REMARK  status: ('A' for Active; 'I' for Inactive)
REMARK    1  A    between atoms: C_7  and  S_8
REMARK    2  A    between atoms: S_8  and  N_11
REMARK                            x       y       z     vdW  Elec       q    Type
REMARK                         _______ _______ _______ _____ _____    ______ ____
ROOT
ATOM      1  S   UNL     1      -2.892  13.922  21.656  0.00  0.00    +0.000 S 
ATOM      2  O   UNL     1      -2.519  14.141  23.042  0.00  0.00    +0.000 OA
ATOM      3  O   UNL     1      -3.191  15.046  20.800  0.00  0.00    +0.000 OA
ENDROOT
BRANCH   1  10
ATOM      4  O   UNL     1       1.672   8.267  19.750  0.00  0.00    +0.000 OA
ATOM      5  C   UNL     1       1.062   9.298  19.938  0.00  0.00    +0.000 C 
ATOM      6  N   UNL     1       0.912  10.317  19.007  0.00  0.00    +0.000 N 
ATOM      7  C   UNL     1       0.143  11.361  19.491  0.00  0.00    +0.000 A 
ATOM      8  C   UNL     1      -0.268  12.527  18.878  0.00  0.00    +0.000 A 
ATOM      9  C   UNL     1      -1.128  13.335  19.644  0.00  0.00    +0.000 A 
ATOM     10  C   UNL     1      -1.528  12.977  20.966  0.00  0.00    +0.000 A 
ATOM     11  C   UNL     1      -1.032  11.790  21.583  0.00  0.00    +0.000 A 
ATOM     12  C   UNL     1      -1.248  11.219  22.863  0.00  0.00    +0.000 A 
ATOM     13  C   UNL     1      -0.696   9.969  23.216  0.00  0.00    +0.000 A 
ATOM     14  C   UNL     1       0.089   9.226  22.322  0.00  0.00    +0.000 A 
ATOM     15  C   UNL     1       0.326   9.802  21.081  0.00  0.00    +0.000 A 
ATOM     16  C   UNL     1      -0.220  11.042  20.782  0.00  0.00    +0.000 A 
ATOM     17  H   UNL     1       1.298  10.252  18.076  0.00  0.00    +0.000 HD
ENDBRANCH   1  10
BRANCH   1  18
ATOM     18  N   UNL     1      -4.154  12.821  21.619  0.00  0.00    +0.000 N 
ATOM     19  C   UNL     1      -5.046  12.676  22.805  0.00  0.00    +0.000 C 
ATOM     20  C   UNL     1      -6.450  13.409  22.492  0.00  0.00    +0.000 C 
ATOM     21  C   UNL     1      -7.144  14.866  21.921  0.00  0.00    +0.000 C 
ATOM     22  C   UNL     1      -6.550  15.668  23.030  0.00  0.00    +0.000 C 
ATOM     23  C   UNL     1      -6.154  14.382  23.683  0.00  0.00    +0.000 C 
ATOM     24  C   UNL     1      -6.331  12.756  21.004  0.00  0.00    +0.000 A 
ATOM     25  C   UNL     1      -7.291  11.967  20.357  0.00  0.00    +0.000 A 
ATOM     26  C   UNL     1      -6.930  11.198  19.243  0.00  0.00    +0.000 A 
ATOM     27  C   UNL     1      -5.640  11.289  18.698  0.00  0.00    +0.000 A 
ATOM     28  C   UNL     1      -4.666  12.072  19.314  0.00  0.00    +0.000 A 
ATOM     29  C   UNL     1      -5.018  12.687  20.502  0.00  0.00    +0.000 A 
ENDBRANCH   1  18
TORSDOF 2
ENDMDL
MODEL 4
REMARK VINA RESULT:      -7.2      2.017      6.927
REMARK  Name = 
REMARK  2 active torsions:
REMARK  status: ('A' for Active; 'I' for Inactive)
REMARK    1  A    between atoms: C_7  and  S_8
REMARK    2  A    between atoms: S_8  and  N_11
REMARK                            x       y       z     vdW  Elec       q    Type
REMARK                         _______ _______ _______ _____ _____    ______ ____
ROOT
ATOM      1  S   UNL     1      -0.964  13.816  21.582  0.00  0.00    +0.000 S 
ATOM      2  O   UNL     1      -1.131  14.797  20.524  0.00  0.00    +0.000 OA
ATOM      3  O   UNL     1       0.137  13.932  22.510  0.00  0.00    +0.000 OA
ENDROOT
BRANCH   1  10
ATOM      4  O   UNL     1      -7.914  12.207  23.935  0.00  0.00    +0.000 OA
ATOM      5  C   UNL     1      -6.791  12.606  23.713  0.00  0.00    +0.000 C 
ATOM      6  N   UNL     1      -5.889  13.030  24.679  0.00  0.00    +0.000 N 
ATOM      7  C   UNL     1      -4.674  13.407  24.135  0.00  0.00    +0.000 A 
ATOM      8  C   UNL     1      -3.518  13.844  24.748  0.00  0.00    +0.000 A 
ATOM      9  C   UNL     1      -2.427  14.055  23.886  0.00  0.00    +0.000 A 
ATOM     10  C   UNL     1      -2.521  13.848  22.477  0.00  0.00    +0.000 A 
ATOM     11  C   UNL     1      -3.754  13.451  21.879  0.00  0.00    +0.000 A 
ATOM     12  C   UNL     1      -4.123  13.199  20.533  0.00  0.00    +0.000 A 
ATOM     13  C   UNL     1      -5.411  12.730  20.197  0.00  0.00    +0.000 A 
ATOM     14  C   UNL     1      -6.389  12.487  21.171  0.00  0.00    +0.000 A 
ATOM     15  C   UNL     1      -6.037  12.767  22.485  0.00  0.00    +0.000 A 
ATOM     16  C   UNL     1      -4.766  13.244  22.769  0.00  0.00    +0.000 A 
ATOM     17  H   UNL     1      -6.114  13.013  25.665  0.00  0.00    +0.000 HD
ENDBRANCH   1  10
BRANCH   1  18
ATOM     18  N   UNL     1      -0.971  12.290  20.890  0.00  0.00    +0.000 N 
ATOM     19  C   UNL     1      -0.975  12.150  19.406  0.00  0.00    +0.000 C 
ATOM     20  C   UNL     1       0.504  11.722  18.921  0.00  0.00    +0.000 C 
ATOM     21  C   UNL     1       2.164  12.112  19.061  0.00  0.00    +0.000 C 
ATOM     22  C   UNL     1       1.967  13.473  18.482  0.00  0.00    +0.000 C 
ATOM     23  C   UNL     1       0.576  13.062  18.115  0.00  0.00    +0.000 C 
ATOM     24  C   UNL     1       0.518  10.727  20.211  0.00  0.00    +0.000 A 
ATOM     25  C   UNL     1       0.775   9.350  20.204  0.00  0.00    +0.000 A 
ATOM     26  C   UNL     1       0.423   8.567  21.312  0.00  0.00    +0.000 A 
ATOM     27  C   UNL     1      -0.087   9.161  22.476  0.00  0.00    +0.000 A 
ATOM     28  C   UNL     1      -0.345  10.530  22.516  0.00  0.00    +0.000 A 
ATOM     29  C   UNL     1      -0.135  11.240  21.348  0.00  0.00    +0.000 A 
ENDBRANCH   1  18
TORSDOF 2
ENDMDL
MODEL 5
REMARK VINA RESULT:      -7.1      7.366      9.984
REMARK  Name = 
REMARK  2 active torsions:
REMARK  status: ('A' for Active; 'I' for Inactive)
REMARK    1  A    between atoms: C_7  and  S_8
REMARK    2  A    between atoms: S_8  and  N_11
REMARK                            x       y       z     vdW  Elec       q    Type
REMARK                         _______ _______ _______ _____ _____    ______ ____
ROOT
ATOM      1  S   UNL     1       2.682   3.241  17.543  0.00  0.00    +0.000 S 
ATOM      2  O   UNL     1       2.607   3.525  16.122  0.00  0.00    +0.000 OA
ATOM      3  O   UNL     1       2.459   1.897  18.026  0.00  0.00    +0.000 OA
ENDROOT
BRANCH   1  10
ATOM      4  O   UNL     1       8.733   7.530  18.742  0.00  0.00    +0.000 OA
ATOM      5  C   UNL     1       7.864   6.689  18.651  0.00  0.00    +0.000 C 
ATOM      6  N   UNL     1       7.591   5.717  19.604  0.00  0.00    +0.000 N 
ATOM      7  C   UNL     1       6.527   4.909  19.242  0.00  0.00    +0.000 A 
ATOM      8  C   UNL     1       5.924   3.869  19.918  0.00  0.00    +0.000 A 
ATOM      9  C   UNL     1       4.794   3.320  19.287  0.00  0.00    +0.000 A 
ATOM     10  C   UNL     1       4.320   3.798  18.029  0.00  0.00    +0.000 A 
ATOM     11  C   UNL     1       5.009   4.838  17.337  0.00  0.00    +0.000 A 
ATOM     12  C   UNL     1       4.771   5.475  16.093  0.00  0.00    +0.000 A 
ATOM     13  C   UNL     1       5.566   6.557  15.654  0.00  0.00    +0.000 A 
ATOM     14  C   UNL     1       6.625   7.058  16.423  0.00  0.00    +0.000 A 
ATOM     15  C   UNL     1       6.877   6.411  17.626  0.00  0.00    +0.000 A 
ATOM     16  C   UNL     1       6.084   5.340  18.010  0.00  0.00    +0.000 A 
ATOM     17  H   UNL     1       8.104   5.661  20.473  0.00  0.00    +0.000 HD
ENDBRANCH   1  10
BRANCH   1  18
ATOM     18  N   UNL     1       1.678   4.313  18.349  0.00  0.00    +0.000 N 
ATOM     19  C   UNL     1       0.664   3.797  19.311  0.00  0.00    +0.000 C 
ATOM     20  C   UNL     1       1.187   4.070  20.814  0.00  0.00    +0.000 C 
ATOM     21  C   UNL     1       2.533   3.890  21.855  0.00  0.00    +0.000 C 
ATOM     22  C   UNL     1       2.517   2.403  21.737  0.00  0.00    +0.000 C 
ATOM     23  C   UNL     1       1.198   2.521  21.041  0.00  0.00    +0.000 C 
ATOM     24  C   UNL     1       1.673   5.523  20.261  0.00  0.00    +0.000 A 
ATOM     25  C   UNL     1       1.343   6.775  20.795  0.00  0.00    +0.000 A 
ATOM     26  C   UNL     1       1.541   7.935  20.034  0.00  0.00    +0.000 A 
ATOM     27  C   UNL     1       2.168   7.871  18.781  0.00  0.00    +0.000 A 
ATOM     28  C   UNL     1       2.515   6.641  18.226  0.00  0.00    +0.000 A 
ATOM     29  C   UNL     1       2.156   5.511  18.939  0.00  0.00    +0.000 A 
ENDBRANCH   1  18
TORSDOF 2
ENDMDL
MODEL 6
REMARK VINA RESULT:      -7.1      1.504      2.398
REMARK  Name = 
REMARK  2 active torsions:
REMARK  status: ('A' for Active; 'I' for Inactive)
REMARK    1  A    between atoms: C_7  and  S_8
REMARK    2  A    between atoms: S_8  and  N_11
REMARK                            x       y       z     vdW  Elec       q    Type
REMARK                         _______ _______ _______ _____ _____    ______ ____
ROOT
ATOM      1  S   UNL     1      -1.871  12.980  22.099  0.00  0.00    +0.000 S 
ATOM      2  O   UNL     1      -1.626  13.337  23.485  0.00  0.00    +0.000 OA
ATOM      3  O   UNL     1      -1.425  13.851  21.037  0.00  0.00    +0.000 OA
ENDROOT
BRANCH   1  10
ATOM      4  O   UNL     1       2.479   7.321  19.755  0.00  0.00    +0.000 OA
ATOM      5  C   UNL     1       1.706   8.097  20.276  0.00  0.00    +0.000 C 
ATOM      6  N   UNL     1       1.381   8.114  21.625  0.00  0.00    +0.000 N 
ATOM      7  C   UNL     1       0.491   9.126  21.939  0.00  0.00    +0.000 A 
ATOM      8  C   UNL     1      -0.043   9.502  23.154  0.00  0.00    +0.000 A 
ATOM      9  C   UNL     1      -0.856  10.649  23.121  0.00  0.00    +0.000 A 
ATOM     10  C   UNL     1      -1.120  11.358  21.911  0.00  0.00    +0.000 A 
ATOM     11  C   UNL     1      -0.594  10.900  20.667  0.00  0.00    +0.000 A 
ATOM     12  C   UNL     1      -0.713  11.392  19.343  0.00  0.00    +0.000 A 
ATOM     13  C   UNL     1      -0.017  10.796  18.269  0.00  0.00    +0.000 A 
ATOM     14  C   UNL     1       0.828   9.692  18.454  0.00  0.00    +0.000 A 
ATOM     15  C   UNL     1       0.917   9.192  19.747  0.00  0.00    +0.000 A 
ATOM     16  C   UNL     1       0.201   9.796  20.769  0.00  0.00    +0.000 A 
ATOM     17  H   UNL     1       1.799   7.471  22.284  0.00  0.00    +0.000 HD
ENDBRANCH   1  10
BRANCH   1  18
ATOM     18  N   UNL     1      -3.504  12.649  21.922  0.00  0.00    +0.000 N 
ATOM     19  C   UNL     1      -4.447  12.962  23.033  0.00  0.00    +0.000 C 
ATOM     20  C   UNL     1      -5.274  14.295  22.651  0.00  0.00    +0.000 C 
ATOM     21  C   UNL     1      -5.108  15.906  22.096  0.00  0.00    +0.000 C 
ATOM     22  C   UNL     1      -4.292  16.305  23.280  0.00  0.00    +0.000 C 
ATOM     23  C   UNL     1      -4.640  14.990  23.903  0.00  0.00    +0.000 C 
ATOM     24  C   UNL     1      -5.368  13.673  21.149  0.00  0.00    +0.000 A 
ATOM     25  C   UNL     1      -6.534  13.465  20.400  0.00  0.00    +0.000 A 
ATOM     26  C   UNL     1      -6.506  12.620  19.282  0.00  0.00    +0.000 A 
ATOM     27  C   UNL     1      -5.298  12.062  18.836  0.00  0.00    +0.000 A 
ATOM     28  C   UNL     1      -4.121  12.257  19.555  0.00  0.00    +0.000 A 
ATOM     29  C   UNL     1      -4.223  12.964  20.741  0.00  0.00    +0.000 A 
ENDBRANCH   1  18
TORSDOF 2
ENDMDL
MODEL 7
REMARK VINA RESULT:      -7.0      3.027      5.193
REMARK  Name = 
REMARK  2 active torsions:
REMARK  status: ('A' for Active; 'I' for Inactive)
REMARK    1  A    between atoms: C_7  and  S_8
REMARK    2  A    between atoms: S_8  and  N_11
REMARK                            x       y       z     vdW  Elec       q    Type
REMARK                         _______ _______ _______ _____ _____    ______ ____
ROOT
ATOM      1  S   UNL     1       0.911  11.227  19.104  0.00  0.00    +0.000 S 
ATOM      2  O   UNL     1       2.146  11.517  18.398  0.00  0.00    +0.000 OA
ATOM      3  O   UNL     1      -0.362  11.456  18.461  0.00  0.00    +0.000 OA
ENDROOT
BRANCH   1  10
ATOM      4  O   UNL     1       3.574   4.282  20.162  0.00  0.00    +0.000 OA
ATOM      5  C   UNL     1       2.977   5.336  20.099  0.00  0.00    +0.000 C 
ATOM      6  N   UNL     1       2.139   5.838  21.085  0.00  0.00    +0.000 N 
ATOM      7  C   UNL     1       1.614   7.074  20.750  0.00  0.00    +0.000 A 
ATOM      8  C   UNL     1       0.784   7.915  21.462  0.00  0.00    +0.000 A 
ATOM      9  C   UNL     1       0.516   9.152  20.848  0.00  0.00    +0.000 A 
ATOM     10  C   UNL     1       1.054   9.498  19.573  0.00  0.00    +0.000 A 
ATOM     11  C   UNL     1       1.862   8.574  18.845  0.00  0.00    +0.000 A 
ATOM     12  C   UNL     1       2.494   8.652  17.579  0.00  0.00    +0.000 A 
ATOM     13  C   UNL     1       3.324   7.614  17.103  0.00  0.00    +0.000 A 
ATOM     14  C   UNL     1       3.568   6.457  17.856  0.00  0.00    +0.000 A 
ATOM     15  C   UNL     1       2.921   6.368  19.082  0.00  0.00    +0.000 A 
ATOM     16  C   UNL     1       2.100   7.403  19.502  0.00  0.00    +0.000 A 
ATOM     17  H   UNL     1       1.986   5.349  21.957  0.00  0.00    +0.000 HD
ENDBRANCH   1  10
BRANCH   1  18
ATOM     18  N   UNL     1       0.955  12.012  20.584  0.00  0.00    +0.000 N 
ATOM     19  C   UNL     1       2.062  12.963  20.884  0.00  0.00    +0.000 C 
ATOM     20  C   UNL     1       1.498  14.471  20.762  0.00  0.00    +0.000 C 
ATOM     21  C   UNL     1       0.618  15.533  19.749  0.00  0.00    +0.000 C 
ATOM     22  C   UNL     1       1.617  15.423  18.645  0.00  0.00    +0.000 C 
ATOM     23  C   UNL     1       2.520  14.709  19.600  0.00  0.00    +0.000 C 
ATOM     24  C   UNL     1       0.166  13.916  21.519  0.00  0.00    +0.000 A 
ATOM     25  C   UNL     1      -0.415  14.438  22.681  0.00  0.00    +0.000 A 
ATOM     26  C   UNL     1      -1.338  13.672  23.406  0.00  0.00    +0.000 A 
ATOM     27  C   UNL     1      -1.772  12.428  22.925  0.00  0.00    +0.000 A 
ATOM     28  C   UNL     1      -1.218  11.886  21.766  0.00  0.00    +0.000 A 
ATOM     29  C   UNL     1      -0.194  12.601  21.170  0.00  0.00    +0.000 A 
ENDBRANCH   1  18
TORSDOF 2
ENDMDL
MODEL 8
REMARK VINA RESULT:      -6.9      2.224      3.800
REMARK  Name = 
REMARK  2 active torsions:
REMARK  status: ('A' for Active; 'I' for Inactive)
REMARK    1  A    between atoms: C_7  and  S_8
REMARK    2  A    between atoms: S_8  and  N_11
REMARK                            x       y       z     vdW  Elec       q    Type
REMARK                         _______ _______ _______ _____ _____    ______ ____
ROOT
ATOM      1  S   UNL     1      -2.695  13.531  21.270  0.00  0.00    +0.000 S 
ATOM      2  O   UNL     1      -1.401  13.692  21.907  0.00  0.00    +0.000 OA
ATOM      3  O   UNL     1      -3.332  14.658  20.628  0.00  0.00    +0.000 OA
ENDROOT
BRANCH   1  10
ATOM      4  O   UNL     1      -2.755   9.485  14.940  0.00  0.00    +0.000 OA
ATOM      5  C   UNL     1      -2.628   9.982  16.039  0.00  0.00    +0.000 C 
ATOM      6  N   UNL     1      -1.503   9.862  16.843  0.00  0.00    +0.000 N 
ATOM      7  C   UNL     1      -1.632  10.556  18.034  0.00  0.00    +0.000 A 
ATOM      8  C   UNL     1      -0.740  10.721  19.073  0.00  0.00    +0.000 A 
ATOM      9  C   UNL     1      -1.171  11.576  20.102  0.00  0.00    +0.000 A 
ATOM     10  C   UNL     1      -2.449  12.210  20.076  0.00  0.00    +0.000 A 
ATOM     11  C   UNL     1      -3.364  11.965  19.009  0.00  0.00    +0.000 A 
ATOM     12  C   UNL     1      -4.675  12.439  18.750  0.00  0.00    +0.000 A 
ATOM     13  C   UNL     1      -5.357  12.108  17.559  0.00  0.00    +0.000 A 
ATOM     14  C   UNL     1      -4.776  11.299  16.573  0.00  0.00    +0.000 A 
ATOM     15  C   UNL     1      -3.505  10.809  16.844  0.00  0.00    +0.000 A 
ATOM     16  C   UNL     1      -2.879  11.144  18.035  0.00  0.00    +0.000 A 
ATOM     17  H   UNL     1      -0.683   9.352  16.544  0.00  0.00    +0.000 HD
ENDBRANCH   1  10
BRANCH   1  18
ATOM     18  N   UNL     1      -3.743  12.833  22.375  0.00  0.00    +0.000 N 
ATOM     19  C   UNL     1      -3.369  12.779  23.817  0.00  0.00    +0.000 C 
ATOM     20  C   UNL     1      -4.209  13.904  24.615  0.00  0.00    +0.000 C 
ATOM     21  C   UNL     1      -4.647  15.558  24.605  0.00  0.00    +0.000 C 
ATOM     22  C   UNL     1      -3.229  16.009  24.718  0.00  0.00    +0.000 C 
ATOM     23  C   UNL     1      -2.850  14.587  24.988  0.00  0.00    +0.000 C 
ATOM     24  C   UNL     1      -5.475  13.451  23.695  0.00  0.00    +0.000 A 
ATOM     25  C   UNL     1      -6.738  13.051  24.148  0.00  0.00    +0.000 A 
ATOM     26  C   UNL     1      -7.608  12.371  23.285  0.00  0.00    +0.000 A 
ATOM     27  C   UNL     1      -7.274  12.179  21.936  0.00  0.00    +0.000 A 
ATOM     28  C   UNL     1      -6.028  12.574  21.454  0.00  0.00    +0.000 A 
ATOM     29  C   UNL     1      -5.137  13.095  22.376  0.00  0.00    +0.000 A 
ENDBRANCH   1  18
TORSDOF 2
ENDMDL
MODEL 9
REMARK VINA RESULT:      -6.9      2.364      6.889
REMARK  Name = 
REMARK  2 active torsions:
REMARK  status: ('A' for Active; 'I' for Inactive)
REMARK    1  A    between atoms: C_7  and  S_8
REMARK    2  A    between atoms: S_8  and  N_11
REMARK                            x       y       z     vdW  Elec       q    Type
REMARK                         _______ _______ _______ _____ _____    ______ ____
ROOT
ATOM      1  S   UNL     1      -1.409  14.875  21.336  0.00  0.00    +0.000 S 
ATOM      2  O   UNL     1      -1.709  15.657  20.150  0.00  0.00    +0.000 OA
ATOM      3  O   UNL     1      -0.394  15.323  22.262  0.00  0.00    +0.000 OA
ENDROOT
BRANCH   1  10
ATOM      4  O   UNL     1      -7.917  12.168  23.936  0.00  0.00    +0.000 OA
ATOM      5  C   UNL     1      -6.908  12.772  23.638  0.00  0.00    +0.000 C 
ATOM      6  N   UNL     1      -6.198  13.608  24.488  0.00  0.00    +0.000 N 
ATOM      7  C   UNL     1      -5.073  14.141  23.883  0.00  0.00    +0.000 A 
ATOM      8  C   UNL     1      -4.096  14.973  24.388  0.00  0.00    +0.000 A 
ATOM      9  C   UNL     1      -3.033  15.250  23.510  0.00  0.00    +0.000 A 
ATOM     10  C   UNL     1      -2.984  14.720  22.186  0.00  0.00    +0.000 A 
ATOM     11  C   UNL     1      -4.046  13.910  21.685  0.00  0.00    +0.000 A 
ATOM     12  C   UNL     1      -4.256  13.283  20.430  0.00  0.00    +0.000 A 
ATOM     13  C   UNL     1      -5.372  12.449  20.200  0.00  0.00    +0.000 A 
ATOM     14  C   UNL     1      -6.326  12.195  21.195  0.00  0.00    +0.000 A 
ATOM     15  C   UNL     1      -6.135  12.837  22.413  0.00  0.00    +0.000 A 
ATOM     16  C   UNL     1      -5.036  13.663  22.590  0.00  0.00    +0.000 A 
ATOM     17  H   UNL     1      -6.475  13.755  25.449  0.00  0.00    +0.000 HD
ENDBRANCH   1  10
BRANCH   1  18
ATOM     18  N   UNL     1      -1.094  13.299  20.861  0.00  0.00    +0.000 N 
ATOM     19  C   UNL     1      -0.509  13.034  19.516  0.00  0.00    +0.000 C 
ATOM     20  C   UNL     1       1.055  12.673  19.692  0.00  0.00    +0.000 C 
ATOM     21  C   UNL     1       2.512  13.191  20.424  0.00  0.00    +0.000 C 
ATOM     22  C   UNL     1       2.515  14.481  19.673  0.00  0.00    +0.000 C 
ATOM     23  C   UNL     1       1.396  13.942  18.840  0.00  0.00    +0.000 C 
ATOM     24  C   UNL     1       0.592  11.794  20.983  0.00  0.00    +0.000 A 
ATOM     25  C   UNL     1       0.875  10.443  21.222  0.00  0.00    +0.000 A 
ATOM     26  C   UNL     1       0.141   9.733  22.181  0.00  0.00    +0.000 A 
ATOM     27  C   UNL     1      -0.805  10.386  22.986  0.00  0.00    +0.000 A 
ATOM     28  C   UNL     1      -1.102  11.731  22.779  0.00  0.00    +0.000 A 
ATOM     29  C   UNL     1      -0.472  12.353  21.715  0.00  0.00    +0.000 A 
ENDBRANCH   1  18
TORSDOF 2
ENDMDL
