MODEL 1
REMARK VINA RESULT:      -9.1      0.000      0.000
REMARK  Name = 
REMARK  5 active torsions:
REMARK  status: ('A' for Active; 'I' for Inactive)
REMARK    1  A    between atoms: C_1  and  C_2
REMARK    2  A    between atoms: C_2  and  C_3
REMARK    3  A    between atoms: C_12  and  N_13
REMARK    4  A    between atoms: N_13  and  C_14
REMARK    5  A    between atoms: C_14  and  C_15
REMARK                            x       y       z     vdW  Elec       q    Type
REMARK                         _______ _______ _______ _____ _____    ______ ____
ROOT
ATOM      1  N   UNL     1       2.994   6.225  18.938  0.00  0.00    +0.000 NA
ATOM      2  H   UNL     1       2.190   5.794  18.490  0.00  0.00    +0.000 HD
ENDROOT
BRANCH   1  14
ATOM      3  C   UNL     1       1.713   1.914  19.249  0.00  0.00    +0.000 C 
ATOM      4  C   UNL     1       2.320   3.205  18.643  0.00  0.00    +0.000 C 
ATOM      5  C   UNL     1       1.124   4.040  18.137  0.00  0.00    +0.000 C 
ATOM      6  C   UNL     1       3.237   2.790  17.469  0.00  0.00    +0.000 C 
ATOM      7  C   UNL     1       3.962   3.917  16.733  0.00  0.00    +0.000 C 
ATOM      8  C   UNL     1       5.193   4.425  17.446  0.00  0.00    +0.000 A 
ATOM      9  C   UNL     1       6.426   4.353  16.769  0.00  0.00    +0.000 A 
ATOM     10  C   UNL     1       7.600   4.822  17.355  0.00  0.00    +0.000 A 
ATOM     11  C   UNL     1       7.562   5.378  18.628  0.00  0.00    +0.000 A 
ATOM     12  C   UNL     1       6.342   5.470  19.305  0.00  0.00    +0.000 A 
ATOM     13  C   UNL     1       5.150   5.003  18.727  0.00  0.00    +0.000 A 
ATOM     14  C   UNL     1       3.868   5.213  19.521  0.00  0.00    +0.000 C 
ATOM     15  C   UNL     1       3.112   3.895  19.787  0.00  0.00    +0.000 C 
ENDBRANCH   1  14
BRANCH   1  16
ATOM     16  C   UNL     1       2.571   7.277  19.848  0.00  0.00    +0.000 C 
BRANCH  16  17
ATOM     17  C   UNL     1       1.614   8.325  19.327  0.00  0.00    +0.000 A 
ATOM     18  C   UNL     1       1.674   8.774  18.062  0.00  0.00    +0.000 A 
ATOM     19  N   UNL     1       1.458  10.103  17.793  0.00  0.00    +0.000 N 
ATOM     20  C   UNL     1       1.341  11.046  18.798  0.00  0.00    +0.000 A 
ATOM     21  O   UNL     1       1.577  12.234  18.610  0.00  0.00    +0.000 OA
ATOM     22  C   UNL     1       0.865  10.533  20.101  0.00  0.00    +0.000 A 
ATOM     23  C   UNL     1       0.301  11.404  21.036  0.00  0.00    +0.000 A 
ATOM     24  C   UNL     1      -0.393  10.876  22.124  0.00  0.00    +0.000 A 
ATOM     25  C   UNL     1      -0.510   9.491  22.272  0.00  0.00    +0.000 A 
ATOM     26  C   UNL     1       0.152   8.632  21.381  0.00  0.00    +0.000 A 
ATOM     27  C   UNL     1       0.870   9.149  20.302  0.00  0.00    +0.000 A 
ATOM     28  H   UNL     1       1.733  10.472  16.889  0.00  0.00    +0.000 HD
ENDBRANCH  16  17
ENDBRANCH   1  16
TORSDOF 3
ENDMDL
MODEL 2
REMARK VINA RESULT:      -8.8      1.071      1.346
REMARK  Name = 
REMARK  5 active torsions:
REMARK  status: ('A' for Active; 'I' for Inactive)
REMARK    1  A    between atoms: C_1  and  C_2
REMARK    2  A    between atoms: C_2  and  C_3
REMARK    3  A    between atoms: C_12  and  N_13
REMARK    4  A    between atoms: N_13  and  C_14
REMARK    5  A    between atoms: C_14  and  C_15
REMARK                            x       y       z     vdW  Elec       q    Type
REMARK                         _______ _______ _______ _____ _____    ______ ____
ROOT
ATOM      1  N   UNL     1       2.398   6.500  19.165  0.00  0.00    +0.000 NA
ATOM      2  H   UNL     1       1.595   6.162  19.689  0.00  0.00    +0.000 HD
ENDROOT
BRANCH   1  14
ATOM      3  C   UNL     1       2.129   2.569  21.355  0.00  0.00    +0.000 C 
ATOM      4  C   UNL     1       2.152   3.569  20.171  0.00  0.00    +0.000 C 
ATOM      5  C   UNL     1       0.747   4.205  20.126  0.00  0.00    +0.000 C 
ATOM      6  C   UNL     1       2.435   2.766  18.880  0.00  0.00    +0.000 C 
ATOM      7  C   UNL     1       2.522   3.567  17.580  0.00  0.00    +0.000 C 
ATOM      8  C   UNL     1       3.847   4.263  17.374  0.00  0.00    +0.000 A 
ATOM      9  C   UNL     1       4.588   3.946  16.220  0.00  0.00    +0.000 A 
ATOM     10  C   UNL     1       5.808   4.565  15.953  0.00  0.00    +0.000 A 
ATOM     11  C   UNL     1       6.307   5.517  16.833  0.00  0.00    +0.000 A 
ATOM     12  C   UNL     1       5.573   5.853  17.975  0.00  0.00    +0.000 A 
ATOM     13  C   UNL     1       4.341   5.240  18.257  0.00  0.00    +0.000 A 
ATOM     14  C   UNL     1       3.592   5.728  19.489  0.00  0.00    +0.000 C 
ATOM     15  C   UNL     1       3.279   4.590  20.483  0.00  0.00    +0.000 C 
ENDBRANCH   1  14
BRANCH   1  16
ATOM     16  C   UNL     1       2.533   7.940  19.305  0.00  0.00    +0.000 C 
BRANCH  16  17
ATOM     17  C   UNL     1       1.288   8.787  19.170  0.00  0.00    +0.000 A 
ATOM     18  C   UNL     1       0.961   9.389  18.014  0.00  0.00    +0.000 A 
ATOM     19  N   UNL     1       0.421  10.651  18.025  0.00  0.00    +0.000 N 
ATOM     20  C   UNL     1       0.349  11.409  19.179  0.00  0.00    +0.000 A 
ATOM     21  O   UNL     1       0.287  12.633  19.155  0.00  0.00    +0.000 OA
ATOM     22  C   UNL     1       0.302  10.642  20.443  0.00  0.00    +0.000 A 
ATOM     23  C   UNL     1      -0.196  11.234  21.607  0.00  0.00    +0.000 A 
ATOM     24  C   UNL     1      -0.497  10.428  22.703  0.00  0.00    +0.000 A 
ATOM     25  C   UNL     1      -0.292   9.047  22.632  0.00  0.00    +0.000 A 
ATOM     26  C   UNL     1       0.309   8.485  21.494  0.00  0.00    +0.000 A 
ATOM     27  C   UNL     1       0.637   9.285  20.400  0.00  0.00    +0.000 A 
ATOM     28  H   UNL     1       0.399  11.183  17.161  0.00  0.00    +0.000 HD
ENDBRANCH  16  17
ENDBRANCH   1  16
TORSDOF 3
ENDMDL
MODEL 3
REMARK VINA RESULT:      -8.7      2.650      6.408
REMARK  Name = 
REMARK  5 active torsions:
REMARK  status: ('A' for Active; 'I' for Inactive)
REMARK    1  A    between atoms: C_1  and  C_2
REMARK    2  A    between atoms: C_2  and  C_3
REMARK    3  A    between atoms: C_12  and  N_13
REMARK    4  A    between atoms: N_13  and  C_14
REMARK    5  A    between atoms: C_14  and  C_15
REMARK                            x       y       z     vdW  Elec       q    Type
REMARK                         _______ _______ _______ _____ _____    ______ ____
ROOT
ATOM      1  N   UNL     1       4.449   4.626  19.755  0.00  0.00    +0.000 NA
ATOM      2  H   UNL     1       3.995   4.160  20.535  0.00  0.00    +0.000 HD
ENDROOT
BRANCH   1  14
ATOM      3  C   UNL     1       0.637   2.251  19.380  0.00  0.00    +0.000 C 
ATOM      4  C   UNL     1       1.608   3.370  19.835  0.00  0.00    +0.000 C 
ATOM      5  C   UNL     1       2.460   2.758  20.966  0.00  0.00    +0.000 C 
ATOM      6  C   UNL     1       0.756   4.548  20.363  0.00  0.00    +0.000 C 
ATOM      7  C   UNL     1       1.518   5.781  20.850  0.00  0.00    +0.000 C 
ATOM      8  C   UNL     1       1.990   6.690  19.740  0.00  0.00    +0.000 A 
ATOM      9  C   UNL     1       1.545   8.026  19.745  0.00  0.00    +0.000 A 
ATOM     10  C   UNL     1       1.957   8.927  18.765  0.00  0.00    +0.000 A 
ATOM     11  C   UNL     1       2.827   8.511  17.765  0.00  0.00    +0.000 A 
ATOM     12  C   UNL     1       3.289   7.192  17.757  0.00  0.00    +0.000 A 
ATOM     13  C   UNL     1       2.884   6.271  18.739  0.00  0.00    +0.000 A 
ATOM     14  C   UNL     1       3.499   4.880  18.678  0.00  0.00    +0.000 C 
ATOM     15  C   UNL     1       2.438   3.765  18.584  0.00  0.00    +0.000 C 
ENDBRANCH   1  14
BRANCH   1  16
ATOM     16  C   UNL     1       5.656   3.916  19.364  0.00  0.00    +0.000 C 
BRANCH  16  17
ATOM     17  C   UNL     1       6.670   4.650  18.517  0.00  0.00    +0.000 A 
ATOM     18  C   UNL     1       7.582   5.475  19.057  0.00  0.00    +0.000 A 
ATOM     19  N   UNL     1       7.918   6.642  18.417  0.00  0.00    +0.000 N 
ATOM     20  C   UNL     1       7.230   7.094  17.306  0.00  0.00    +0.000 A 
ATOM     21  O   UNL     1       7.209   8.278  16.988  0.00  0.00    +0.000 OA
ATOM     22  C   UNL     1       6.563   6.049  16.501  0.00  0.00    +0.000 A 
ATOM     23  C   UNL     1       6.221   6.298  15.168  0.00  0.00    +0.000 A 
ATOM     24  C   UNL     1       5.859   5.230  14.349  0.00  0.00    +0.000 A 
ATOM     25  C   UNL     1       5.834   3.931  14.865  0.00  0.00    +0.000 A 
ATOM     26  C   UNL     1       6.077   3.714  16.231  0.00  0.00    +0.000 A 
ATOM     27  C   UNL     1       6.416   4.778  17.067  0.00  0.00    +0.000 A 
ATOM     28  H   UNL     1       8.417   7.359  18.933  0.00  0.00    +0.000 HD
ENDBRANCH  16  17
ENDBRANCH   1  16
TORSDOF 3
ENDMDL
MODEL 4
REMARK VINA RESULT:      -8.7      1.041      3.372
REMARK  Name = 
REMARK  5 active torsions:
REMARK  status: ('A' for Active; 'I' for Inactive)
REMARK    1  A    between atoms: C_1  and  C_2
REMARK    2  A    between atoms: C_2  and  C_3
REMARK    3  A    between atoms: C_12  and  N_13
REMARK    4  A    between atoms: N_13  and  C_14
REMARK    5  A    between atoms: C_14  and  C_15
REMARK                            x       y       z     vdW  Elec       q    Type
REMARK                         _______ _______ _______ _____ _____    ______ ____
ROOT
ATOM      1  N   UNL     1       3.623   7.102  18.210  0.00  0.00    +0.000 NA
ATOM      2  H   UNL     1       3.744   7.909  17.605  0.00  0.00    +0.000 HD
ENDROOT
BRANCH   1  14
ATOM      3  C   UNL     1       6.940   5.216  15.810  0.00  0.00    +0.000 C 
ATOM      4  C   UNL     1       6.028   5.530  17.024  0.00  0.00    +0.000 C 
ATOM      5  C   UNL     1       6.537   6.867  17.602  0.00  0.00    +0.000 C 
ATOM      6  C   UNL     1       6.196   4.386  18.050  0.00  0.00    +0.000 C 
ATOM      7  C   UNL     1       5.362   4.484  19.328  0.00  0.00    +0.000 C 
ATOM      8  C   UNL     1       3.925   4.050  19.159  0.00  0.00    +0.000 A 
ATOM      9  C   UNL     1       3.457   2.990  19.960  0.00  0.00    +0.000 A 
ATOM     10  C   UNL     1       2.137   2.550  19.875  0.00  0.00    +0.000 A 
ATOM     11  C   UNL     1       1.259   3.166  18.992  0.00  0.00    +0.000 A 
ATOM     12  C   UNL     1       1.707   4.230  18.202  0.00  0.00    +0.000 A 
ATOM     13  C   UNL     1       3.034   4.686  18.277  0.00  0.00    +0.000 A 
ATOM     14  C   UNL     1       3.400   5.893  17.425  0.00  0.00    +0.000 C 
ATOM     15  C   UNL     1       4.579   5.611  16.471  0.00  0.00    +0.000 C 
ENDBRANCH   1  14
BRANCH   1  16
ATOM     16  C   UNL     1       2.626   7.370  19.233  0.00  0.00    +0.000 C 
BRANCH  16  17
ATOM     17  C   UNL     1       1.625   8.474  18.977  0.00  0.00    +0.000 A 
ATOM     18  C   UNL     1       1.587   9.140  17.811  0.00  0.00    +0.000 A 
ATOM     19  N   UNL     1       1.341  10.491  17.799  0.00  0.00    +0.000 N 
ATOM     20  C   UNL     1       1.291  11.238  18.962  0.00  0.00    +0.000 A 
ATOM     21  O   UNL     1       1.503  12.446  18.972  0.00  0.00    +0.000 OA
ATOM     22  C   UNL     1       0.918  10.493  20.183  0.00  0.00    +0.000 A 
ATOM     23  C   UNL     1       0.418  11.173  21.297  0.00  0.00    +0.000 A 
ATOM     24  C   UNL     1      -0.189  10.446  22.320  0.00  0.00    +0.000 A 
ATOM     25  C   UNL     1      -0.284   9.055  22.227  0.00  0.00    +0.000 A 
ATOM     26  C   UNL     1       0.317   8.381  21.153  0.00  0.00    +0.000 A 
ATOM     27  C   UNL     1       0.949   9.095  20.134  0.00  0.00    +0.000 A 
ATOM     28  H   UNL     1       1.545  11.020  16.958  0.00  0.00    +0.000 HD
ENDBRANCH  16  17
ENDBRANCH   1  16
TORSDOF 3
ENDMDL
MODEL 5
REMARK VINA RESULT:      -8.6      2.897      6.518
REMARK  Name = 
REMARK  5 active torsions:
REMARK  status: ('A' for Active; 'I' for Inactive)
REMARK    1  A    between atoms: C_1  and  C_2
REMARK    2  A    between atoms: C_2  and  C_3
REMARK    3  A    between atoms: C_12  and  N_13
REMARK    4  A    between atoms: N_13  and  C_14
REMARK    5  A    between atoms: C_14  and  C_15
REMARK                            x       y       z     vdW  Elec       q    Type
REMARK                         _______ _______ _______ _____ _____    ______ ____
ROOT
ATOM      1  N   UNL     1       3.868   5.247  17.840  0.00  0.00    +0.000 NA
ATOM      2  H   UNL     1       3.992   4.242  17.755  0.00  0.00    +0.000 HD
ENDROOT
BRANCH   1  14
ATOM      3  C   UNL     1       0.569   2.338  18.825  0.00  0.00    +0.000 C 
ATOM      4  C   UNL     1       1.636   3.442  19.033  0.00  0.00    +0.000 C 
ATOM      5  C   UNL     1       2.990   2.708  19.142  0.00  0.00    +0.000 C 
ATOM      6  C   UNL     1       1.302   4.181  20.349  0.00  0.00    +0.000 C 
ATOM      7  C   UNL     1       2.225   5.335  20.742  0.00  0.00    +0.000 C 
ATOM      8  C   UNL     1       1.943   6.625  20.009  0.00  0.00    +0.000 A 
ATOM      9  C   UNL     1       1.616   7.762  20.773  0.00  0.00    +0.000 A 
ATOM     10  C   UNL     1       1.364   8.991  20.166  0.00  0.00    +0.000 A 
ATOM     11  C   UNL     1       1.441   9.108  18.784  0.00  0.00    +0.000 A 
ATOM     12  C   UNL     1       1.779   7.991  18.015  0.00  0.00    +0.000 A 
ATOM     13  C   UNL     1       2.038   6.745  18.611  0.00  0.00    +0.000 A 
ATOM     14  C   UNL     1       2.463   5.611  17.688  0.00  0.00    +0.000 C 
ATOM     15  C   UNL     1       1.543   4.379  17.798  0.00  0.00    +0.000 C 
ENDBRANCH   1  14
BRANCH   1  16
ATOM     16  C   UNL     1       4.790   5.955  16.967  0.00  0.00    +0.000 C 
BRANCH  16  17
ATOM     17  C   UNL     1       6.272   5.744  17.179  0.00  0.00    +0.000 A 
ATOM     18  C   UNL     1       6.801   4.518  17.324  0.00  0.00    +0.000 A 
ATOM     19  N   UNL     1       7.817   4.309  18.224  0.00  0.00    +0.000 N 
ATOM     20  C   UNL     1       8.216   5.284  19.119  0.00  0.00    +0.000 A 
ATOM     21  O   UNL     1       8.781   5.012  20.173  0.00  0.00    +0.000 OA
ATOM     22  C   UNL     1       7.960   6.679  18.699  0.00  0.00    +0.000 A 
ATOM     23  C   UNL     1       8.678   7.730  19.275  0.00  0.00    +0.000 A 
ATOM     24  C   UNL     1       8.634   8.989  18.679  0.00  0.00    +0.000 A 
ATOM     25  C   UNL     1       7.872   9.189  17.524  0.00  0.00    +0.000 A 
ATOM     26  C   UNL     1       7.074   8.149  17.022  0.00  0.00    +0.000 A 
ATOM     27  C   UNL     1       7.091   6.891  17.624  0.00  0.00    +0.000 A 
ATOM     28  H   UNL     1       8.044   3.359  18.495  0.00  0.00    +0.000 HD
ENDBRANCH  16  17
ENDBRANCH   1  16
TORSDOF 3
ENDMDL
MODEL 6
REMARK VINA RESULT:      -8.3      1.783      4.038
REMARK  Name = 
REMARK  5 active torsions:
REMARK  status: ('A' for Active; 'I' for Inactive)
REMARK    1  A    between atoms: C_1  and  C_2
REMARK    2  A    between atoms: C_2  and  C_3
REMARK    3  A    between atoms: C_12  and  N_13
REMARK    4  A    between atoms: N_13  and  C_14
REMARK    5  A    between atoms: C_14  and  C_15
REMARK                            x       y       z     vdW  Elec       q    Type
REMARK                         _______ _______ _______ _____ _____    ______ ____
ROOT
ATOM      1  N   UNL     1       3.557   7.010  17.587  0.00  0.00    +0.000 NA
ATOM      2  H   UNL     1       4.128   7.578  16.968  0.00  0.00    +0.000 HD
ENDROOT
BRANCH   1  14
ATOM      3  C   UNL     1       7.235   4.776  16.246  0.00  0.00    +0.000 C 
ATOM      4  C   UNL     1       6.140   5.328  17.195  0.00  0.00    +0.000 C 
ATOM      5  C   UNL     1       6.533   6.791  17.488  0.00  0.00    +0.000 C 
ATOM      6  C   UNL     1       6.166   4.480  18.488  0.00  0.00    +0.000 C 
ATOM      7  C   UNL     1       5.143   4.843  19.566  0.00  0.00    +0.000 C 
ATOM      8  C   UNL     1       3.757   4.304  19.303  0.00  0.00    +0.000 A 
ATOM      9  C   UNL     1       3.186   3.449  20.265  0.00  0.00    +0.000 A 
ATOM     10  C   UNL     1       1.903   2.931  20.101  0.00  0.00    +0.000 A 
ATOM     11  C   UNL     1       1.163   3.264  18.973  0.00  0.00    +0.000 A 
ATOM     12  C   UNL     1       1.711   4.124  18.017  0.00  0.00    +0.000 A 
ATOM     13  C   UNL     1       3.003   4.656  18.169  0.00  0.00    +0.000 A 
ATOM     14  C   UNL     1       3.477   5.636  17.105  0.00  0.00    +0.000 C 
ATOM     15  C   UNL     1       4.794   5.193  16.434  0.00  0.00    +0.000 C 
ENDBRANCH   1  14
BRANCH   1  16
ATOM     16  C   UNL     1       2.279   7.654  17.841  0.00  0.00    +0.000 C 
BRANCH  16  17
ATOM     17  C   UNL     1       2.038   8.238  19.214  0.00  0.00    +0.000 A 
ATOM     18  C   UNL     1       2.176   7.505  20.332  0.00  0.00    +0.000 A 
ATOM     19  N   UNL     1       1.298   7.670  21.375  0.00  0.00    +0.000 N 
ATOM     20  C   UNL     1       0.163   8.452  21.262  0.00  0.00    +0.000 A 
ATOM     21  O   UNL     1      -0.820   8.283  21.976  0.00  0.00    +0.000 OA
ATOM     22  C   UNL     1       0.232   9.535  20.259  0.00  0.00    +0.000 A 
ATOM     23  C   UNL     1      -0.633  10.630  20.344  0.00  0.00    +0.000 A 
ATOM     24  C   UNL     1      -0.372  11.763  19.575  0.00  0.00    +0.000 A 
ATOM     25  C   UNL     1       0.738  11.791  18.727  0.00  0.00    +0.000 A 
ATOM     26  C   UNL     1       1.534  10.644  18.575  0.00  0.00    +0.000 A 
ATOM     27  C   UNL     1       1.269   9.496  19.321  0.00  0.00    +0.000 A 
ATOM     28  H   UNL     1       1.262   6.964  22.102  0.00  0.00    +0.000 HD
ENDBRANCH  16  17
ENDBRANCH   1  16
TORSDOF 3
ENDMDL
MODEL 7
REMARK VINA RESULT:      -8.0      1.831      2.471
REMARK  Name = 
REMARK  5 active torsions:
REMARK  status: ('A' for Active; 'I' for Inactive)
REMARK    1  A    between atoms: C_1  and  C_2
REMARK    2  A    between atoms: C_2  and  C_3
REMARK    3  A    between atoms: C_12  and  N_13
REMARK    4  A    between atoms: N_13  and  C_14
REMARK    5  A    between atoms: C_14  and  C_15
REMARK                            x       y       z     vdW  Elec       q    Type
REMARK                         _______ _______ _______ _____ _____    ______ ____
ROOT
ATOM      1  N   UNL     1       2.266   6.236  18.247  0.00  0.00    +0.000 NA
ATOM      2  H   UNL     1       1.531   5.772  18.774  0.00  0.00    +0.000 HD
ENDROOT
BRANCH   1  14
ATOM      3  C   UNL     1       2.781   2.735  21.040  0.00  0.00    +0.000 C 
ATOM      4  C   UNL     1       2.653   3.521  19.710  0.00  0.00    +0.000 C 
ATOM      5  C   UNL     1       1.144   3.775  19.511  0.00  0.00    +0.000 C 
ATOM      6  C   UNL     1       3.216   2.629  18.579  0.00  0.00    +0.000 C 
ATOM      7  C   UNL     1       3.206   3.222  17.169  0.00  0.00    +0.000 C 
ATOM      8  C   UNL     1       4.337   4.186  16.901  0.00  0.00    +0.000 A 
ATOM      9  C   UNL     1       5.218   3.893  15.841  0.00  0.00    +0.000 A 
ATOM     10  C   UNL     1       6.271   4.747  15.521  0.00  0.00    +0.000 A 
ATOM     11  C   UNL     1       6.461   5.914  16.250  0.00  0.00    +0.000 A 
ATOM     12  C   UNL     1       5.584   6.226  17.294  0.00  0.00    +0.000 A 
ATOM     13  C   UNL     1       4.516   5.376  17.628  0.00  0.00    +0.000 A 
ATOM     14  C   UNL     1       3.583   5.841  18.737  0.00  0.00    +0.000 C 
ATOM     15  C   UNL     1       3.477   4.824  19.891  0.00  0.00    +0.000 C 
ENDBRANCH   1  14
BRANCH   1  16
ATOM     16  C   UNL     1       2.030   7.669  18.188  0.00  0.00    +0.000 C 
BRANCH  16  17
ATOM     17  C   UNL     1       1.852   8.414  19.491  0.00  0.00    +0.000 A 
ATOM     18  C   UNL     1       2.042   7.820  20.680  0.00  0.00    +0.000 A 
ATOM     19  N   UNL     1       1.213   8.112  21.735  0.00  0.00    +0.000 N 
ATOM     20  C   UNL     1       0.074   8.881  21.582  0.00  0.00    +0.000 A 
ATOM     21  O   UNL     1      -0.876   8.803  22.355  0.00  0.00    +0.000 OA
ATOM     22  C   UNL     1       0.096   9.836  20.454  0.00  0.00    +0.000 A 
ATOM     23  C   UNL     1      -0.765  10.937  20.447  0.00  0.00    +0.000 A 
ATOM     24  C   UNL     1      -0.541  11.968  19.537  0.00  0.00    +0.000 A 
ATOM     25  C   UNL     1       0.529  11.889  18.641  0.00  0.00    +0.000 A 
ATOM     26  C   UNL     1       1.317  10.729  18.591  0.00  0.00    +0.000 A 
ATOM     27  C   UNL     1       1.088   9.679  19.481  0.00  0.00    +0.000 A 
ATOM     28  H   UNL     1       1.211   7.498  22.543  0.00  0.00    +0.000 HD
ENDBRANCH  16  17
ENDBRANCH   1  16
TORSDOF 3
ENDMDL
MODEL 8
REMARK VINA RESULT:      -7.9      1.482      3.406
REMARK  Name = 
REMARK  5 active torsions:
REMARK  status: ('A' for Active; 'I' for Inactive)
REMARK    1  A    between atoms: C_1  and  C_2
REMARK    2  A    between atoms: C_2  and  C_3
REMARK    3  A    between atoms: C_12  and  N_13
REMARK    4  A    between atoms: N_13  and  C_14
REMARK    5  A    between atoms: C_14  and  C_15
REMARK                            x       y       z     vdW  Elec       q    Type
REMARK                         _______ _______ _______ _____ _____    ______ ____
ROOT
ATOM      1  N   UNL     1       3.175   6.905  18.823  0.00  0.00    +0.000 NA
ATOM      2  H   UNL     1       4.186   6.835  18.899  0.00  0.00    +0.000 HD
ENDROOT
BRANCH   1  14
ATOM      3  C   UNL     1       5.373   4.610  15.627  0.00  0.00    +0.000 C 
ATOM      4  C   UNL     1       4.931   5.059  17.043  0.00  0.00    +0.000 C 
ATOM      5  C   UNL     1       5.706   6.361  17.336  0.00  0.00    +0.000 C 
ATOM      6  C   UNL     1       5.329   3.945  18.038  0.00  0.00    +0.000 C 
ATOM      7  C   UNL     1       4.965   4.174  19.506  0.00  0.00    +0.000 C 
ATOM      8  C   UNL     1       3.521   3.878  19.834  0.00  0.00    +0.000 A 
ATOM      9  C   UNL     1       3.252   2.902  20.813  0.00  0.00    +0.000 A 
ATOM     10  C   UNL     1       1.945   2.591  21.183  0.00  0.00    +0.000 A 
ATOM     11  C   UNL     1       0.881   3.255  20.586  0.00  0.00    +0.000 A 
ATOM     12  C   UNL     1       1.134   4.238  19.623  0.00  0.00    +0.000 A 
ATOM     13  C   UNL     1       2.446   4.564  19.241  0.00  0.00    +0.000 A 
ATOM     14  C   UNL     1       2.613   5.694  18.235  0.00  0.00    +0.000 C 
ATOM     15  C   UNL     1       3.393   5.261  16.977  0.00  0.00    +0.000 C 
ENDBRANCH   1  14
BRANCH   1  16
ATOM     16  C   UNL     1       2.795   8.147  18.170  0.00  0.00    +0.000 C 
BRANCH  16  17
ATOM     17  C   UNL     1       1.419   8.706  18.452  0.00  0.00    +0.000 A 
ATOM     18  C   UNL     1       0.638   9.195  17.475  0.00  0.00    +0.000 A 
ATOM     19  N   UNL     1      -0.127  10.313  17.700  0.00  0.00    +0.000 N 
ATOM     20  C   UNL     1      -0.003  11.066  18.854  0.00  0.00    +0.000 A 
ATOM     21  O   UNL     1      -0.326  12.248  18.900  0.00  0.00    +0.000 OA
ATOM     22  C   UNL     1       0.498  10.339  20.039  0.00  0.00    +0.000 A 
ATOM     23  C   UNL     1       0.263  10.839  21.323  0.00  0.00    +0.000 A 
ATOM     24  C   UNL     1       0.485  10.014  22.424  0.00  0.00    +0.000 A 
ATOM     25  C   UNL     1       0.945   8.708  22.237  0.00  0.00    +0.000 A 
ATOM     26  C   UNL     1       1.277   8.259  20.949  0.00  0.00    +0.000 A 
ATOM     27  C   UNL     1       1.082   9.083  19.840  0.00  0.00    +0.000 A 
ATOM     28  H   UNL     1      -0.522  10.806  16.907  0.00  0.00    +0.000 HD
ENDBRANCH  16  17
ENDBRANCH   1  16
TORSDOF 3
ENDMDL
MODEL 9
REMARK VINA RESULT:      -7.8      3.660      6.023
REMARK  Name = 
REMARK  5 active torsions:
REMARK  status: ('A' for Active; 'I' for Inactive)
REMARK    1  A    between atoms: C_1  and  C_2
REMARK    2  A    between atoms: C_2  and  C_3
REMARK    3  A    between atoms: C_12  and  N_13
REMARK    4  A    between atoms: N_13  and  C_14
REMARK    5  A    between atoms: C_14  and  C_15
REMARK                            x       y       z     vdW  Elec       q    Type
REMARK                         _______ _______ _______ _____ _____    ______ ____
ROOT
ATOM      1  N   UNL     1       5.087   3.431  16.785  0.00  0.00    +0.000 NA
ATOM      2  H   UNL     1       5.828   3.767  17.394  0.00  0.00    +0.000 HD
ENDROOT
BRANCH   1  14
ATOM      3  C   UNL     1       6.071   7.787  17.396  0.00  0.00    +0.000 C 
ATOM      4  C   UNL     1       6.252   6.306  16.976  0.00  0.00    +0.000 C 
ATOM      5  C   UNL     1       6.595   5.537  18.270  0.00  0.00    +0.000 C 
ATOM      6  C   UNL     1       7.424   6.240  15.969  0.00  0.00    +0.000 C 
ATOM      7  C   UNL     1       7.766   4.861  15.403  0.00  0.00    +0.000 C 
ATOM      8  C   UNL     1       6.852   4.411  14.288  0.00  0.00    +0.000 A 
ATOM      9  C   UNL     1       7.430   4.116  13.038  0.00  0.00    +0.000 A 
ATOM     10  C   UNL     1       6.652   3.674  11.970  0.00  0.00    +0.000 A 
ATOM     11  C   UNL     1       5.282   3.513  12.133  0.00  0.00    +0.000 A 
ATOM     12  C   UNL     1       4.697   3.787  13.373  0.00  0.00    +0.000 A 
ATOM     13  C   UNL     1       5.468   4.231  14.461  0.00  0.00    +0.000 A 
ATOM     14  C   UNL     1       4.744   4.435  15.784  0.00  0.00    +0.000 C 
ATOM     15  C   UNL     1       4.908   5.866  16.337  0.00  0.00    +0.000 C 
ENDBRANCH   1  14
BRANCH   1  16
ATOM     16  C   UNL     1       3.970   2.925  17.565  0.00  0.00    +0.000 C 
BRANCH  16  17
ATOM     17  C   UNL     1       3.952   3.210  19.049  0.00  0.00    +0.000 A 
ATOM     18  C   UNL     1       4.298   2.280  19.954  0.00  0.00    +0.000 A 
ATOM     19  N   UNL     1       3.608   2.181  21.138  0.00  0.00    +0.000 N 
ATOM     20  C   UNL     1       2.451   2.900  21.374  0.00  0.00    +0.000 A 
ATOM     21  O   UNL     1       1.609   2.534  22.187  0.00  0.00    +0.000 OA
ATOM     22  C   UNL     1       2.319   4.163  20.617  0.00  0.00    +0.000 A 
ATOM     23  C   UNL     1       1.453   5.165  21.065  0.00  0.00    +0.000 A 
ATOM     24  C   UNL     1       1.549   6.441  20.513  0.00  0.00    +0.000 A 
ATOM     25  C   UNL     1       2.497   6.704  19.520  0.00  0.00    +0.000 A 
ATOM     26  C   UNL     1       3.284   5.661  19.008  0.00  0.00    +0.000 A 
ATOM     27  C   UNL     1       3.181   4.373  19.535  0.00  0.00    +0.000 A 
ATOM     28  H   UNL     1       3.716   1.344  21.700  0.00  0.00    +0.000 HD
ENDBRANCH  16  17
ENDBRANCH   1  16
TORSDOF 3
ENDMDL
