MODEL 1
REMARK VINA RESULT:      -9.1      0.000      0.000
REMARK  Name = 
REMARK  6 active torsions:
REMARK  status: ('A' for Active; 'I' for Inactive)
REMARK    1  A    between atoms: N_1  and  C_2
REMARK    2  A    between atoms: C_2  and  C_3
REMARK    3  A    between atoms: C_6  and  C_7
REMARK    4  A    between atoms: C_12  and  C_13
REMARK    5  A    between atoms: N_15  and  C_16
REMARK    6  A    between atoms: C_16  and  C_17
REMARK                            x       y       z     vdW  Elec       q    Type
REMARK                         _______ _______ _______ _____ _____    ______ ____
ROOT
ATOM      1  C   UNL     1       4.717   5.021  18.997  0.00  0.00    +0.000 C 
ATOM      2  O   UNL     1       5.610   5.480  19.701  0.00  0.00    +0.000 OA
ATOM      3  N   UNL     1       4.785   5.032  17.616  0.00  0.00    +0.000 N 
ATOM      4  H   UNL     1       4.048   4.647  17.037  0.00  0.00    +0.000 HD
ENDROOT
BRANCH   1  10
ATOM      5  C   UNL     1       2.343   5.177  19.944  0.00  0.00    +0.000 A 
ATOM      6  C   UNL     1       1.334   4.499  20.672  0.00  0.00    +0.000 A 
ATOM      7  C   UNL     1       1.433   3.147  21.016  0.00  0.00    +0.000 A 
ATOM      8  C   UNL     1       2.542   2.415  20.626  0.00  0.00    +0.000 A 
ATOM      9  C   UNL     1       3.578   3.045  19.937  0.00  0.00    +0.000 A 
ATOM     10  C   UNL     1       3.493   4.411  19.611  0.00  0.00    +0.000 A 
BRANCH   5  14
ATOM     11  C   UNL     1       1.648   9.314  18.760  0.00  0.00    +0.000 A 
ATOM     12  C   UNL     1       1.419   8.900  20.075  0.00  0.00    +0.000 A 
ATOM     13  C   UNL     1       1.665   7.573  20.461  0.00  0.00    +0.000 A 
ATOM     14  C   UNL     1       2.105   6.599  19.543  0.00  0.00    +0.000 A 
ATOM     15  C   UNL     1       2.254   7.026  18.212  0.00  0.00    +0.000 A 
ATOM     16  C   UNL     1       2.061   8.359  17.830  0.00  0.00    +0.000 A 
BRANCH  11  17
ATOM     17  C   UNL     1       1.442  10.748  18.344  0.00  0.00    +0.000 C 
BRANCH  17  18
ATOM     18  N   UNL     1       2.489  11.202  17.436  0.00  0.00    +0.000 NA
ATOM     19  H   UNL     1       2.914  10.395  16.986  0.00  0.00    +0.000 HD
ATOM     20  H   UNL     1       3.225  11.644  17.987  0.00  0.00    +0.000 HD
ENDBRANCH  17  18
ENDBRANCH  11  17
ENDBRANCH   5  14
ENDBRANCH   1  10
BRANCH   3  21
ATOM     21  C   UNL     1       5.887   5.702  16.961  0.00  0.00    +0.000 C 
BRANCH  21  22
ATOM     22  C   UNL     1       6.107   5.302  15.512  0.00  0.00    +0.000 A 
ATOM     23  N   UNL     1       5.239   4.615  14.830  0.00  0.00    +0.000 NA
ATOM     24  C   UNL     1       5.643   4.133  13.566  0.00  0.00    +0.000 A 
ATOM     25  C   UNL     1       4.788   3.290  12.856  0.00  0.00    +0.000 A 
ATOM     26  C   UNL     1       5.244   2.605  11.724  0.00  0.00    +0.000 A 
ATOM     27  C   UNL     1       6.557   2.770  11.280  0.00  0.00    +0.000 A 
ATOM     28  C   UNL     1       7.395   3.675  11.925  0.00  0.00    +0.000 A 
ATOM     29  C   UNL     1       6.924   4.358  13.051  0.00  0.00    +0.000 A 
ATOM     30  C   UNL     1       7.785   5.307  13.772  0.00  0.00    +0.000 A 
ATOM     31  O   UNL     1       8.840   5.723  13.305  0.00  0.00    +0.000 OA
ATOM     32  N   UNL     1       7.329   5.685  15.003  0.00  0.00    +0.000 N 
ATOM     33  H   UNL     1       7.936   6.306  15.519  0.00  0.00    +0.000 HD
ENDBRANCH  21  22
ENDBRANCH   3  21
TORSDOF 6
ENDMDL
MODEL 2
REMARK VINA RESULT:      -9.0      0.486      1.012
REMARK  Name = 
REMARK  6 active torsions:
REMARK  status: ('A' for Active; 'I' for Inactive)
REMARK    1  A    between atoms: N_1  and  C_2
REMARK    2  A    between atoms: C_2  and  C_3
REMARK    3  A    between atoms: C_6  and  C_7
REMARK    4  A    between atoms: C_12  and  C_13
REMARK    5  A    between atoms: N_15  and  C_16
REMARK    6  A    between atoms: C_16  and  C_17
REMARK                            x       y       z     vdW  Elec       q    Type
REMARK                         _______ _______ _______ _____ _____    ______ ____
ROOT
ATOM      1  C   UNL     1       4.700   4.699  19.222  0.00  0.00    +0.000 C 
ATOM      2  O   UNL     1       5.240   5.618  19.828  0.00  0.00    +0.000 OA
ATOM      3  N   UNL     1       5.227   4.173  18.056  0.00  0.00    +0.000 N 
ATOM      4  H   UNL     1       4.781   3.409  17.560  0.00  0.00    +0.000 HD
ENDROOT
BRANCH   1  10
ATOM      5  C   UNL     1       2.267   4.859  19.999  0.00  0.00    +0.000 A 
ATOM      6  C   UNL     1       1.200   4.174  20.634  0.00  0.00    +0.000 A 
ATOM      7  C   UNL     1       1.259   2.812  20.944  0.00  0.00    +0.000 A 
ATOM      8  C   UNL     1       2.386   2.077  20.614  0.00  0.00    +0.000 A 
ATOM      9  C   UNL     1       3.475   2.712  20.019  0.00  0.00    +0.000 A 
ATOM     10  C   UNL     1       3.429   4.088  19.728  0.00  0.00    +0.000 A 
BRANCH   5  14
ATOM     11  C   UNL     1       1.705   9.045  18.920  0.00  0.00    +0.000 A 
ATOM     12  C   UNL     1       2.197   8.127  17.989  0.00  0.00    +0.000 A 
ATOM     13  C   UNL     1       2.356   6.775  18.329  0.00  0.00    +0.000 A 
ATOM     14  C   UNL     1       2.074   6.294  19.624  0.00  0.00    +0.000 A 
ATOM     15  C   UNL     1       1.652   7.253  20.561  0.00  0.00    +0.000 A 
ATOM     16  C   UNL     1       1.441   8.593  20.215  0.00  0.00    +0.000 A 
BRANCH  11  17
ATOM     17  C   UNL     1       1.475  10.488  18.552  0.00  0.00    +0.000 C 
BRANCH  17  18
ATOM     18  N   UNL     1       2.317  10.901  17.435  0.00  0.00    +0.000 NA
ATOM     19  H   UNL     1       1.726  11.249  16.683  0.00  0.00    +0.000 HD
ATOM     20  H   UNL     1       2.793  10.077  17.067  0.00  0.00    +0.000 HD
ENDBRANCH  17  18
ENDBRANCH  11  17
ENDBRANCH   5  14
ENDBRANCH   1  10
BRANCH   3  21
ATOM     21  C   UNL     1       6.391   4.788  17.457  0.00  0.00    +0.000 C 
BRANCH  21  22
ATOM     22  C   UNL     1       6.415   4.764  15.938  0.00  0.00    +0.000 A 
ATOM     23  N   UNL     1       5.502   4.171  15.226  0.00  0.00    +0.000 NA
ATOM     24  C   UNL     1       5.743   4.043  13.841  0.00  0.00    +0.000 A 
ATOM     25  C   UNL     1       4.849   3.306  13.063  0.00  0.00    +0.000 A 
ATOM     26  C   UNL     1       5.174   2.956  11.748  0.00  0.00    +0.000 A 
ATOM     27  C   UNL     1       6.390   3.354  11.191  0.00  0.00    +0.000 A 
ATOM     28  C   UNL     1       7.253   4.163  11.924  0.00  0.00    +0.000 A 
ATOM     29  C   UNL     1       6.912   4.511  13.235  0.00  0.00    +0.000 A 
ATOM     30  C   UNL     1       7.807   5.348  14.050  0.00  0.00    +0.000 A 
ATOM     31  O   UNL     1       8.749   5.968  13.566  0.00  0.00    +0.000 OA
ATOM     32  N   UNL     1       7.518   5.378  15.384  0.00  0.00    +0.000 N 
ATOM     33  H   UNL     1       8.152   5.919  15.954  0.00  0.00    +0.000 HD
ENDBRANCH  21  22
ENDBRANCH   3  21
TORSDOF 6
ENDMDL
MODEL 3
REMARK VINA RESULT:      -8.9      3.083      8.935
REMARK  Name = 
REMARK  6 active torsions:
REMARK  status: ('A' for Active; 'I' for Inactive)
REMARK    1  A    between atoms: N_1  and  C_2
REMARK    2  A    between atoms: C_2  and  C_3
REMARK    3  A    between atoms: C_6  and  C_7
REMARK    4  A    between atoms: C_12  and  C_13
REMARK    5  A    between atoms: N_15  and  C_16
REMARK    6  A    between atoms: C_16  and  C_17
REMARK                            x       y       z     vdW  Elec       q    Type
REMARK                         _______ _______ _______ _____ _____    ______ ____
ROOT
ATOM      1  C   UNL     1       2.356   5.985  19.379  0.00  0.00    +0.000 C 
ATOM      2  O   UNL     1       2.241   6.061  18.161  0.00  0.00    +0.000 OA
ATOM      3  N   UNL     1       2.146   7.071  20.210  0.00  0.00    +0.000 N 
ATOM      4  H   UNL     1       2.236   7.003  21.217  0.00  0.00    +0.000 HD
ENDROOT
BRANCH   1  10
ATOM      5  C   UNL     1       3.677   3.794  19.474  0.00  0.00    +0.000 A 
ATOM      6  C   UNL     1       3.799   2.536  20.115  0.00  0.00    +0.000 A 
ATOM      7  C   UNL     1       3.065   2.198  21.256  0.00  0.00    +0.000 A 
ATOM      8  C   UNL     1       2.190   3.116  21.811  0.00  0.00    +0.000 A 
ATOM      9  C   UNL     1       2.010   4.356  21.198  0.00  0.00    +0.000 A 
ATOM     10  C   UNL     1       2.728   4.691  20.036  0.00  0.00    +0.000 A 
BRANCH   5  14
ATOM     11  C   UNL     1       6.273   4.677  16.086  0.00  0.00    +0.000 A 
ATOM     12  C   UNL     1       6.600   5.120  17.370  0.00  0.00    +0.000 A 
ATOM     13  C   UNL     1       5.776   4.816  18.464  0.00  0.00    +0.000 A 
ATOM     14  C   UNL     1       4.572   4.098  18.314  0.00  0.00    +0.000 A 
ATOM     15  C   UNL     1       4.231   3.730  17.001  0.00  0.00    +0.000 A 
ATOM     16  C   UNL     1       5.074   3.984  15.913  0.00  0.00    +0.000 A 
BRANCH  11  17
ATOM     17  C   UNL     1       7.177   4.947  14.911  0.00  0.00    +0.000 C 
BRANCH  17  18
ATOM     18  N   UNL     1       6.664   4.345  13.685  0.00  0.00    +0.000 NA
ATOM     19  H   UNL     1       6.615   5.057  12.959  0.00  0.00    +0.000 HD
ATOM     20  H   UNL     1       5.705   4.039  13.852  0.00  0.00    +0.000 HD
ENDBRANCH  17  18
ENDBRANCH  11  17
ENDBRANCH   5  14
ENDBRANCH   1  10
BRANCH   3  21
ATOM     21  C   UNL     1       1.891   8.373  19.633  0.00  0.00    +0.000 C 
BRANCH  21  22
ATOM     22  C   UNL     1       0.882   9.219  20.390  0.00  0.00    +0.000 A 
ATOM     23  N   UNL     1       0.060  10.035  19.798  0.00  0.00    +0.000 NA
ATOM     24  C   UNL     1      -0.684  10.912  20.617  0.00  0.00    +0.000 A 
ATOM     25  C   UNL     1      -1.484  11.886  20.017  0.00  0.00    +0.000 A 
ATOM     26  C   UNL     1      -2.041  12.917  20.782  0.00  0.00    +0.000 A 
ATOM     27  C   UNL     1      -1.819  12.974  22.159  0.00  0.00    +0.000 A 
ATOM     28  C   UNL     1      -1.097  11.962  22.784  0.00  0.00    +0.000 A 
ATOM     29  C   UNL     1      -0.551  10.935  22.009  0.00  0.00    +0.000 A 
ATOM     30  C   UNL     1       0.235   9.857  22.630  0.00  0.00    +0.000 A 
ATOM     31  O   UNL     1       0.250   9.670  23.842  0.00  0.00    +0.000 OA
ATOM     32  N   UNL     1       0.952   9.087  21.760  0.00  0.00    +0.000 N 
ATOM     33  H   UNL     1       1.524   8.370  22.184  0.00  0.00    +0.000 HD
ENDBRANCH  21  22
ENDBRANCH   3  21
TORSDOF 6
ENDMDL
MODEL 4
REMARK VINA RESULT:      -8.7      2.687      8.521
REMARK  Name = 
REMARK  6 active torsions:
REMARK  status: ('A' for Active; 'I' for Inactive)
REMARK    1  A    between atoms: N_1  and  C_2
REMARK    2  A    between atoms: C_2  and  C_3
REMARK    3  A    between atoms: C_6  and  C_7
REMARK    4  A    between atoms: C_12  and  C_13
REMARK    5  A    between atoms: N_15  and  C_16
REMARK    6  A    between atoms: C_16  and  C_17
REMARK                            x       y       z     vdW  Elec       q    Type
REMARK                         _______ _______ _______ _____ _____    ______ ____
ROOT
ATOM      1  C   UNL     1       3.474   6.522  18.176  0.00  0.00    +0.000 C 
ATOM      2  O   UNL     1       4.433   7.144  17.733  0.00  0.00    +0.000 OA
ATOM      3  N   UNL     1       2.194   7.045  18.183  0.00  0.00    +0.000 N 
ATOM      4  H   UNL     1       1.402   6.526  18.545  0.00  0.00    +0.000 HD
ENDROOT
BRANCH   1  10
ATOM      5  C   UNL     1       4.345   4.119  18.038  0.00  0.00    +0.000 A 
ATOM      6  C   UNL     1       4.279   2.822  18.607  0.00  0.00    +0.000 A 
ATOM      7  C   UNL     1       3.601   2.558  19.801  0.00  0.00    +0.000 A 
ATOM      8  C   UNL     1       2.977   3.589  20.483  0.00  0.00    +0.000 A 
ATOM      9  C   UNL     1       2.986   4.877  19.948  0.00  0.00    +0.000 A 
ATOM     10  C   UNL     1       3.645   5.142  18.733  0.00  0.00    +0.000 A 
BRANCH   5  14
ATOM     11  C   UNL     1       6.766   4.701  14.460  0.00  0.00    +0.000 A 
ATOM     12  C   UNL     1       5.410   4.376  14.360  0.00  0.00    +0.000 A 
ATOM     13  C   UNL     1       4.626   4.211  15.511  0.00  0.00    +0.000 A 
ATOM     14  C   UNL     1       5.171   4.319  16.807  0.00  0.00    +0.000 A 
ATOM     15  C   UNL     1       6.552   4.572  16.877  0.00  0.00    +0.000 A 
ATOM     16  C   UNL     1       7.330   4.790  15.733  0.00  0.00    +0.000 A 
BRANCH  11  17
ATOM     17  C   UNL     1       7.607   4.936  13.232  0.00  0.00    +0.000 C 
BRANCH  17  18
ATOM     18  N   UNL     1       8.706   5.857  13.499  0.00  0.00    +0.000 NA
ATOM     19  H   UNL     1       8.339   6.695  13.944  0.00  0.00    +0.000 HD
ATOM     20  H   UNL     1       9.101   6.156  12.607  0.00  0.00    +0.000 HD
ENDBRANCH  17  18
ENDBRANCH  11  17
ENDBRANCH   5  14
ENDBRANCH   1  10
BRANCH   3  21
ATOM     21  C   UNL     1       1.978   8.411  17.760  0.00  0.00    +0.000 C 
BRANCH  21  22
ATOM     22  C   UNL     1       1.422   9.331  18.833  0.00  0.00    +0.000 A 
ATOM     23  N   UNL     1       1.306   8.975  20.079  0.00  0.00    +0.000 NA
ATOM     24  C   UNL     1       0.590   9.839  20.936  0.00  0.00    +0.000 A 
ATOM     25  C   UNL     1       0.337   9.436  22.248  0.00  0.00    +0.000 A 
ATOM     26  C   UNL     1      -0.565  10.147  23.047  0.00  0.00    +0.000 A 
ATOM     27  C   UNL     1      -1.210  11.280  22.548  0.00  0.00    +0.000 A 
ATOM     28  C   UNL     1      -0.901  11.744  21.273  0.00  0.00    +0.000 A 
ATOM     29  C   UNL     1       0.007  11.028  20.488  0.00  0.00    +0.000 A 
ATOM     30  C   UNL     1       0.345  11.475  19.127  0.00  0.00    +0.000 A 
ATOM     31  O   UNL     1       0.051  12.591  18.711  0.00  0.00    +0.000 OA
ATOM     32  N   UNL     1       1.002  10.556  18.361  0.00  0.00    +0.000 N 
ATOM     33  H   UNL     1       1.201  10.844  17.413  0.00  0.00    +0.000 HD
ENDBRANCH  21  22
ENDBRANCH   3  21
TORSDOF 6
ENDMDL
MODEL 5
REMARK VINA RESULT:      -8.7      2.893      8.511
REMARK  Name = 
REMARK  6 active torsions:
REMARK  status: ('A' for Active; 'I' for Inactive)
REMARK    1  A    between atoms: N_1  and  C_2
REMARK    2  A    between atoms: C_2  and  C_3
REMARK    3  A    between atoms: C_6  and  C_7
REMARK    4  A    between atoms: C_12  and  C_13
REMARK    5  A    between atoms: N_15  and  C_16
REMARK    6  A    between atoms: C_16  and  C_17
REMARK                            x       y       z     vdW  Elec       q    Type
REMARK                         _______ _______ _______ _____ _____    ______ ____
ROOT
ATOM      1  C   UNL     1       2.216   5.658  18.959  0.00  0.00    +0.000 C 
ATOM      2  O   UNL     1       1.596   5.490  17.914  0.00  0.00    +0.000 OA
ATOM      3  N   UNL     1       2.477   6.917  19.469  0.00  0.00    +0.000 N 
ATOM      4  H   UNL     1       2.984   7.052  20.335  0.00  0.00    +0.000 HD
ENDROOT
BRANCH   1  10
ATOM      5  C   UNL     1       3.795   3.672  19.299  0.00  0.00    +0.000 A 
ATOM      6  C   UNL     1       4.050   2.505  20.063  0.00  0.00    +0.000 A 
ATOM      7  C   UNL     1       3.323   2.185  21.213  0.00  0.00    +0.000 A 
ATOM      8  C   UNL     1       2.321   3.032  21.654  0.00  0.00    +0.000 A 
ATOM      9  C   UNL     1       2.009   4.176  20.919  0.00  0.00    +0.000 A 
ATOM     10  C   UNL     1       2.722   4.489  19.747  0.00  0.00    +0.000 A 
BRANCH   5  14
ATOM     11  C   UNL     1       6.383   4.562  15.905  0.00  0.00    +0.000 A 
ATOM     12  C   UNL     1       6.784   4.868  17.208  0.00  0.00    +0.000 A 
ATOM     13  C   UNL     1       5.961   4.560  18.302  0.00  0.00    +0.000 A 
ATOM     14  C   UNL     1       4.688   3.977  18.137  0.00  0.00    +0.000 A 
ATOM     15  C   UNL     1       4.280   3.750  16.812  0.00  0.00    +0.000 A 
ATOM     16  C   UNL     1       5.116   4.006  15.719  0.00  0.00    +0.000 A 
BRANCH  11  17
ATOM     17  C   UNL     1       7.280   4.834  14.726  0.00  0.00    +0.000 C 
BRANCH  17  18
ATOM     18  N   UNL     1       6.741   4.267  13.495  0.00  0.00    +0.000 NA
ATOM     19  H   UNL     1       5.769   4.006  13.645  0.00  0.00    +0.000 HD
ATOM     20  H   UNL     1       7.242   3.403  13.291  0.00  0.00    +0.000 HD
ENDBRANCH  17  18
ENDBRANCH  11  17
ENDBRANCH   5  14
ENDBRANCH   1  10
BRANCH   3  21
ATOM     21  C   UNL     1       2.111   8.087  18.702  0.00  0.00    +0.000 C 
BRANCH  21  22
ATOM     22  C   UNL     1       1.428   9.185  19.500  0.00  0.00    +0.000 A 
ATOM     23  N   UNL     1       1.115   9.055  20.756  0.00  0.00    +0.000 NA
ATOM     24  C   UNL     1       0.305  10.060  21.329  0.00  0.00    +0.000 A 
ATOM     25  C   UNL     1      -0.154   9.896  22.637  0.00  0.00    +0.000 A 
ATOM     26  C   UNL     1      -1.144  10.741  23.152  0.00  0.00    +0.000 A 
ATOM     27  C   UNL     1      -1.672  11.769  22.370  0.00  0.00    +0.000 A 
ATOM     28  C   UNL     1      -1.161  11.999  21.097  0.00  0.00    +0.000 A 
ATOM     29  C   UNL     1      -0.168  11.152  20.596  0.00  0.00    +0.000 A 
ATOM     30  C   UNL     1       0.384  11.351  19.247  0.00  0.00    +0.000 A 
ATOM     31  O   UNL     1       0.189  12.375  18.602  0.00  0.00    +0.000 OA
ATOM     32  N   UNL     1       1.120  10.308  18.762  0.00  0.00    +0.000 N 
ATOM     33  H   UNL     1       1.468  10.423  17.821  0.00  0.00    +0.000 HD
ENDBRANCH  21  22
ENDBRANCH   3  21
TORSDOF 6
ENDMDL
MODEL 6
REMARK VINA RESULT:      -8.3      2.780      8.110
REMARK  Name = 
REMARK  6 active torsions:
REMARK  status: ('A' for Active; 'I' for Inactive)
REMARK    1  A    between atoms: N_1  and  C_2
REMARK    2  A    between atoms: C_2  and  C_3
REMARK    3  A    between atoms: C_6  and  C_7
REMARK    4  A    between atoms: C_12  and  C_13
REMARK    5  A    between atoms: N_15  and  C_16
REMARK    6  A    between atoms: C_16  and  C_17
REMARK                            x       y       z     vdW  Elec       q    Type
REMARK                         _______ _______ _______ _____ _____    ______ ____
ROOT
ATOM      1  C   UNL     1       2.482   6.188  19.252  0.00  0.00    +0.000 C 
ATOM      2  O   UNL     1       2.923   6.753  20.247  0.00  0.00    +0.000 OA
ATOM      3  N   UNL     1       2.226   6.862  18.072  0.00  0.00    +0.000 N 
ATOM      4  H   UNL     1       1.868   6.391  17.250  0.00  0.00    +0.000 HD
ENDROOT
BRANCH   1  10
ATOM      5  C   UNL     1       2.923   3.793  18.462  0.00  0.00    +0.000 A 
ATOM      6  C   UNL     1       2.435   2.462  18.452  0.00  0.00    +0.000 A 
ATOM      7  C   UNL     1       1.334   2.059  19.214  0.00  0.00    +0.000 A 
ATOM      8  C   UNL     1       0.688   2.971  20.031  0.00  0.00    +0.000 A 
ATOM      9  C   UNL     1       1.110   4.301  20.050  0.00  0.00    +0.000 A 
ATOM     10  C   UNL     1       2.202   4.716  19.267  0.00  0.00    +0.000 A 
BRANCH   5  14
ATOM     11  C   UNL     1       6.527   4.713  16.189  0.00  0.00    +0.000 A 
ATOM     12  C   UNL     1       6.556   4.668  17.586  0.00  0.00    +0.000 A 
ATOM     13  C   UNL     1       5.401   4.349  18.316  0.00  0.00    +0.000 A 
ATOM     14  C   UNL     1       4.164   4.107  17.686  0.00  0.00    +0.000 A 
ATOM     15  C   UNL     1       4.147   4.233  16.287  0.00  0.00    +0.000 A 
ATOM     16  C   UNL     1       5.306   4.499  15.548  0.00  0.00    +0.000 A 
BRANCH  11  17
ATOM     17  C   UNL     1       7.772   4.998  15.390  0.00  0.00    +0.000 C 
BRANCH  17  18
ATOM     18  N   UNL     1       7.456   5.408  14.026  0.00  0.00    +0.000 NA
ATOM     19  H   UNL     1       8.157   6.073  13.707  0.00  0.00    +0.000 HD
ATOM     20  H   UNL     1       6.568   5.910  14.037  0.00  0.00    +0.000 HD
ENDBRANCH  17  18
ENDBRANCH  11  17
ENDBRANCH   5  14
ENDBRANCH   1  10
BRANCH   3  21
ATOM     21  C   UNL     1       2.373   8.300  18.025  0.00  0.00    +0.000 C 
BRANCH  21  22
ATOM     22  C   UNL     1       1.229   9.079  18.652  0.00  0.00    +0.000 A 
ATOM     23  N   UNL     1       0.164   9.425  17.991  0.00  0.00    +0.000 NA
ATOM     24  C   UNL     1      -0.730  10.317  18.624  0.00  0.00    +0.000 A 
ATOM     25  C   UNL     1      -1.819  10.809  17.904  0.00  0.00    +0.000 A 
ATOM     26  C   UNL     1      -2.583  11.868  18.407  0.00  0.00    +0.000 A 
ATOM     27  C   UNL     1      -2.275  12.434  19.646  0.00  0.00    +0.000 A 
ATOM     28  C   UNL     1      -1.247  11.896  20.414  0.00  0.00    +0.000 A 
ATOM     29  C   UNL     1      -0.497  10.834  19.901  0.00  0.00    +0.000 A 
ATOM     30  C   UNL     1       0.611  10.250  20.675  0.00  0.00    +0.000 A 
ATOM     31  O   UNL     1       0.777  10.488  21.866  0.00  0.00    +0.000 OA
ATOM     32  N   UNL     1       1.444   9.432  19.967  0.00  0.00    +0.000 N 
ATOM     33  H   UNL     1       2.229   9.060  20.484  0.00  0.00    +0.000 HD
ENDBRANCH  21  22
ENDBRANCH   3  21
TORSDOF 6
ENDMDL
MODEL 7
REMARK VINA RESULT:      -8.3      5.220      7.400
REMARK  Name = 
REMARK  6 active torsions:
REMARK  status: ('A' for Active; 'I' for Inactive)
REMARK    1  A    between atoms: N_1  and  C_2
REMARK    2  A    between atoms: C_2  and  C_3
REMARK    3  A    between atoms: C_6  and  C_7
REMARK    4  A    between atoms: C_12  and  C_13
REMARK    5  A    between atoms: N_15  and  C_16
REMARK    6  A    between atoms: C_16  and  C_17
REMARK                            x       y       z     vdW  Elec       q    Type
REMARK                         _______ _______ _______ _____ _____    ______ ____
ROOT
ATOM      1  C   UNL     1       7.353   6.715  17.751  0.00  0.00    +0.000 C 
ATOM      2  O   UNL     1       7.499   6.193  18.851  0.00  0.00    +0.000 OA
ATOM      3  N   UNL     1       7.786   8.000  17.480  0.00  0.00    +0.000 N 
ATOM      4  H   UNL     1       7.669   8.427  16.568  0.00  0.00    +0.000 HD
ENDROOT
BRANCH   1  10
ATOM      5  C   UNL     1       5.327   5.588  16.665  0.00  0.00    +0.000 A 
ATOM      6  C   UNL     1       4.889   4.743  15.615  0.00  0.00    +0.000 A 
ATOM      7  C   UNL     1       5.732   4.334  14.577  0.00  0.00    +0.000 A 
ATOM      8  C   UNL     1       7.046   4.771  14.542  0.00  0.00    +0.000 A 
ATOM      9  C   UNL     1       7.533   5.577  15.570  0.00  0.00    +0.000 A 
ATOM     10  C   UNL     1       6.695   5.971  16.629  0.00  0.00    +0.000 A 
BRANCH   5  14
ATOM     11  C   UNL     1       2.421   6.917  19.630  0.00  0.00    +0.000 A 
ATOM     12  C   UNL     1       2.694   7.693  18.501  0.00  0.00    +0.000 A 
ATOM     13  C   UNL     1       3.613   7.255  17.535  0.00  0.00    +0.000 A 
ATOM     14  C   UNL     1       4.327   6.048  17.679  0.00  0.00    +0.000 A 
ATOM     15  C   UNL     1       4.087   5.325  18.861  0.00  0.00    +0.000 A 
ATOM     16  C   UNL     1       3.134   5.730  19.803  0.00  0.00    +0.000 A 
BRANCH  11  17
ATOM     17  C   UNL     1       1.396   7.348  20.647  0.00  0.00    +0.000 C 
BRANCH  17  18
ATOM     18  N   UNL     1       1.940   8.326  21.582  0.00  0.00    +0.000 NA
ATOM     19  H   UNL     1       1.207   8.980  21.846  0.00  0.00    +0.000 HD
ATOM     20  H   UNL     1       2.652   8.874  21.098  0.00  0.00    +0.000 HD
ENDBRANCH  17  18
ENDBRANCH  11  17
ENDBRANCH   5  14
ENDBRANCH   1  10
BRANCH   3  21
ATOM     21  C   UNL     1       8.330   8.810  18.548  0.00  0.00    +0.000 C 
BRANCH  21  22
ATOM     22  C   UNL     1       8.866  10.163  18.113  0.00  0.00    +0.000 A 
ATOM     23  N   UNL     1      10.134  10.454  18.111  0.00  0.00    +0.000 NA
ATOM     24  C   UNL     1      10.489  11.801  17.883  0.00  0.00    +0.000 A 
ATOM     25  C   UNL     1      11.829  12.177  17.995  0.00  0.00    +0.000 A 
ATOM     26  C   UNL     1      12.187  13.530  18.015  0.00  0.00    +0.000 A 
ATOM     27  C   UNL     1      11.210  14.520  17.904  0.00  0.00    +0.000 A 
ATOM     28  C   UNL     1       9.881  14.160  17.704  0.00  0.00    +0.000 A 
ATOM     29  C   UNL     1       9.538  12.805  17.680  0.00  0.00    +0.000 A 
ATOM     30  C   UNL     1       8.141  12.384  17.490  0.00  0.00    +0.000 A 
ATOM     31  O   UNL     1       7.267  13.157  17.111  0.00  0.00    +0.000 OA
ATOM     32  N   UNL     1       7.887  11.073  17.773  0.00  0.00    +0.000 N 
ATOM     33  H   UNL     1       6.922  10.788  17.682  0.00  0.00    +0.000 HD
ENDBRANCH  21  22
ENDBRANCH   3  21
TORSDOF 6
ENDMDL
MODEL 8
REMARK VINA RESULT:      -8.2      3.569      8.593
REMARK  Name = 
REMARK  6 active torsions:
REMARK  status: ('A' for Active; 'I' for Inactive)
REMARK    1  A    between atoms: N_1  and  C_2
REMARK    2  A    between atoms: C_2  and  C_3
REMARK    3  A    between atoms: C_6  and  C_7
REMARK    4  A    between atoms: C_12  and  C_13
REMARK    5  A    between atoms: N_15  and  C_16
REMARK    6  A    between atoms: C_16  and  C_17
REMARK                            x       y       z     vdW  Elec       q    Type
REMARK                         _______ _______ _______ _____ _____    ______ ____
ROOT
ATOM      1  C   UNL     1       4.256   7.362  17.137  0.00  0.00    +0.000 C 
ATOM      2  O   UNL     1       4.088   7.566  15.940  0.00  0.00    +0.000 OA
ATOM      3  N   UNL     1       3.298   7.682  18.083  0.00  0.00    +0.000 N 
ATOM      4  H   UNL     1       3.438   7.506  19.071  0.00  0.00    +0.000 HD
ENDROOT
BRANCH   1  10
ATOM      5  C   UNL     1       5.542   5.501  18.336  0.00  0.00    +0.000 A 
ATOM      6  C   UNL     1       6.787   5.122  18.899  0.00  0.00    +0.000 A 
ATOM      7  C   UNL     1       7.944   5.893  18.752  0.00  0.00    +0.000 A 
ATOM      8  C   UNL     1       7.904   7.067  18.020  0.00  0.00    +0.000 A 
ATOM      9  C   UNL     1       6.695   7.499  17.474  0.00  0.00    +0.000 A 
ATOM     10  C   UNL     1       5.523   6.739  17.639  0.00  0.00    +0.000 A 
BRANCH   5  14
ATOM     11  C   UNL     1       2.157   2.783  18.730  0.00  0.00    +0.000 A 
ATOM     12  C   UNL     1       2.868   2.867  17.531  0.00  0.00    +0.000 A 
ATOM     13  C   UNL     1       3.972   3.725  17.411  0.00  0.00    +0.000 A 
ATOM     14  C   UNL     1       4.382   4.565  18.467  0.00  0.00    +0.000 A 
ATOM     15  C   UNL     1       3.602   4.514  19.635  0.00  0.00    +0.000 A 
ATOM     16  C   UNL     1       2.532   3.623  19.780  0.00  0.00    +0.000 A 
BRANCH  11  17
ATOM     17  C   UNL     1       1.005   1.825  18.892  0.00  0.00    +0.000 C 
BRANCH  17  18
ATOM     18  N   UNL     1      -0.093   2.422  19.643  0.00  0.00    +0.000 NA
ATOM     19  H   UNL     1      -0.970   2.005  19.340  0.00  0.00    +0.000 HD
ATOM     20  H   UNL     1      -0.149   3.412  19.402  0.00  0.00    +0.000 HD
ENDBRANCH  17  18
ENDBRANCH  11  17
ENDBRANCH   5  14
ENDBRANCH   1  10
BRANCH   3  21
ATOM     21  C   UNL     1       2.100   8.383  17.676  0.00  0.00    +0.000 C 
BRANCH  21  22
ATOM     22  C   UNL     1       1.492   9.278  18.742  0.00  0.00    +0.000 A 
ATOM     23  N   UNL     1       1.434   8.942  19.998  0.00  0.00    +0.000 NA
ATOM     24  C   UNL     1       0.666   9.763  20.853  0.00  0.00    +0.000 A 
ATOM     25  C   UNL     1       0.477   9.370  22.178  0.00  0.00    +0.000 A 
ATOM     26  C   UNL     1      -0.464  10.021  22.984  0.00  0.00    +0.000 A 
ATOM     27  C   UNL     1      -1.214  11.084  22.476  0.00  0.00    +0.000 A 
ATOM     28  C   UNL     1      -0.973  11.542  21.185  0.00  0.00    +0.000 A 
ATOM     29  C   UNL     1      -0.026  10.887  20.393  0.00  0.00    +0.000 A 
ATOM     30  C   UNL     1       0.243  11.329  19.016  0.00  0.00    +0.000 A 
ATOM     31  O   UNL     1      -0.155  12.406  18.582  0.00  0.00    +0.000 OA
ATOM     32  N   UNL     1       0.958  10.451  18.254  0.00  0.00    +0.000 N 
ATOM     33  H   UNL     1       1.112  10.732  17.295  0.00  0.00    +0.000 HD
ENDBRANCH  21  22
ENDBRANCH   3  21
TORSDOF 6
ENDMDL
MODEL 9
REMARK VINA RESULT:      -8.1      2.632      8.429
REMARK  Name = 
REMARK  6 active torsions:
REMARK  status: ('A' for Active; 'I' for Inactive)
REMARK    1  A    between atoms: N_1  and  C_2
REMARK    2  A    between atoms: C_2  and  C_3
REMARK    3  A    between atoms: C_6  and  C_7
REMARK    4  A    between atoms: C_12  and  C_13
REMARK    5  A    between atoms: N_15  and  C_16
REMARK    6  A    between atoms: C_16  and  C_17
REMARK                            x       y       z     vdW  Elec       q    Type
REMARK                         _______ _______ _______ _____ _____    ______ ____
ROOT
ATOM      1  C   UNL     1       2.187   5.790  18.827  0.00  0.00    +0.000 C 
ATOM      2  O   UNL     1       1.489   5.591  17.838  0.00  0.00    +0.000 OA
ATOM      3  N   UNL     1       2.565   7.061  19.220  0.00  0.00    +0.000 N 
ATOM      4  H   UNL     1       3.137   7.223  20.041  0.00  0.00    +0.000 HD
ENDROOT
BRANCH   1  10
ATOM      5  C   UNL     1       3.736   3.803  19.280  0.00  0.00    +0.000 A 
ATOM      6  C   UNL     1       3.962   2.666  20.095  0.00  0.00    +0.000 A 
ATOM      7  C   UNL     1       3.208   2.401  21.242  0.00  0.00    +0.000 A 
ATOM      8  C   UNL     1       2.207   3.276  21.628  0.00  0.00    +0.000 A 
ATOM      9  C   UNL     1       1.923   4.392  20.841  0.00  0.00    +0.000 A 
ATOM     10  C   UNL     1       2.663   4.649  19.672  0.00  0.00    +0.000 A 
BRANCH   5  14
ATOM     11  C   UNL     1       6.425   4.526  15.926  0.00  0.00    +0.000 A 
ATOM     12  C   UNL     1       5.157   3.979  15.719  0.00  0.00    +0.000 A 
ATOM     13  C   UNL     1       4.282   3.768  16.796  0.00  0.00    +0.000 A 
ATOM     14  C   UNL     1       4.655   4.051  18.125  0.00  0.00    +0.000 A 
ATOM     15  C   UNL     1       5.963   4.529  18.312  0.00  0.00    +0.000 A 
ATOM     16  C   UNL     1       6.822   4.792  17.238  0.00  0.00    +0.000 A 
BRANCH  11  17
ATOM     17  C   UNL     1       7.354   4.811  14.774  0.00  0.00    +0.000 C 
BRANCH  17  18
ATOM     18  N   UNL     1       6.782   4.385  13.502  0.00  0.00    +0.000 NA
ATOM     19  H   UNL     1       6.112   5.083  13.186  0.00  0.00    +0.000 HD
ATOM     20  H   UNL     1       6.251   3.527  13.657  0.00  0.00    +0.000 HD
ENDBRANCH  17  18
ENDBRANCH  11  17
ENDBRANCH   5  14
ENDBRANCH   1  10
BRANCH   3  21
ATOM     21  C   UNL     1       2.229   8.195  18.387  0.00  0.00    +0.000 C 
BRANCH  21  22
ATOM     22  C   UNL     1       1.388   9.261  19.069  0.00  0.00    +0.000 A 
ATOM     23  N   UNL     1       1.059  10.378  18.490  0.00  0.00    +0.000 NA
ATOM     24  C   UNL     1       0.452  11.369  19.293  0.00  0.00    +0.000 A 
ATOM     25  C   UNL     1       0.196  12.625  18.741  0.00  0.00    +0.000 A 
ATOM     26  C   UNL     1      -0.177  13.697  19.560  0.00  0.00    +0.000 A 
ATOM     27  C   UNL     1      -0.314  13.520  20.937  0.00  0.00    +0.000 A 
ATOM     28  C   UNL     1      -0.148  12.253  21.490  0.00  0.00    +0.000 A 
ATOM     29  C   UNL     1       0.218  11.189  20.659  0.00  0.00    +0.000 A 
ATOM     30  C   UNL     1       0.423   9.840  21.208  0.00  0.00    +0.000 A 
ATOM     31  O   UNL     1       0.061   9.528  22.338  0.00  0.00    +0.000 OA
ATOM     32  N   UNL     1       1.052   8.963  20.372  0.00  0.00    +0.000 N 
ATOM     33  H   UNL     1       1.230   8.047  20.759  0.00  0.00    +0.000 HD
ENDBRANCH  21  22
ENDBRANCH   3  21
TORSDOF 6
ENDMDL
