MODEL 1
REMARK VINA RESULT:      -9.4      0.000      0.000
REMARK  Name = 
REMARK  3 active torsions:
REMARK  status: ('A' for Active; 'I' for Inactive)
REMARK    1  A    between atoms: N_3  and  C_4
REMARK    2  A    between atoms: C_8  and  C_9
REMARK    3  A    between atoms: C_21  and  C_22
REMARK                            x       y       z     vdW  Elec       q    Type
REMARK                         _______ _______ _______ _____ _____    ______ ____
ROOT
ATOM      1  O   UNL     1       2.230   7.514  18.334  0.00  0.00    +0.000 OA
ATOM      2  C   UNL     1       1.978   7.560  19.537  0.00  0.00    +0.000 C 
ATOM      3  N   UNL     1       2.243   6.533  20.416  0.00  0.00    +0.000 N 
ATOM      4  N   UNL     1       1.384   8.690  20.091  0.00  0.00    +0.000 N 
ATOM      5  C   UNL     1       1.140   8.963  21.508  0.00  0.00    +0.000 C 
ATOM      6  C   UNL     1      -0.312   9.392  21.707  0.00  0.00    +0.000 C 
ATOM      7  C   UNL     1      -0.691  10.591  20.821  0.00  0.00    +0.000 C 
ATOM      8  C   UNL     1      -0.326  10.299  19.356  0.00  0.00    +0.000 C 
ATOM      9  C   UNL     1       1.117   9.822  19.202  0.00  0.00    +0.000 C 
ATOM     10  H   UNL     1       1.757   6.543  21.294  0.00  0.00    +0.000 HD
ENDROOT
BRANCH   3  11
ATOM     11  C   UNL     1       2.920   5.325  20.130  0.00  0.00    +0.000 A 
ATOM     12  C   UNL     1       2.501   4.080  20.605  0.00  0.00    +0.000 A 
ATOM     13  C   UNL     1       3.252   2.936  20.350  0.00  0.00    +0.000 A 
ATOM     14  C   UNL     1       4.407   3.022  19.581  0.00  0.00    +0.000 A 
ATOM     15  C   UNL     1       4.798   4.240  19.013  0.00  0.00    +0.000 A 
ATOM     16  C   UNL     1       4.061   5.395  19.318  0.00  0.00    +0.000 A 
BRANCH  15  17
ATOM     17  C   UNL     1       5.939   4.316  18.098  0.00  0.00    +0.000 A 
ATOM     18  N   UNL     1       7.224   4.437  18.412  0.00  0.00    +0.000 NA
ATOM     19  N   UNL     1       7.974   4.555  17.240  0.00  0.00    +0.000 NA
ATOM     20  C   UNL     1       7.115   4.510  16.256  0.00  0.00    +0.000 A 
ATOM     21  N   UNL     1       5.863   4.355  16.749  0.00  0.00    +0.000 N 
ATOM     22  C   UNL     1       4.843   4.462  15.732  0.00  0.00    +0.000 C 
ATOM     23  C   UNL     1       5.659   4.284  14.439  0.00  0.00    +0.000 C 
ATOM     24  C   UNL     1       7.116   4.678  14.794  0.00  0.00    +0.000 C 
ENDBRANCH  15  17
ENDBRANCH   3  11
BRANCH   7  25
ATOM     25  C   UNL     1      -0.085  11.905  21.323  0.00  0.00    +0.000 C 
ATOM     26  F   UNL     1       1.254  11.948  21.156  0.00  0.00    +0.000 F 
ATOM     27  F   UNL     1      -0.604  12.987  20.707  0.00  0.00    +0.000 F 
ATOM     28  F   UNL     1      -0.324  12.048  22.647  0.00  0.00    +0.000 F 
ENDBRANCH   7  25
TORSDOF 3
ENDMDL
MODEL 2
REMARK VINA RESULT:      -8.9      0.752      1.059
REMARK  Name = 
REMARK  3 active torsions:
REMARK  status: ('A' for Active; 'I' for Inactive)
REMARK    1  A    between atoms: N_3  and  C_4
REMARK    2  A    between atoms: C_8  and  C_9
REMARK    3  A    between atoms: C_21  and  C_22
REMARK                            x       y       z     vdW  Elec       q    Type
REMARK                         _______ _______ _______ _____ _____    ______ ____
ROOT
ATOM      1  O   UNL     1       1.933   8.078  18.427  0.00  0.00    +0.000 OA
ATOM      2  C   UNL     1       1.653   8.165  19.622  0.00  0.00    +0.000 C 
ATOM      3  N   UNL     1       1.791   7.130  20.520  0.00  0.00    +0.000 N 
ATOM      4  N   UNL     1       1.158   9.356  20.145  0.00  0.00    +0.000 N 
ATOM      5  C   UNL     1       0.902   9.673  21.550  0.00  0.00    +0.000 C 
ATOM      6  C   UNL     1      -0.505  10.245  21.701  0.00  0.00    +0.000 C 
ATOM      7  C   UNL     1      -0.739  11.463  20.790  0.00  0.00    +0.000 C 
ATOM      8  C   UNL     1      -0.364  11.115  19.340  0.00  0.00    +0.000 C 
ATOM      9  C   UNL     1       1.029  10.496  19.235  0.00  0.00    +0.000 C 
ATOM     10  H   UNL     1       1.283   7.202  21.383  0.00  0.00    +0.000 HD
ENDROOT
BRANCH   3  11
ATOM     11  C   UNL     1       2.353   5.858  20.269  0.00  0.00    +0.000 A 
ATOM     12  C   UNL     1       1.722   4.660  20.608  0.00  0.00    +0.000 A 
ATOM     13  C   UNL     1       2.359   3.440  20.402  0.00  0.00    +0.000 A 
ATOM     14  C   UNL     1       3.619   3.407  19.815  0.00  0.00    +0.000 A 
ATOM     15  C   UNL     1       4.235   4.586  19.377  0.00  0.00    +0.000 A 
ATOM     16  C   UNL     1       3.604   5.812  19.636  0.00  0.00    +0.000 A 
BRANCH  15  17
ATOM     17  C   UNL     1       5.501   4.550  18.644  0.00  0.00    +0.000 A 
ATOM     18  N   UNL     1       6.728   4.667  19.137  0.00  0.00    +0.000 NA
ATOM     19  N   UNL     1       7.648   4.659  18.087  0.00  0.00    +0.000 NA
ATOM     20  C   UNL     1       6.945   4.548  16.992  0.00  0.00    +0.000 A 
ATOM     21  N   UNL     1       5.628   4.469  17.300  0.00  0.00    +0.000 N 
ATOM     22  C   UNL     1       4.776   4.510  16.135  0.00  0.00    +0.000 C 
ATOM     23  C   UNL     1       5.768   4.195  15.001  0.00  0.00    +0.000 C 
ATOM     24  C   UNL     1       7.169   4.583  15.538  0.00  0.00    +0.000 C 
ENDBRANCH  15  17
ENDBRANCH   3  11
BRANCH   7  25
ATOM     25  C   UNL     1      -0.021  12.718  21.294  0.00  0.00    +0.000 C 
ATOM     26  F   UNL     1      -0.411  13.830  20.635  0.00  0.00    +0.000 F 
ATOM     27  F   UNL     1      -0.218  12.939  22.610  0.00  0.00    +0.000 F 
ATOM     28  F   UNL     1       1.314  12.595  21.107  0.00  0.00    +0.000 F 
ENDBRANCH   7  25
TORSDOF 3
ENDMDL
MODEL 3
REMARK VINA RESULT:      -8.7      1.809      2.531
REMARK  Name = 
REMARK  3 active torsions:
REMARK  status: ('A' for Active; 'I' for Inactive)
REMARK    1  A    between atoms: N_3  and  C_4
REMARK    2  A    between atoms: C_8  and  C_9
REMARK    3  A    between atoms: C_21  and  C_22
REMARK                            x       y       z     vdW  Elec       q    Type
REMARK                         _______ _______ _______ _____ _____    ______ ____
ROOT
ATOM      1  O   UNL     1       2.188   6.712  20.315  0.00  0.00    +0.000 OA
ATOM      2  C   UNL     1       2.143   7.447  19.330  0.00  0.00    +0.000 C 
ATOM      3  N   UNL     1       2.739   7.152  18.124  0.00  0.00    +0.000 N 
ATOM      4  N   UNL     1       1.469   8.664  19.388  0.00  0.00    +0.000 N 
ATOM      5  C   UNL     1       1.205   9.588  18.286  0.00  0.00    +0.000 C 
ATOM      6  C   UNL     1       1.625  11.001  18.688  0.00  0.00    +0.000 C 
ATOM      7  C   UNL     1       0.950  11.459  19.991  0.00  0.00    +0.000 C 
ATOM      8  C   UNL     1       1.169  10.411  21.095  0.00  0.00    +0.000 C 
ATOM      9  C   UNL     1       0.788   9.003  20.640  0.00  0.00    +0.000 C 
ATOM     10  H   UNL     1       2.891   7.914  17.489  0.00  0.00    +0.000 HD
ENDROOT
BRANCH   3  11
ATOM     11  C   UNL     1       3.399   5.952  17.775  0.00  0.00    +0.000 A 
ATOM     12  C   UNL     1       3.050   4.705  18.296  0.00  0.00    +0.000 A 
ATOM     13  C   UNL     1       3.787   3.569  17.970  0.00  0.00    +0.000 A 
ATOM     14  C   UNL     1       4.854   3.666  17.084  0.00  0.00    +0.000 A 
ATOM     15  C   UNL     1       5.166   4.886  16.473  0.00  0.00    +0.000 A 
ATOM     16  C   UNL     1       4.449   6.032  16.848  0.00  0.00    +0.000 A 
BRANCH  15  17
ATOM     17  C   UNL     1       6.205   4.972  15.444  0.00  0.00    +0.000 A 
ATOM     18  N   UNL     1       7.335   5.667  15.488  0.00  0.00    +0.000 NA
ATOM     19  N   UNL     1       8.001   5.538  14.268  0.00  0.00    +0.000 NA
ATOM     20  C   UNL     1       7.246   4.776  13.523  0.00  0.00    +0.000 A 
ATOM     21  N   UNL     1       6.144   4.405  14.218  0.00  0.00    +0.000 N 
ATOM     22  C   UNL     1       5.181   3.698  13.407  0.00  0.00    +0.000 C 
ATOM     23  C   UNL     1       6.026   3.296  12.184  0.00  0.00    +0.000 C 
ATOM     24  C   UNL     1       7.207   4.297  12.132  0.00  0.00    +0.000 C 
ENDBRANCH  15  17
ENDBRANCH   3  11
BRANCH   7  25
ATOM     25  C   UNL     1      -0.529  11.802  19.796  0.00  0.00    +0.000 C 
ATOM     26  F   UNL     1      -0.734  12.593  18.722  0.00  0.00    +0.000 F 
ATOM     27  F   UNL     1      -1.303  10.708  19.645  0.00  0.00    +0.000 F 
ATOM     28  F   UNL     1      -0.995  12.472  20.876  0.00  0.00    +0.000 F 
ENDBRANCH   7  25
TORSDOF 3
ENDMDL
MODEL 4
REMARK VINA RESULT:      -8.6      1.440      2.104
REMARK  Name = 
REMARK  3 active torsions:
REMARK  status: ('A' for Active; 'I' for Inactive)
REMARK    1  A    between atoms: N_3  and  C_4
REMARK    2  A    between atoms: C_8  and  C_9
REMARK    3  A    between atoms: C_21  and  C_22
REMARK                            x       y       z     vdW  Elec       q    Type
REMARK                         _______ _______ _______ _____ _____    ______ ____
ROOT
ATOM      1  O   UNL     1       1.448   8.331  21.901  0.00  0.00    +0.000 OA
ATOM      2  C   UNL     1       1.314   8.589  20.705  0.00  0.00    +0.000 C 
ATOM      3  N   UNL     1       1.754   7.770  19.689  0.00  0.00    +0.000 N 
ATOM      4  N   UNL     1       0.695   9.770  20.304  0.00  0.00    +0.000 N 
ATOM      5  C   UNL     1       0.338  10.169  18.942  0.00  0.00    +0.000 C 
ATOM      6  C   UNL     1       0.852  11.580  18.668  0.00  0.00    +0.000 C 
ATOM      7  C   UNL     1       0.351  12.594  19.710  0.00  0.00    +0.000 C 
ATOM      8  C   UNL     1       0.660  12.088  21.128  0.00  0.00    +0.000 C 
ATOM      9  C   UNL     1       0.178  10.655  21.349  0.00  0.00    +0.000 C 
ATOM     10  H   UNL     1       1.858   8.183  18.780  0.00  0.00    +0.000 HD
ENDROOT
BRANCH   3  11
ATOM     11  C   UNL     1       2.326   6.485  19.823  0.00  0.00    +0.000 A 
ATOM     12  C   UNL     1       1.702   5.434  20.498  0.00  0.00    +0.000 A 
ATOM     13  C   UNL     1       2.349   4.212  20.660  0.00  0.00    +0.000 A 
ATOM     14  C   UNL     1       3.610   4.017  20.109  0.00  0.00    +0.000 A 
ATOM     15  C   UNL     1       4.219   5.021  19.345  0.00  0.00    +0.000 A 
ATOM     16  C   UNL     1       3.579   6.265  19.232  0.00  0.00    +0.000 A 
BRANCH  15  17
ATOM     17  C   UNL     1       5.488   4.781  18.655  0.00  0.00    +0.000 A 
ATOM     18  N   UNL     1       6.706   4.755  19.183  0.00  0.00    +0.000 NA
ATOM     19  N   UNL     1       7.644   4.575  18.165  0.00  0.00    +0.000 NA
ATOM     20  C   UNL     1       6.961   4.507  17.053  0.00  0.00    +0.000 A 
ATOM     21  N   UNL     1       5.638   4.620  17.321  0.00  0.00    +0.000 N 
ATOM     22  C   UNL     1       4.831   4.720  16.128  0.00  0.00    +0.000 C 
ATOM     23  C   UNL     1       5.801   4.223  15.042  0.00  0.00    +0.000 C 
ATOM     24  C   UNL     1       7.227   4.444  15.607  0.00  0.00    +0.000 C 
ENDBRANCH  15  17
ENDBRANCH   3  11
BRANCH   7  25
ATOM     25  C   UNL     1      -1.128  12.944  19.523  0.00  0.00    +0.000 C 
ATOM     26  F   UNL     1      -1.558  12.696  18.268  0.00  0.00    +0.000 F 
ATOM     27  F   UNL     1      -1.935  12.269  20.367  0.00  0.00    +0.000 F 
ATOM     28  F   UNL     1      -1.324  14.263  19.756  0.00  0.00    +0.000 F 
ENDBRANCH   7  25
TORSDOF 3
ENDMDL
MODEL 5
REMARK VINA RESULT:      -8.4      1.602      1.770
REMARK  Name = 
REMARK  3 active torsions:
REMARK  status: ('A' for Active; 'I' for Inactive)
REMARK    1  A    between atoms: N_3  and  C_4
REMARK    2  A    between atoms: C_8  and  C_9
REMARK    3  A    between atoms: C_21  and  C_22
REMARK                            x       y       z     vdW  Elec       q    Type
REMARK                         _______ _______ _______ _____ _____    ______ ____
ROOT
ATOM      1  O   UNL     1       2.560   8.490  17.143  0.00  0.00    +0.000 OA
ATOM      2  C   UNL     1       2.087   8.190  18.239  0.00  0.00    +0.000 C 
ATOM      3  N   UNL     1       2.062   6.907  18.738  0.00  0.00    +0.000 N 
ATOM      4  N   UNL     1       1.526   9.167  19.056  0.00  0.00    +0.000 N 
ATOM      5  C   UNL     1       1.045   9.010  20.429  0.00  0.00    +0.000 C 
ATOM      6  C   UNL     1      -0.361   9.592  20.551  0.00  0.00    +0.000 C 
ATOM      7  C   UNL     1      -0.426  11.057  20.088  0.00  0.00    +0.000 C 
ATOM      8  C   UNL     1       0.179  11.192  18.681  0.00  0.00    +0.000 C 
ATOM      9  C   UNL     1       1.563  10.552  18.582  0.00  0.00    +0.000 C 
ATOM     10  H   UNL     1       1.420   6.718  19.486  0.00  0.00    +0.000 HD
ENDROOT
BRANCH   3  11
ATOM     11  C   UNL     1       2.643   5.758  18.155  0.00  0.00    +0.000 A 
ATOM     12  C   UNL     1       2.079   4.484  18.243  0.00  0.00    +0.000 A 
ATOM     13  C   UNL     1       2.738   3.379  17.711  0.00  0.00    +0.000 A 
ATOM     14  C   UNL     1       3.948   3.547  17.047  0.00  0.00    +0.000 A 
ATOM     15  C   UNL     1       4.489   4.825  16.860  0.00  0.00    +0.000 A 
ATOM     16  C   UNL     1       3.842   5.924  17.445  0.00  0.00    +0.000 A 
BRANCH  15  17
ATOM     17  C   UNL     1       5.695   5.024  16.054  0.00  0.00    +0.000 A 
ATOM     18  N   UNL     1       6.764   5.749  16.359  0.00  0.00    +0.000 NA
ATOM     19  N   UNL     1       7.650   5.738  15.280  0.00  0.00    +0.000 NA
ATOM     20  C   UNL     1       7.082   5.012  14.354  0.00  0.00    +0.000 A 
ATOM     21  N   UNL     1       5.889   4.553  14.801  0.00  0.00    +0.000 N 
ATOM     22  C   UNL     1       5.126   3.880  13.776  0.00  0.00    +0.000 C 
ATOM     23  C   UNL     1       6.201   3.602  12.709  0.00  0.00    +0.000 C 
ATOM     24  C   UNL     1       7.324   4.642  12.950  0.00  0.00    +0.000 C 
ENDBRANCH  15  17
ENDBRANCH   3  11
BRANCH   7  25
ATOM     25  C   UNL     1       0.212  12.019  21.093  0.00  0.00    +0.000 C 
ATOM     26  F   UNL     1       1.546  12.130  20.919  0.00  0.00    +0.000 F 
ATOM     27  F   UNL     1      -0.308  13.262  21.030  0.00  0.00    +0.000 F 
ATOM     28  F   UNL     1       0.014  11.569  22.354  0.00  0.00    +0.000 F 
ENDBRANCH   7  25
TORSDOF 3
ENDMDL
MODEL 6
REMARK VINA RESULT:      -8.4      4.564      9.272
REMARK  Name = 
REMARK  3 active torsions:
REMARK  status: ('A' for Active; 'I' for Inactive)
REMARK    1  A    between atoms: N_3  and  C_4
REMARK    2  A    between atoms: C_8  and  C_9
REMARK    3  A    between atoms: C_21  and  C_22
REMARK                            x       y       z     vdW  Elec       q    Type
REMARK                         _______ _______ _______ _____ _____    ______ ____
ROOT
ATOM      1  O   UNL     1       1.813   7.876  20.713  0.00  0.00    +0.000 OA
ATOM      2  C   UNL     1       1.929   7.510  19.544  0.00  0.00    +0.000 C 
ATOM      3  N   UNL     1       1.688   8.322  18.458  0.00  0.00    +0.000 N 
ATOM      4  N   UNL     1       2.317   6.206  19.248  0.00  0.00    +0.000 N 
ATOM      5  C   UNL     1       2.629   5.648  17.932  0.00  0.00    +0.000 C 
ATOM      6  C   UNL     1       1.858   4.346  17.729  0.00  0.00    +0.000 C 
ATOM      7  C   UNL     1       2.120   3.333  18.857  0.00  0.00    +0.000 C 
ATOM      8  C   UNL     1       1.875   3.991  20.224  0.00  0.00    +0.000 C 
ATOM      9  C   UNL     1       2.620   5.317  20.371  0.00  0.00    +0.000 C 
ATOM     10  H   UNL     1       1.532   7.872  17.574  0.00  0.00    +0.000 HD
ENDROOT
BRANCH   3  11
ATOM     11  C   UNL     1       1.374   9.700  18.482  0.00  0.00    +0.000 A 
ATOM     12  C   UNL     1       2.318  10.705  18.261  0.00  0.00    +0.000 A 
ATOM     13  C   UNL     1       1.963  12.047  18.372  0.00  0.00    +0.000 A 
ATOM     14  C   UNL     1       0.648  12.395  18.662  0.00  0.00    +0.000 A 
ATOM     15  C   UNL     1      -0.339  11.410  18.794  0.00  0.00    +0.000 A 
ATOM     16  C   UNL     1       0.041  10.061  18.730  0.00  0.00    +0.000 A 
BRANCH  15  17
ATOM     17  C   UNL     1      -1.747  11.770  18.973  0.00  0.00    +0.000 A 
ATOM     18  N   UNL     1      -2.320  12.290  20.052  0.00  0.00    +0.000 NA
ATOM     19  N   UNL     1      -3.694  12.405  19.831  0.00  0.00    +0.000 NA
ATOM     20  C   UNL     1      -3.906  11.941  18.628  0.00  0.00    +0.000 A 
ATOM     21  N   UNL     1      -2.733  11.554  18.074  0.00  0.00    +0.000 N 
ATOM     22  C   UNL     1      -2.906  10.878  16.809  0.00  0.00    +0.000 C 
ATOM     23  C   UNL     1      -4.345  11.271  16.430  0.00  0.00    +0.000 C 
ATOM     24  C   UNL     1      -5.054  11.634  17.759  0.00  0.00    +0.000 C 
ENDBRANCH  15  17
ENDBRANCH   3  11
BRANCH   7  25
ATOM     25  C   UNL     1       3.507   2.692  18.757  0.00  0.00    +0.000 C 
ATOM     26  F   UNL     1       3.502   1.575  17.999  0.00  0.00    +0.000 F 
ATOM     27  F   UNL     1       4.432   3.526  18.241  0.00  0.00    +0.000 F 
ATOM     28  F   UNL     1       3.940   2.332  19.988  0.00  0.00    +0.000 F 
ENDBRANCH   7  25
TORSDOF 3
ENDMDL
MODEL 7
REMARK VINA RESULT:      -8.2      4.312      8.833
REMARK  Name = 
REMARK  3 active torsions:
REMARK  status: ('A' for Active; 'I' for Inactive)
REMARK    1  A    between atoms: N_3  and  C_4
REMARK    2  A    between atoms: C_8  and  C_9
REMARK    3  A    between atoms: C_21  and  C_22
REMARK                            x       y       z     vdW  Elec       q    Type
REMARK                         _______ _______ _______ _____ _____    ______ ____
ROOT
ATOM      1  O   UNL     1       2.258   5.600  19.566  0.00  0.00    +0.000 OA
ATOM      2  C   UNL     1       2.870   6.472  18.950  0.00  0.00    +0.000 C 
ATOM      3  N   UNL     1       2.571   7.814  19.019  0.00  0.00    +0.000 N 
ATOM      4  N   UNL     1       3.930   6.132  18.114  0.00  0.00    +0.000 N 
ATOM      5  C   UNL     1       4.842   7.041  17.419  0.00  0.00    +0.000 C 
ATOM      6  C   UNL     1       4.931   6.653  15.945  0.00  0.00    +0.000 C 
ATOM      7  C   UNL     1       5.338   5.182  15.756  0.00  0.00    +0.000 C 
ATOM      8  C   UNL     1       4.416   4.270  16.581  0.00  0.00    +0.000 C 
ATOM      9  C   UNL     1       4.309   4.720  18.037  0.00  0.00    +0.000 C 
ATOM     10  H   UNL     1       2.923   8.401  18.285  0.00  0.00    +0.000 HD
ENDROOT
BRANCH   3  11
ATOM     11  C   UNL     1       1.610   8.427  19.855  0.00  0.00    +0.000 A 
ATOM     12  C   UNL     1       1.590   8.272  21.243  0.00  0.00    +0.000 A 
ATOM     13  C   UNL     1       0.574   8.842  22.005  0.00  0.00    +0.000 A 
ATOM     14  C   UNL     1      -0.408   9.609  21.389  0.00  0.00    +0.000 A 
ATOM     15  C   UNL     1      -0.358   9.860  20.012  0.00  0.00    +0.000 A 
ATOM     16  C   UNL     1       0.641   9.240  19.248  0.00  0.00    +0.000 A 
BRANCH  15  17
ATOM     17  C   UNL     1      -1.313  10.770  19.376  0.00  0.00    +0.000 A 
ATOM     18  N   UNL     1      -1.881  11.849  19.902  0.00  0.00    +0.000 NA
ATOM     19  N   UNL     1      -2.790  12.382  18.986  0.00  0.00    +0.000 NA
ATOM     20  C   UNL     1      -2.748  11.601  17.939  0.00  0.00    +0.000 A 
ATOM     21  N   UNL     1      -1.847  10.611  18.143  0.00  0.00    +0.000 N 
ATOM     22  C   UNL     1      -1.864   9.613  17.099  0.00  0.00    +0.000 C 
ATOM     23  C   UNL     1      -2.618  10.342  15.972  0.00  0.00    +0.000 C 
ATOM     24  C   UNL     1      -3.465  11.440  16.664  0.00  0.00    +0.000 C 
ENDBRANCH  15  17
ENDBRANCH   3  11
BRANCH   7  25
ATOM     25  C   UNL     1       6.820   4.940  16.055  0.00  0.00    +0.000 C 
ATOM     26  F   UNL     1       7.001   4.106  17.102  0.00  0.00    +0.000 F 
ATOM     27  F   UNL     1       7.487   4.419  15.005  0.00  0.00    +0.000 F 
ATOM     28  F   UNL     1       7.425   6.108  16.371  0.00  0.00    +0.000 F 
ENDBRANCH   7  25
TORSDOF 3
ENDMDL
MODEL 8
REMARK VINA RESULT:      -8.2      4.404      9.417
REMARK  Name = 
REMARK  3 active torsions:
REMARK  status: ('A' for Active; 'I' for Inactive)
REMARK    1  A    between atoms: N_3  and  C_4
REMARK    2  A    between atoms: C_8  and  C_9
REMARK    3  A    between atoms: C_21  and  C_22
REMARK                            x       y       z     vdW  Elec       q    Type
REMARK                         _______ _______ _______ _____ _____    ______ ____
ROOT
ATOM      1  O   UNL     1       3.493   7.512  17.473  0.00  0.00    +0.000 OA
ATOM      2  C   UNL     1       2.791   6.944  18.309  0.00  0.00    +0.000 C 
ATOM      3  N   UNL     1       1.922   7.598  19.154  0.00  0.00    +0.000 N 
ATOM      4  N   UNL     1       2.849   5.561  18.456  0.00  0.00    +0.000 N 
ATOM      5  C   UNL     1       1.999   4.719  19.298  0.00  0.00    +0.000 C 
ATOM      6  C   UNL     1       2.869   3.791  20.142  0.00  0.00    +0.000 C 
ATOM      7  C   UNL     1       3.829   2.952  19.282  0.00  0.00    +0.000 C 
ATOM      8  C   UNL     1       4.631   3.868  18.343  0.00  0.00    +0.000 C 
ATOM      9  C   UNL     1       3.732   4.818  17.554  0.00  0.00    +0.000 C 
ATOM     10  H   UNL     1       1.617   7.103  19.972  0.00  0.00    +0.000 HD
ENDROOT
BRANCH   3  11
ATOM     11  C   UNL     1       1.609   8.976  19.147  0.00  0.00    +0.000 A 
ATOM     12  C   UNL     1       2.009   9.849  18.133  0.00  0.00    +0.000 A 
ATOM     13  C   UNL     1       1.733  11.211  18.221  0.00  0.00    +0.000 A 
ATOM     14  C   UNL     1       1.016  11.705  19.305  0.00  0.00    +0.000 A 
ATOM     15  C   UNL     1       0.521  10.839  20.288  0.00  0.00    +0.000 A 
ATOM     16  C   UNL     1       0.848   9.476  20.215  0.00  0.00    +0.000 A 
BRANCH  15  17
ATOM     17  C   UNL     1      -0.341  11.331  21.364  0.00  0.00    +0.000 A 
ATOM     18  N   UNL     1      -0.169  11.188  22.673  0.00  0.00    +0.000 NA
ATOM     19  N   UNL     1      -1.264  11.736  23.343  0.00  0.00    +0.000 NA
ATOM     20  C   UNL     1      -2.067  12.185  22.416  0.00  0.00    +0.000 A 
ATOM     21  N   UNL     1      -1.526  11.961  21.195  0.00  0.00    +0.000 N 
ATOM     22  C   UNL     1      -2.429  12.280  20.114  0.00  0.00    +0.000 C 
ATOM     23  C   UNL     1      -3.483  13.150  20.823  0.00  0.00    +0.000 C 
ATOM     24  C   UNL     1      -3.416  12.766  22.323  0.00  0.00    +0.000 C 
ENDBRANCH  15  17
ENDBRANCH   3  11
BRANCH   7  25
ATOM     25  C   UNL     1       3.112   1.828  18.529  0.00  0.00    +0.000 C 
ATOM     26  F   UNL     1       1.983   1.432  19.155  0.00  0.00    +0.000 F 
ATOM     27  F   UNL     1       2.775   2.175  17.270  0.00  0.00    +0.000 F 
ATOM     28  F   UNL     1       3.917   0.743  18.441  0.00  0.00    +0.000 F 
ENDBRANCH   7  25
TORSDOF 3
ENDMDL
MODEL 9
REMARK VINA RESULT:      -8.2      4.589      9.400
REMARK  Name = 
REMARK  3 active torsions:
REMARK  status: ('A' for Active; 'I' for Inactive)
REMARK    1  A    between atoms: N_3  and  C_4
REMARK    2  A    between atoms: C_8  and  C_9
REMARK    3  A    between atoms: C_21  and  C_22
REMARK                            x       y       z     vdW  Elec       q    Type
REMARK                         _______ _______ _______ _____ _____    ______ ____
ROOT
ATOM      1  O   UNL     1       1.962   6.685  19.535  0.00  0.00    +0.000 OA
ATOM      2  C   UNL     1       2.590   7.303  18.677  0.00  0.00    +0.000 C 
ATOM      3  N   UNL     1       2.245   8.558  18.227  0.00  0.00    +0.000 N 
ATOM      4  N   UNL     1       3.720   6.740  18.088  0.00  0.00    +0.000 N 
ATOM      5  C   UNL     1       4.651   7.381  17.160  0.00  0.00    +0.000 C 
ATOM      6  C   UNL     1       4.862   6.484  15.942  0.00  0.00    +0.000 C 
ATOM      7  C   UNL     1       5.327   5.071  16.334  0.00  0.00    +0.000 C 
ATOM      8  C   UNL     1       4.375   4.476  17.384  0.00  0.00    +0.000 C 
ATOM      9  C   UNL     1       4.147   5.422  18.561  0.00  0.00    +0.000 C 
ATOM     10  H   UNL     1       2.632   8.853  17.349  0.00  0.00    +0.000 HD
ENDROOT
BRANCH   3  11
ATOM     11  C   UNL     1       1.207   9.380  18.721  0.00  0.00    +0.000 A 
ATOM     12  C   UNL     1       1.268  10.037  19.951  0.00  0.00    +0.000 A 
ATOM     13  C   UNL     1       0.182  10.773  20.416  0.00  0.00    +0.000 A 
ATOM     14  C   UNL     1      -0.960  10.894  19.632  0.00  0.00    +0.000 A 
ATOM     15  C   UNL     1      -1.013  10.325  18.354  0.00  0.00    +0.000 A 
ATOM     16  C   UNL     1       0.068   9.544  17.918  0.00  0.00    +0.000 A 
BRANCH  15  17
ATOM     17  C   UNL     1      -2.159  10.553  17.472  0.00  0.00    +0.000 A 
ATOM     18  N   UNL     1      -2.256  10.270  16.178  0.00  0.00    +0.000 NA
ATOM     19  N   UNL     1      -3.487  10.723  15.700  0.00  0.00    +0.000 NA
ATOM     20  C   UNL     1      -4.090  11.273  16.720  0.00  0.00    +0.000 A 
ATOM     21  N   UNL     1      -3.307  11.176  17.821  0.00  0.00    +0.000 N 
ATOM     22  C   UNL     1      -3.833  11.907  18.950  0.00  0.00    +0.000 C 
ATOM     23  C   UNL     1      -5.296  12.137  18.529  0.00  0.00    +0.000 C 
ATOM     24  C   UNL     1      -5.317  12.043  16.983  0.00  0.00    +0.000 C 
ENDBRANCH  15  17
ENDBRANCH   3  11
BRANCH   7  25
ATOM     25  C   UNL     1       6.790   5.040  16.786  0.00  0.00    +0.000 C 
ATOM     26  F   UNL     1       7.570   4.328  15.947  0.00  0.00    +0.000 F 
ATOM     27  F   UNL     1       7.330   6.271  16.892  0.00  0.00    +0.000 F 
ATOM     28  F   UNL     1       6.885   4.458  18.005  0.00  0.00    +0.000 F 
ENDBRANCH   7  25
TORSDOF 3
ENDMDL
