MODEL 1
REMARK VINA RESULT:      -7.9      0.000      0.000
REMARK  Name = 
REMARK  9 active torsions:
REMARK  status: ('A' for Active; 'I' for Inactive)
REMARK    1  A    between atoms: C_1  and  N_2
REMARK    2  A    between atoms: N_2  and  C_20
REMARK    3  A    between atoms: C_3  and  C_5
REMARK    4  A    between atoms: C_10  and  O_11
REMARK    5  A    between atoms: O_11  and  C_12
REMARK    6  A    between atoms: C_12  and  C_13
REMARK    7  A    between atoms: C_21  and  N_22
REMARK    8  A    between atoms: N_23  and  C_24
REMARK    9  A    between atoms: C_24  and  C_25
REMARK                            x       y       z     vdW  Elec       q    Type
REMARK                         _______ _______ _______ _____ _____    ______ ____
ROOT
ATOM      1  C   UNL     1       1.624  13.604  21.103  0.00  0.00    +0.000 C 
ATOM      2  N   UNL     1       0.530  12.820  20.513  0.00  0.00    +0.000 N 
ATOM      3  C   UNL     1       0.591  12.539  19.118  0.00  0.00    +0.000 C 
ATOM      4  O   UNL     1       1.521  12.964  18.407  0.00  0.00    +0.000 OA
ENDROOT
BRANCH   2   5
ATOM      5  C   UNL     1      -0.587  12.557  21.337  0.00  0.00    +0.000 A 
ATOM      6  C   UNL     1      -1.688  13.366  21.383  0.00  0.00    +0.000 A 
ATOM      7  N   UNL     1      -2.719  13.108  22.302  0.00  0.00    +0.000 N 
ATOM      8  C   UNL     1      -2.684  12.022  23.168  0.00  0.00    +0.000 A 
ATOM      9  O   UNL     1      -3.547  11.765  24.005  0.00  0.00    +0.000 OA
ATOM     10  N   UNL     1      -1.609  11.200  23.067  0.00  0.00    +0.000 N 
ATOM     11  C   UNL     1      -0.489  11.450  22.344  0.00  0.00    +0.000 A 
ATOM     12  O   UNL     1       0.528  10.791  22.539  0.00  0.00    +0.000 OA
ATOM     13  H   UNL     1      -1.543  10.470  23.760  0.00  0.00    +0.000 HD
BRANCH   6  14
ATOM     14  N   UNL     1      -1.696  14.531  20.621  0.00  0.00    +0.000 N 
ATOM     15  H   UNL     1      -2.421  15.175  20.924  0.00  0.00    +0.000 HD
ATOM     16  H   UNL     1      -0.811  15.014  20.620  0.00  0.00    +0.000 HD
ENDBRANCH   6  14
BRANCH   7  17
ATOM     17  C   UNL     1      -3.952  13.921  22.360  0.00  0.00    +0.000 C 
BRANCH  17  18
ATOM     18  C   UNL     1      -5.160  13.290  21.691  0.00  0.00    +0.000 A 
ATOM     19  C   UNL     1      -6.383  13.172  22.367  0.00  0.00    +0.000 A 
ATOM     20  C   UNL     1      -7.458  12.490  21.791  0.00  0.00    +0.000 A 
ATOM     21  C   UNL     1      -7.342  11.952  20.513  0.00  0.00    +0.000 A 
ATOM     22  C   UNL     1      -6.166  12.135  19.792  0.00  0.00    +0.000 A 
ATOM     23  C   UNL     1      -5.084  12.802  20.375  0.00  0.00    +0.000 A 
ENDBRANCH  17  18
ENDBRANCH   7  17
ENDBRANCH   2   5
BRANCH   3  24
ATOM     24  C   UNL     1      -0.414  11.601  18.478  0.00  0.00    +0.000 A 
ATOM     25  C   UNL     1      -1.604  12.159  17.974  0.00  0.00    +0.000 A 
ATOM     26  C   UNL     1      -2.484  11.423  17.187  0.00  0.00    +0.000 A 
ATOM     27  C   UNL     1      -2.262  10.067  17.012  0.00  0.00    +0.000 A 
ATOM     28  C   UNL     1      -1.162   9.463  17.613  0.00  0.00    +0.000 A 
ATOM     29  C   UNL     1      -0.202  10.214  18.321  0.00  0.00    +0.000 A 
BRANCH  29  30
ATOM     30  O   UNL     1       0.918   9.618  18.843  0.00  0.00    +0.000 OA
BRANCH  30  31
ATOM     31  C   UNL     1       1.916   9.194  17.894  0.00  0.00    +0.000 C 
BRANCH  31  32
ATOM     32  C   UNL     1       2.587   7.903  18.310  0.00  0.00    +0.000 A 
ATOM     33  C   UNL     1       3.600   7.331  17.531  0.00  0.00    +0.000 A 
ATOM     34  C   UNL     1       4.174   6.116  17.897  0.00  0.00    +0.000 A 
ATOM     35  C   UNL     1       3.745   5.474  19.050  0.00  0.00    +0.000 A 
ATOM     36  F   UNL     1       4.285   4.297  19.388  0.00  0.00    +0.000 F 
ATOM     37  C   UNL     1       2.757   6.031  19.855  0.00  0.00    +0.000 A 
ATOM     38  C   UNL     1       2.180   7.250  19.492  0.00  0.00    +0.000 A 
ENDBRANCH  31  32
ENDBRANCH  30  31
ENDBRANCH  29  30
ENDBRANCH   3  24
TORSDOF 8
ENDMDL
MODEL 2
REMARK VINA RESULT:      -7.6      0.938      1.283
REMARK  Name = 
REMARK  9 active torsions:
REMARK  status: ('A' for Active; 'I' for Inactive)
REMARK    1  A    between atoms: C_1  and  N_2
REMARK    2  A    between atoms: N_2  and  C_20
REMARK    3  A    between atoms: C_3  and  C_5
REMARK    4  A    between atoms: C_10  and  O_11
REMARK    5  A    between atoms: O_11  and  C_12
REMARK    6  A    between atoms: C_12  and  C_13
REMARK    7  A    between atoms: C_21  and  N_22
REMARK    8  A    between atoms: N_23  and  C_24
REMARK    9  A    between atoms: C_24  and  C_25
REMARK                            x       y       z     vdW  Elec       q    Type
REMARK                         _______ _______ _______ _____ _____    ______ ____
ROOT
ATOM      1  C   UNL     1       0.742  14.576  21.189  0.00  0.00    +0.000 C 
ATOM      2  N   UNL     1      -0.125  13.543  20.607  0.00  0.00    +0.000 N 
ATOM      3  C   UNL     1       0.105  13.167  19.251  0.00  0.00    +0.000 C 
ATOM      4  O   UNL     1       0.990  13.712  18.566  0.00  0.00    +0.000 OA
ENDROOT
BRANCH   2   5
ATOM      5  C   UNL     1      -1.235  13.127  21.378  0.00  0.00    +0.000 A 
ATOM      6  C   UNL     1      -2.449  13.754  21.335  0.00  0.00    +0.000 A 
ATOM      7  N   UNL     1      -3.480  13.360  22.205  0.00  0.00    +0.000 N 
ATOM      8  C   UNL     1      -3.327  12.316  23.109  0.00  0.00    +0.000 A 
ATOM      9  O   UNL     1      -4.187  11.948  23.907  0.00  0.00    +0.000 OA
ATOM     10  N   UNL     1      -2.132  11.672  23.096  0.00  0.00    +0.000 N 
ATOM     11  C   UNL     1      -1.024  12.077  22.426  0.00  0.00    +0.000 A 
ATOM     12  O   UNL     1       0.070  11.592  22.699  0.00  0.00    +0.000 OA
ATOM     13  H   UNL     1      -1.994  10.980  23.817  0.00  0.00    +0.000 HD
BRANCH   6  14
ATOM     14  N   UNL     1      -2.594  14.882  20.533  0.00  0.00    +0.000 N 
ATOM     15  H   UNL     1      -1.757  15.064  19.985  0.00  0.00    +0.000 HD
ATOM     16  H   UNL     1      -3.386  14.832  19.912  0.00  0.00    +0.000 HD
ENDBRANCH   6  14
BRANCH   7  17
ATOM     17  C   UNL     1      -4.825  13.970  22.168  0.00  0.00    +0.000 C 
BRANCH  17  18
ATOM     18  C   UNL     1      -5.768  13.363  21.142  0.00  0.00    +0.000 A 
ATOM     19  C   UNL     1      -6.623  12.305  21.481  0.00  0.00    +0.000 A 
ATOM     20  C   UNL     1      -7.405  11.675  20.509  0.00  0.00    +0.000 A 
ATOM     21  C   UNL     1      -7.377  12.121  19.192  0.00  0.00    +0.000 A 
ATOM     22  C   UNL     1      -6.601  13.226  18.854  0.00  0.00    +0.000 A 
ATOM     23  C   UNL     1      -5.805  13.845  19.822  0.00  0.00    +0.000 A 
ENDBRANCH  17  18
ENDBRANCH   7  17
ENDBRANCH   2   5
BRANCH   3  24
ATOM     24  C   UNL     1      -0.642  11.997  18.640  0.00  0.00    +0.000 A 
ATOM     25  C   UNL     1      -1.914  12.246  18.090  0.00  0.00    +0.000 A 
ATOM     26  C   UNL     1      -2.581  11.295  17.325  0.00  0.00    +0.000 A 
ATOM     27  C   UNL     1      -2.051  10.021  17.219  0.00  0.00    +0.000 A 
ATOM     28  C   UNL     1      -0.860   9.711  17.866  0.00  0.00    +0.000 A 
ATOM     29  C   UNL     1      -0.115  10.690  18.553  0.00  0.00    +0.000 A 
BRANCH  29  30
ATOM     30  O   UNL     1       1.097  10.390  19.121  0.00  0.00    +0.000 OA
BRANCH  30  31
ATOM     31  C   UNL     1       1.144   9.198  19.930  0.00  0.00    +0.000 C 
BRANCH  31  32
ATOM     32  C   UNL     1       1.985   8.112  19.296  0.00  0.00    +0.000 A 
ATOM     33  C   UNL     1       2.237   6.909  19.968  0.00  0.00    +0.000 A 
ATOM     34  C   UNL     1       3.056   5.938  19.396  0.00  0.00    +0.000 A 
ATOM     35  C   UNL     1       3.617   6.161  18.147  0.00  0.00    +0.000 A 
ATOM     36  F   UNL     1       4.420   5.234  17.611  0.00  0.00    +0.000 F 
ATOM     37  C   UNL     1       3.365   7.337  17.449  0.00  0.00    +0.000 A 
ATOM     38  C   UNL     1       2.544   8.313  18.017  0.00  0.00    +0.000 A 
ENDBRANCH  31  32
ENDBRANCH  30  31
ENDBRANCH  29  30
ENDBRANCH   3  24
TORSDOF 8
ENDMDL
MODEL 3
REMARK VINA RESULT:      -7.5      4.646      8.293
REMARK  Name = 
REMARK  9 active torsions:
REMARK  status: ('A' for Active; 'I' for Inactive)
REMARK    1  A    between atoms: C_1  and  N_2
REMARK    2  A    between atoms: N_2  and  C_20
REMARK    3  A    between atoms: C_3  and  C_5
REMARK    4  A    between atoms: C_10  and  O_11
REMARK    5  A    between atoms: O_11  and  C_12
REMARK    6  A    between atoms: C_12  and  C_13
REMARK    7  A    between atoms: C_21  and  N_22
REMARK    8  A    between atoms: N_23  and  C_24
REMARK    9  A    between atoms: C_24  and  C_25
REMARK                            x       y       z     vdW  Elec       q    Type
REMARK                         _______ _______ _______ _____ _____    ______ ____
ROOT
ATOM      1  C   UNL     1       2.146   3.605  17.210  0.00  0.00    +0.000 C 
ATOM      2  N   UNL     1       3.177   4.491  17.768  0.00  0.00    +0.000 N 
ATOM      3  C   UNL     1       4.541   4.114  17.598  0.00  0.00    +0.000 C 
ATOM      4  O   UNL     1       4.858   3.056  17.023  0.00  0.00    +0.000 OA
ENDROOT
BRANCH   2   5
ATOM      5  C   UNL     1       2.735   5.556  18.584  0.00  0.00    +0.000 A 
ATOM      6  C   UNL     1       2.694   6.855  18.158  0.00  0.00    +0.000 A 
ATOM      7  N   UNL     1       2.347   7.883  19.051  0.00  0.00    +0.000 N 
ATOM      8  C   UNL     1       2.004   7.629  20.374  0.00  0.00    +0.000 A 
ATOM      9  O   UNL     1       1.715   8.492  21.201  0.00  0.00    +0.000 OA
ATOM     10  N   UNL     1       1.997   6.328  20.760  0.00  0.00    +0.000 N 
ATOM     11  C   UNL     1       2.477   5.286  20.036  0.00  0.00    +0.000 A 
ATOM     12  O   UNL     1       2.682   4.205  20.578  0.00  0.00    +0.000 OA
ATOM     13  H   UNL     1       1.841   6.158  21.742  0.00  0.00    +0.000 HD
BRANCH   6  14
ATOM     14  N   UNL     1       3.153   7.156  16.879  0.00  0.00    +0.000 N 
ATOM     15  H   UNL     1       3.405   6.317  16.363  0.00  0.00    +0.000 HD
ATOM     16  H   UNL     1       2.495   7.690  16.333  0.00  0.00    +0.000 HD
ENDBRANCH   6  14
BRANCH   7  17
ATOM     17  C   UNL     1       2.240   9.295  18.632  0.00  0.00    +0.000 C 
BRANCH  17  18
ATOM     18  C   UNL     1       0.819   9.826  18.547  0.00  0.00    +0.000 A 
ATOM     19  C   UNL     1      -0.098   9.297  17.628  0.00  0.00    +0.000 A 
ATOM     20  C   UNL     1      -1.366   9.863  17.475  0.00  0.00    +0.000 A 
ATOM     21  C   UNL     1      -1.753  10.940  18.266  0.00  0.00    +0.000 A 
ATOM     22  C   UNL     1      -0.889  11.422  19.244  0.00  0.00    +0.000 A 
ATOM     23  C   UNL     1       0.387  10.868  19.387  0.00  0.00    +0.000 A 
ENDBRANCH  17  18
ENDBRANCH   7  17
ENDBRANCH   2   5
BRANCH   3  24
ATOM     24  C   UNL     1       5.656   5.060  18.001  0.00  0.00    +0.000 A 
ATOM     25  C   UNL     1       6.064   5.055  19.349  0.00  0.00    +0.000 A 
ATOM     26  C   UNL     1       7.210   5.723  19.771  0.00  0.00    +0.000 A 
ATOM     27  C   UNL     1       7.887   6.533  18.876  0.00  0.00    +0.000 A 
ATOM     28  C   UNL     1       7.424   6.660  17.570  0.00  0.00    +0.000 A 
ATOM     29  C   UNL     1       6.333   5.906  17.096  0.00  0.00    +0.000 A 
BRANCH  29  30
ATOM     30  O   UNL     1       5.934   5.982  15.785  0.00  0.00    +0.000 OA
BRANCH  30  31
ATOM     31  C   UNL     1       6.947   5.721  14.795  0.00  0.00    +0.000 C 
BRANCH  31  32
ATOM     32  C   UNL     1       6.484   4.725  13.754  0.00  0.00    +0.000 A 
ATOM     33  C   UNL     1       5.215   4.139  13.829  0.00  0.00    +0.000 A 
ATOM     34  C   UNL     1       4.820   3.184  12.895  0.00  0.00    +0.000 A 
ATOM     35  C   UNL     1       5.689   2.820  11.876  0.00  0.00    +0.000 A 
ATOM     36  F   UNL     1       5.313   1.887  10.993  0.00  0.00    +0.000 F 
ATOM     37  C   UNL     1       6.947   3.402  11.765  0.00  0.00    +0.000 A 
ATOM     38  C   UNL     1       7.346   4.361  12.699  0.00  0.00    +0.000 A 
ENDBRANCH  31  32
ENDBRANCH  30  31
ENDBRANCH  29  30
ENDBRANCH   3  24
TORSDOF 8
ENDMDL
MODEL 4
REMARK VINA RESULT:      -7.4      2.122      3.390
REMARK  Name = 
REMARK  9 active torsions:
REMARK  status: ('A' for Active; 'I' for Inactive)
REMARK    1  A    between atoms: C_1  and  N_2
REMARK    2  A    between atoms: N_2  and  C_20
REMARK    3  A    between atoms: C_3  and  C_5
REMARK    4  A    between atoms: C_10  and  O_11
REMARK    5  A    between atoms: O_11  and  C_12
REMARK    6  A    between atoms: C_12  and  C_13
REMARK    7  A    between atoms: C_21  and  N_22
REMARK    8  A    between atoms: N_23  and  C_24
REMARK    9  A    between atoms: C_24  and  C_25
REMARK                            x       y       z     vdW  Elec       q    Type
REMARK                         _______ _______ _______ _____ _____    ______ ____
ROOT
ATOM      1  C   UNL     1       0.538  13.518  17.969  0.00  0.00    +0.000 C 
ATOM      2  N   UNL     1       0.008  12.548  18.937  0.00  0.00    +0.000 N 
ATOM      3  C   UNL     1       0.937  11.700  19.606  0.00  0.00    +0.000 C 
ATOM      4  O   UNL     1       2.157  11.750  19.362  0.00  0.00    +0.000 OA
ENDROOT
BRANCH   2   5
ATOM      5  C   UNL     1      -1.397  12.408  19.002  0.00  0.00    +0.000 A 
ATOM      6  C   UNL     1      -2.189  13.190  19.796  0.00  0.00    +0.000 A 
ATOM      7  N   UNL     1      -3.566  12.930  19.898  0.00  0.00    +0.000 N 
ATOM      8  C   UNL     1      -4.181  11.907  19.185  0.00  0.00    +0.000 A 
ATOM      9  O   UNL     1      -5.375  11.624  19.256  0.00  0.00    +0.000 OA
ATOM     10  N   UNL     1      -3.386  11.180  18.361  0.00  0.00    +0.000 N 
ATOM     11  C   UNL     1      -2.031  11.234  18.318  0.00  0.00    +0.000 A 
ATOM     12  O   UNL     1      -1.398  10.349  17.751  0.00  0.00    +0.000 OA
ATOM     13  H   UNL     1      -3.817  10.381  17.921  0.00  0.00    +0.000 HD
BRANCH   6  14
ATOM     14  N   UNL     1      -1.586  14.138  20.618  0.00  0.00    +0.000 N 
ATOM     15  H   UNL     1      -1.063  14.823  20.080  0.00  0.00    +0.000 HD
ATOM     16  H   UNL     1      -2.238  14.622  21.216  0.00  0.00    +0.000 HD
ENDBRANCH   6  14
BRANCH   7  17
ATOM     17  C   UNL     1      -4.475  13.772  20.703  0.00  0.00    +0.000 C 
BRANCH  17  18
ATOM     18  C   UNL     1      -4.675  13.302  22.133  0.00  0.00    +0.000 A 
ATOM     19  C   UNL     1      -3.600  12.826  22.896  0.00  0.00    +0.000 A 
ATOM     20  C   UNL     1      -3.807  12.288  24.170  0.00  0.00    +0.000 A 
ATOM     21  C   UNL     1      -5.085  12.258  24.717  0.00  0.00    +0.000 A 
ATOM     22  C   UNL     1      -6.151  12.806  24.011  0.00  0.00    +0.000 A 
ATOM     23  C   UNL     1      -5.948  13.328  22.730  0.00  0.00    +0.000 A 
ENDBRANCH  17  18
ENDBRANCH   7  17
ENDBRANCH   2   5
BRANCH   3  24
ATOM     24  C   UNL     1       0.479  10.794  20.732  0.00  0.00    +0.000 A 
ATOM     25  C   UNL     1      -0.055  11.400  21.885  0.00  0.00    +0.000 A 
ATOM     26  C   UNL     1      -0.692  10.658  22.875  0.00  0.00    +0.000 A 
ATOM     27  C   UNL     1      -0.676   9.276  22.800  0.00  0.00    +0.000 A 
ATOM     28  C   UNL     1      -0.036   8.649  21.736  0.00  0.00    +0.000 A 
ATOM     29  C   UNL     1       0.517   9.384  20.669  0.00  0.00    +0.000 A 
BRANCH  29  30
ATOM     30  O   UNL     1       1.077   8.752  19.588  0.00  0.00    +0.000 OA
BRANCH  30  31
ATOM     31  C   UNL     1       2.234   7.935  19.855  0.00  0.00    +0.000 C 
BRANCH  31  32
ATOM     32  C   UNL     1       2.004   6.484  19.494  0.00  0.00    +0.000 A 
ATOM     33  C   UNL     1       2.187   6.028  18.183  0.00  0.00    +0.000 A 
ATOM     34  C   UNL     1       1.921   4.701  17.852  0.00  0.00    +0.000 A 
ATOM     35  C   UNL     1       1.483   3.823  18.833  0.00  0.00    +0.000 A 
ATOM     36  F   UNL     1       1.210   2.554  18.506  0.00  0.00    +0.000 F 
ATOM     37  C   UNL     1       1.315   4.244  20.147  0.00  0.00    +0.000 A 
ATOM     38  C   UNL     1       1.581   5.573  20.484  0.00  0.00    +0.000 A 
ENDBRANCH  31  32
ENDBRANCH  30  31
ENDBRANCH  29  30
ENDBRANCH   3  24
TORSDOF 8
ENDMDL
MODEL 5
REMARK VINA RESULT:      -7.2      1.551      2.705
REMARK  Name = 
REMARK  9 active torsions:
REMARK  status: ('A' for Active; 'I' for Inactive)
REMARK    1  A    between atoms: C_1  and  N_2
REMARK    2  A    between atoms: N_2  and  C_20
REMARK    3  A    between atoms: C_3  and  C_5
REMARK    4  A    between atoms: C_10  and  O_11
REMARK    5  A    between atoms: O_11  and  C_12
REMARK    6  A    between atoms: C_12  and  C_13
REMARK    7  A    between atoms: C_21  and  N_22
REMARK    8  A    between atoms: N_23  and  C_24
REMARK    9  A    between atoms: C_24  and  C_25
REMARK                            x       y       z     vdW  Elec       q    Type
REMARK                         _______ _______ _______ _____ _____    ______ ____
ROOT
ATOM      1  C   UNL     1       1.802  13.554  21.152  0.00  0.00    +0.000 C 
ATOM      2  N   UNL     1       0.692  12.796  20.557  0.00  0.00    +0.000 N 
ATOM      3  C   UNL     1       0.756  12.508  19.163  0.00  0.00    +0.000 C 
ATOM      4  O   UNL     1       1.700  12.908  18.458  0.00  0.00    +0.000 OA
ENDROOT
BRANCH   2   5
ATOM      5  C   UNL     1      -0.437  12.563  21.374  0.00  0.00    +0.000 A 
ATOM      6  C   UNL     1      -1.434  13.481  21.549  0.00  0.00    +0.000 A 
ATOM      7  N   UNL     1      -2.476  13.232  22.458  0.00  0.00    +0.000 N 
ATOM      8  C   UNL     1      -2.556  12.050  23.185  0.00  0.00    +0.000 A 
ATOM      9  O   UNL     1      -3.432  11.793  24.009  0.00  0.00    +0.000 OA
ATOM     10  N   UNL     1      -1.587  11.129  22.956  0.00  0.00    +0.000 N 
ATOM     11  C   UNL     1      -0.455  11.336  22.237  0.00  0.00    +0.000 A 
ATOM     12  O   UNL     1       0.480  10.546  22.322  0.00  0.00    +0.000 OA
ATOM     13  H   UNL     1      -1.596  10.317  23.553  0.00  0.00    +0.000 HD
BRANCH   6  14
ATOM     14  N   UNL     1      -1.315  14.724  20.933  0.00  0.00    +0.000 N 
ATOM     15  H   UNL     1      -0.487  14.777  20.348  0.00  0.00    +0.000 HD
ATOM     16  H   UNL     1      -2.121  14.976  20.382  0.00  0.00    +0.000 HD
ENDBRANCH   6  14
BRANCH   7  17
ATOM     17  C   UNL     1      -3.603  14.168  22.649  0.00  0.00    +0.000 C 
BRANCH  17  18
ATOM     18  C   UNL     1      -3.283  15.379  23.508  0.00  0.00    +0.000 A 
ATOM     19  C   UNL     1      -3.575  16.678  23.067  0.00  0.00    +0.000 A 
ATOM     20  C   UNL     1      -3.177  17.794  23.808  0.00  0.00    +0.000 A 
ATOM     21  C   UNL     1      -2.520  17.629  25.023  0.00  0.00    +0.000 A 
ATOM     22  C   UNL     1      -2.299  16.347  25.519  0.00  0.00    +0.000 A 
ATOM     23  C   UNL     1      -2.682  15.231  24.770  0.00  0.00    +0.000 A 
ENDBRANCH  17  18
ENDBRANCH   7  17
ENDBRANCH   2   5
BRANCH   3  24
ATOM     24  C   UNL     1      -0.268  11.594  18.519  0.00  0.00    +0.000 A 
ATOM     25  C   UNL     1      -1.453  12.176  18.031  0.00  0.00    +0.000 A 
ATOM     26  C   UNL     1      -2.350  11.464  17.241  0.00  0.00    +0.000 A 
ATOM     27  C   UNL     1      -2.150  10.108  17.048  0.00  0.00    +0.000 A 
ATOM     28  C   UNL     1      -1.055   9.479  17.633  0.00  0.00    +0.000 A 
ATOM     29  C   UNL     1      -0.079  10.206  18.343  0.00  0.00    +0.000 A 
BRANCH  29  30
ATOM     30  O   UNL     1       1.036   9.587  18.849  0.00  0.00    +0.000 OA
BRANCH  30  31
ATOM     31  C   UNL     1       1.999   9.119  17.885  0.00  0.00    +0.000 C 
BRANCH  31  32
ATOM     32  C   UNL     1       2.638   7.812  18.303  0.00  0.00    +0.000 A 
ATOM     33  C   UNL     1       3.637   7.215  17.526  0.00  0.00    +0.000 A 
ATOM     34  C   UNL     1       4.180   5.986  17.895  0.00  0.00    +0.000 A 
ATOM     35  C   UNL     1       3.734   5.356  19.048  0.00  0.00    +0.000 A 
ATOM     36  F   UNL     1       4.244   4.166  19.387  0.00  0.00    +0.000 F 
ATOM     37  C   UNL     1       2.758   5.938  19.850  0.00  0.00    +0.000 A 
ATOM     38  C   UNL     1       2.212   7.171  19.485  0.00  0.00    +0.000 A 
ENDBRANCH  31  32
ENDBRANCH  30  31
ENDBRANCH  29  30
ENDBRANCH   3  24
TORSDOF 8
ENDMDL
MODEL 6
REMARK VINA RESULT:      -7.1      1.531      2.607
REMARK  Name = 
REMARK  9 active torsions:
REMARK  status: ('A' for Active; 'I' for Inactive)
REMARK    1  A    between atoms: C_1  and  N_2
REMARK    2  A    between atoms: N_2  and  C_20
REMARK    3  A    between atoms: C_3  and  C_5
REMARK    4  A    between atoms: C_10  and  O_11
REMARK    5  A    between atoms: O_11  and  C_12
REMARK    6  A    between atoms: C_12  and  C_13
REMARK    7  A    between atoms: C_21  and  N_22
REMARK    8  A    between atoms: N_23  and  C_24
REMARK    9  A    between atoms: C_24  and  C_25
REMARK                            x       y       z     vdW  Elec       q    Type
REMARK                         _______ _______ _______ _____ _____    ______ ____
ROOT
ATOM      1  C   UNL     1       1.400  14.016  21.002  0.00  0.00    +0.000 C 
ATOM      2  N   UNL     1       0.369  13.123  20.457  0.00  0.00    +0.000 N 
ATOM      3  C   UNL     1       0.461  12.763  19.081  0.00  0.00    +0.000 C 
ATOM      4  O   UNL     1       1.364  13.209  18.350  0.00  0.00    +0.000 OA
ENDROOT
BRANCH   2   5
ATOM      5  C   UNL     1      -0.734  12.832  21.291  0.00  0.00    +0.000 A 
ATOM      6  C   UNL     1      -1.826  13.648  21.396  0.00  0.00    +0.000 A 
ATOM      7  N   UNL     1      -2.841  13.357  22.323  0.00  0.00    +0.000 N 
ATOM      8  C   UNL     1      -2.799  12.232  23.138  0.00  0.00    +0.000 A 
ATOM      9  O   UNL     1      -3.647  11.945  23.980  0.00  0.00    +0.000 OA
ATOM     10  N   UNL     1      -1.734  11.407  22.978  0.00  0.00    +0.000 N 
ATOM     11  C   UNL     1      -0.626  11.679  22.244  0.00  0.00    +0.000 A 
ATOM     12  O   UNL     1       0.388  11.004  22.388  0.00  0.00    +0.000 OA
ATOM     13  H   UNL     1      -1.660  10.646  23.636  0.00  0.00    +0.000 HD
BRANCH   6  14
ATOM     14  N   UNL     1      -1.838  14.846  20.687  0.00  0.00    +0.000 N 
ATOM     15  H   UNL     1      -2.109  15.629  21.275  0.00  0.00    +0.000 HD
ATOM     16  H   UNL     1      -0.957  15.059  20.246  0.00  0.00    +0.000 HD
ENDBRANCH   6  14
BRANCH   7  17
ATOM     17  C   UNL     1      -4.064  14.177  22.443  0.00  0.00    +0.000 C 
BRANCH  17  18
ATOM     18  C   UNL     1      -3.988  15.281  23.484  0.00  0.00    +0.000 A 
ATOM     19  C   UNL     1      -5.150  15.862  24.010  0.00  0.00    +0.000 A 
ATOM     20  C   UNL     1      -5.076  16.953  24.880  0.00  0.00    +0.000 A 
ATOM     21  C   UNL     1      -3.839  17.454  25.271  0.00  0.00    +0.000 A 
ATOM     22  C   UNL     1      -2.674  16.835  24.828  0.00  0.00    +0.000 A 
ATOM     23  C   UNL     1      -2.747  15.755  23.944  0.00  0.00    +0.000 A 
ENDBRANCH  17  18
ENDBRANCH   7  17
ENDBRANCH   2   5
BRANCH   3  24
ATOM     24  C   UNL     1      -0.471  11.720  18.495  0.00  0.00    +0.000 A 
ATOM     25  C   UNL     1      -1.787  12.115  18.186  0.00  0.00    +0.000 A 
ATOM     26  C   UNL     1      -2.646  11.299  17.456  0.00  0.00    +0.000 A 
ATOM     27  C   UNL     1      -2.252  10.009  17.147  0.00  0.00    +0.000 A 
ATOM     28  C   UNL     1      -1.005   9.549  17.559  0.00  0.00    +0.000 A 
ATOM     29  C   UNL     1      -0.080  10.395  18.202  0.00  0.00    +0.000 A 
BRANCH  29  30
ATOM     30  O   UNL     1       1.175   9.951  18.534  0.00  0.00    +0.000 OA
BRANCH  30  31
ATOM     31  C   UNL     1       1.242   8.924  19.542  0.00  0.00    +0.000 C 
BRANCH  31  32
ATOM     32  C   UNL     1       2.154   7.786  19.137  0.00  0.00    +0.000 A 
ATOM     33  C   UNL     1       2.295   6.652  19.945  0.00  0.00    +0.000 A 
ATOM     34  C   UNL     1       3.178   5.634  19.588  0.00  0.00    +0.000 A 
ATOM     35  C   UNL     1       3.913   5.743  18.416  0.00  0.00    +0.000 A 
ATOM     36  F   UNL     1       4.774   4.773  18.087  0.00  0.00    +0.000 F 
ATOM     37  C   UNL     1       3.775   6.849  17.584  0.00  0.00    +0.000 A 
ATOM     38  C   UNL     1       2.891   7.871  17.938  0.00  0.00    +0.000 A 
ENDBRANCH  31  32
ENDBRANCH  30  31
ENDBRANCH  29  30
ENDBRANCH   3  24
TORSDOF 8
ENDMDL
MODEL 7
REMARK VINA RESULT:      -7.1      1.917      2.671
REMARK  Name = 
REMARK  9 active torsions:
REMARK  status: ('A' for Active; 'I' for Inactive)
REMARK    1  A    between atoms: C_1  and  N_2
REMARK    2  A    between atoms: N_2  and  C_20
REMARK    3  A    between atoms: C_3  and  C_5
REMARK    4  A    between atoms: C_10  and  O_11
REMARK    5  A    between atoms: O_11  and  C_12
REMARK    6  A    between atoms: C_12  and  C_13
REMARK    7  A    between atoms: C_21  and  N_22
REMARK    8  A    between atoms: N_23  and  C_24
REMARK    9  A    between atoms: C_24  and  C_25
REMARK                            x       y       z     vdW  Elec       q    Type
REMARK                         _______ _______ _______ _____ _____    ______ ____
ROOT
ATOM      1  C   UNL     1      -0.207  15.018  20.896  0.00  0.00    +0.000 C 
ATOM      2  N   UNL     1      -1.000  13.841  20.517  0.00  0.00    +0.000 N 
ATOM      3  C   UNL     1      -0.893  13.369  19.176  0.00  0.00    +0.000 C 
ATOM      4  O   UNL     1      -0.176  13.947  18.338  0.00  0.00    +0.000 OA
ENDROOT
BRANCH   2   5
ATOM      5  C   UNL     1      -1.944  13.372  21.459  0.00  0.00    +0.000 A 
ATOM      6  C   UNL     1      -3.211  13.875  21.559  0.00  0.00    +0.000 A 
ATOM      7  N   UNL     1      -4.066  13.442  22.587  0.00  0.00    +0.000 N 
ATOM      8  C   UNL     1      -3.682  12.479  23.512  0.00  0.00    +0.000 A 
ATOM      9  O   UNL     1      -4.381  12.083  24.443  0.00  0.00    +0.000 OA
ATOM     10  N   UNL     1      -2.440  11.953  23.361  0.00  0.00    +0.000 N 
ATOM     11  C   UNL     1      -1.483  12.418  22.520  0.00  0.00    +0.000 A 
ATOM     12  O   UNL     1      -0.317  12.059  22.657  0.00  0.00    +0.000 OA
ATOM     13  H   UNL     1      -2.133  11.327  24.089  0.00  0.00    +0.000 HD
BRANCH   6  14
ATOM     14  N   UNL     1      -3.581  14.929  20.729  0.00  0.00    +0.000 N 
ATOM     15  H   UNL     1      -2.772  15.403  20.338  0.00  0.00    +0.000 HD
ATOM     16  H   UNL     1      -4.191  14.650  19.976  0.00  0.00    +0.000 HD
ENDBRANCH   6  14
BRANCH   7  17
ATOM     17  C   UNL     1      -5.460  13.916  22.712  0.00  0.00    +0.000 C 
BRANCH  17  18
ATOM     18  C   UNL     1      -5.603  15.337  23.231  0.00  0.00    +0.000 A 
ATOM     19  C   UNL     1      -4.795  15.812  24.273  0.00  0.00    +0.000 A 
ATOM     20  C   UNL     1      -5.006  17.079  24.824  0.00  0.00    +0.000 A 
ATOM     21  C   UNL     1      -5.999  17.907  24.313  0.00  0.00    +0.000 A 
ATOM     22  C   UNL     1      -6.753  17.488  23.221  0.00  0.00    +0.000 A 
ATOM     23  C   UNL     1      -6.554  16.214  22.681  0.00  0.00    +0.000 A 
ENDBRANCH  17  18
ENDBRANCH   7  17
ENDBRANCH   2   5
BRANCH   3  24
ATOM     24  C   UNL     1      -1.553  12.068  18.763  0.00  0.00    +0.000 A 
ATOM     25  C   UNL     1      -2.879  12.126  18.294  0.00  0.00    +0.000 A 
ATOM     26  C   UNL     1      -3.495  11.030  17.697  0.00  0.00    +0.000 A 
ATOM     27  C   UNL     1      -2.842   9.809  17.692  0.00  0.00    +0.000 A 
ATOM     28  C   UNL     1      -1.582   9.695  18.271  0.00  0.00    +0.000 A 
ATOM     29  C   UNL     1      -0.899  10.817  18.781  0.00  0.00    +0.000 A 
BRANCH  29  30
ATOM     30  O   UNL     1       0.374  10.705  19.279  0.00  0.00    +0.000 OA
BRANCH  30  31
ATOM     31  C   UNL     1       1.376  10.218  18.364  0.00  0.00    +0.000 C 
BRANCH  31  32
ATOM     32  C   UNL     1       1.847   8.825  18.723  0.00  0.00    +0.000 A 
ATOM     33  C   UNL     1       1.560   8.265  19.974  0.00  0.00    +0.000 A 
ATOM     34  C   UNL     1       2.044   7.003  20.312  0.00  0.00    +0.000 A 
ATOM     35  C   UNL     1       2.806   6.292  19.397  0.00  0.00    +0.000 A 
ATOM     36  F   UNL     1       3.286   5.089  19.734  0.00  0.00    +0.000 F 
ATOM     37  C   UNL     1       3.087   6.816  18.140  0.00  0.00    +0.000 A 
ATOM     38  C   UNL     1       2.603   8.080  17.796  0.00  0.00    +0.000 A 
ENDBRANCH  31  32
ENDBRANCH  30  31
ENDBRANCH  29  30
ENDBRANCH   3  24
TORSDOF 8
ENDMDL
MODEL 8
REMARK VINA RESULT:      -7.0      1.928      3.288
REMARK  Name = 
REMARK  9 active torsions:
REMARK  status: ('A' for Active; 'I' for Inactive)
REMARK    1  A    between atoms: C_1  and  N_2
REMARK    2  A    between atoms: N_2  and  C_20
REMARK    3  A    between atoms: C_3  and  C_5
REMARK    4  A    between atoms: C_10  and  O_11
REMARK    5  A    between atoms: O_11  and  C_12
REMARK    6  A    between atoms: C_12  and  C_13
REMARK    7  A    between atoms: C_21  and  N_22
REMARK    8  A    between atoms: N_23  and  C_24
REMARK    9  A    between atoms: C_24  and  C_25
REMARK                            x       y       z     vdW  Elec       q    Type
REMARK                         _______ _______ _______ _____ _____    ______ ____
ROOT
ATOM      1  C   UNL     1       0.342  13.808  18.248  0.00  0.00    +0.000 C 
ATOM      2  N   UNL     1      -0.195  12.857  19.231  0.00  0.00    +0.000 N 
ATOM      3  C   UNL     1       0.716  12.267  20.154  0.00  0.00    +0.000 C 
ATOM      4  O   UNL     1       1.935  12.520  20.117  0.00  0.00    +0.000 OA
ENDROOT
BRANCH   2   5
ATOM      5  C   UNL     1      -1.544  12.464  19.073  0.00  0.00    +0.000 A 
ATOM      6  C   UNL     1      -2.591  13.156  19.615  0.00  0.00    +0.000 A 
ATOM      7  N   UNL     1      -3.900  12.655  19.513  0.00  0.00    +0.000 N 
ATOM      8  C   UNL     1      -4.189  11.473  18.842  0.00  0.00    +0.000 A 
ATOM      9  O   UNL     1      -5.311  10.980  18.744  0.00  0.00    +0.000 OA
ATOM     10  N   UNL     1      -3.143  10.832  18.264  0.00  0.00    +0.000 N 
ATOM     11  C   UNL     1      -1.833  11.133  18.446  0.00  0.00    +0.000 A 
ATOM     12  O   UNL     1      -0.966  10.332  18.112  0.00  0.00    +0.000 OA
ATOM     13  H   UNL     1      -3.344   9.929  17.862  0.00  0.00    +0.000 HD
BRANCH   6  14
ATOM     14  N   UNL     1      -2.321  14.274  20.400  0.00  0.00    +0.000 N 
ATOM     15  H   UNL     1      -1.878  15.014  19.862  0.00  0.00    +0.000 HD
ATOM     16  H   UNL     1      -3.138  14.647  20.858  0.00  0.00    +0.000 HD
ENDBRANCH   6  14
BRANCH   7  17
ATOM     17  C   UNL     1      -5.071  13.386  20.038  0.00  0.00    +0.000 C 
BRANCH  17  18
ATOM     18  C   UNL     1      -5.458  13.025  21.462  0.00  0.00    +0.000 A 
ATOM     19  C   UNL     1      -6.772  12.656  21.784  0.00  0.00    +0.000 A 
ATOM     20  C   UNL     1      -7.150  12.436  23.112  0.00  0.00    +0.000 A 
ATOM     21  C   UNL     1      -6.211  12.540  24.133  0.00  0.00    +0.000 A 
ATOM     22  C   UNL     1      -4.883  12.818  23.824  0.00  0.00    +0.000 A 
ATOM     23  C   UNL     1      -4.508  13.056  22.498  0.00  0.00    +0.000 A 
ENDBRANCH  17  18
ENDBRANCH   7  17
ENDBRANCH   2   5
BRANCH   3  24
ATOM     24  C   UNL     1       0.208  11.408  21.294  0.00  0.00    +0.000 A 
ATOM     25  C   UNL     1      -0.582  12.028  22.282  0.00  0.00    +0.000 A 
ATOM     26  C   UNL     1      -1.266  11.291  23.244  0.00  0.00    +0.000 A 
ATOM     27  C   UNL     1      -1.053   9.926  23.326  0.00  0.00    +0.000 A 
ATOM     28  C   UNL     1      -0.172   9.308  22.445  0.00  0.00    +0.000 A 
ATOM     29  C   UNL     1       0.443  10.019  21.396  0.00  0.00    +0.000 A 
BRANCH  29  30
ATOM     30  O   UNL     1       1.250   9.383  20.486  0.00  0.00    +0.000 OA
BRANCH  30  31
ATOM     31  C   UNL     1       1.353   7.952  20.617  0.00  0.00    +0.000 C 
BRANCH  31  32
ATOM     32  C   UNL     1       2.256   7.346  19.564  0.00  0.00    +0.000 A 
ATOM     33  C   UNL     1       2.540   8.031  18.376  0.00  0.00    +0.000 A 
ATOM     34  C   UNL     1       3.330   7.441  17.391  0.00  0.00    +0.000 A 
ATOM     35  C   UNL     1       3.847   6.169  17.596  0.00  0.00    +0.000 A 
ATOM     36  F   UNL     1       4.588   5.598  16.639  0.00  0.00    +0.000 F 
ATOM     37  C   UNL     1       3.598   5.477  18.776  0.00  0.00    +0.000 A 
ATOM     38  C   UNL     1       2.808   6.065  19.767  0.00  0.00    +0.000 A 
ENDBRANCH  31  32
ENDBRANCH  30  31
ENDBRANCH  29  30
ENDBRANCH   3  24
TORSDOF 8
ENDMDL
MODEL 9
REMARK VINA RESULT:      -7.0      4.680      8.227
REMARK  Name = 
REMARK  9 active torsions:
REMARK  status: ('A' for Active; 'I' for Inactive)
REMARK    1  A    between atoms: C_1  and  N_2
REMARK    2  A    between atoms: N_2  and  C_20
REMARK    3  A    between atoms: C_3  and  C_5
REMARK    4  A    between atoms: C_10  and  O_11
REMARK    5  A    between atoms: O_11  and  C_12
REMARK    6  A    between atoms: C_12  and  C_13
REMARK    7  A    between atoms: C_21  and  N_22
REMARK    8  A    between atoms: N_23  and  C_24
REMARK    9  A    between atoms: C_24  and  C_25
REMARK                            x       y       z     vdW  Elec       q    Type
REMARK                         _______ _______ _______ _____ _____    ______ ____
ROOT
ATOM      1  C   UNL     1       1.450   3.359  18.023  0.00  0.00    +0.000 C 
ATOM      2  N   UNL     1       2.583   4.252  18.302  0.00  0.00    +0.000 N 
ATOM      3  C   UNL     1       3.895   3.772  18.017  0.00  0.00    +0.000 C 
ATOM      4  O   UNL     1       4.086   2.624  17.575  0.00  0.00    +0.000 OA
ENDROOT
BRANCH   2   5
ATOM      5  C   UNL     1       2.300   5.450  18.996  0.00  0.00    +0.000 A 
ATOM      6  C   UNL     1       2.358   6.683  18.409  0.00  0.00    +0.000 A 
ATOM      7  N   UNL     1       2.171   7.844  19.179  0.00  0.00    +0.000 N 
ATOM      8  C   UNL     1       1.893   7.791  20.540  0.00  0.00    +0.000 A 
ATOM      9  O   UNL     1       1.744   8.775  21.263  0.00  0.00    +0.000 OA
ATOM     10  N   UNL     1       1.785   6.556  21.091  0.00  0.00    +0.000 N 
ATOM     11  C   UNL     1       2.114   5.388  20.482  0.00  0.00    +0.000 A 
ATOM     12  O   UNL     1       2.249   4.366  21.147  0.00  0.00    +0.000 OA
ATOM     13  H   UNL     1       1.679   6.525  22.093  0.00  0.00    +0.000 HD
BRANCH   6  14
ATOM     14  N   UNL     1       2.759   6.775  17.079  0.00  0.00    +0.000 N 
ATOM     15  H   UNL     1       2.088   7.293  16.519  0.00  0.00    +0.000 HD
ATOM     16  H   UNL     1       3.670   7.191  16.964  0.00  0.00    +0.000 HD
ENDBRANCH   6  14
BRANCH   7  17
ATOM     17  C   UNL     1       2.174   9.197  18.588  0.00  0.00    +0.000 C 
BRANCH  17  18
ATOM     18  C   UNL     1       0.802   9.836  18.458  0.00  0.00    +0.000 A 
ATOM     19  C   UNL     1       0.452  10.961  19.219  0.00  0.00    +0.000 A 
ATOM     20  C   UNL     1      -0.846  11.477  19.181  0.00  0.00    +0.000 A 
ATOM     21  C   UNL     1      -1.804  10.902  18.352  0.00  0.00    +0.000 A 
ATOM     22  C   UNL     1      -1.451   9.840  17.524  0.00  0.00    +0.000 A 
ATOM     23  C   UNL     1      -0.157   9.313  17.574  0.00  0.00    +0.000 A 
ENDBRANCH  17  18
ENDBRANCH   7  17
ENDBRANCH   2   5
BRANCH   3  24
ATOM     24  C   UNL     1       5.092   4.695  18.126  0.00  0.00    +0.000 A 
ATOM     25  C   UNL     1       5.635   4.918  19.406  0.00  0.00    +0.000 A 
ATOM     26  C   UNL     1       6.850   5.572  19.584  0.00  0.00    +0.000 A 
ATOM     27  C   UNL     1       7.474   6.147  18.490  0.00  0.00    +0.000 A 
ATOM     28  C   UNL     1       6.888   6.056  17.232  0.00  0.00    +0.000 A 
ATOM     29  C   UNL     1       5.716   5.304  17.015  0.00  0.00    +0.000 A 
BRANCH  29  30
ATOM     30  O   UNL     1       5.191   5.157  15.756  0.00  0.00    +0.000 OA
BRANCH  30  31
ATOM     31  C   UNL     1       6.034   5.570  14.662  0.00  0.00    +0.000 C 
BRANCH  31  32
ATOM     32  C   UNL     1       6.101   4.526  13.569  0.00  0.00    +0.000 A 
ATOM     33  C   UNL     1       4.979   3.758  13.232  0.00  0.00    +0.000 A 
ATOM     34  C   UNL     1       5.067   2.764  12.260  0.00  0.00    +0.000 A 
ATOM     35  C   UNL     1       6.274   2.542  11.613  0.00  0.00    +0.000 A 
ATOM     36  F   UNL     1       6.359   1.572  10.694  0.00  0.00    +0.000 F 
ATOM     37  C   UNL     1       7.398   3.305  11.912  0.00  0.00    +0.000 A 
ATOM     38  C   UNL     1       7.314   4.303  12.885  0.00  0.00    +0.000 A 
ENDBRANCH  31  32
ENDBRANCH  30  31
ENDBRANCH  29  30
ENDBRANCH   3  24
TORSDOF 8
ENDMDL
