MODEL 1
REMARK VINA RESULT:      -8.8      0.000      0.000
REMARK  Name = 
REMARK  6 active torsions:
REMARK  status: ('A' for Active; 'I' for Inactive)
REMARK    1  A    between atoms: C_1  and  C_2
REMARK    2  A    between atoms: C_2  and  S_3
REMARK    3  A    between atoms: C_2  and  C_10
REMARK    4  A    between atoms: S_3  and  C_4
REMARK    5  A    between atoms: N_8  and  C_9
REMARK    6  A    between atoms: C_14  and  C_15
REMARK                            x       y       z     vdW  Elec       q    Type
REMARK                         _______ _______ _______ _____ _____    ______ ____
ROOT
ATOM      1  C   UNL     1       2.677   6.746  19.384  0.00  0.00    +0.000 A 
ATOM      2  C   UNL     1       2.899   7.264  18.097  0.00  0.00    +0.000 A 
ATOM      3  C   UNL     1       2.331   8.473  17.705  0.00  0.00    +0.000 A 
ATOM      4  C   UNL     1       1.553   9.201  18.601  0.00  0.00    +0.000 A 
ATOM      5  C   UNL     1       1.319   8.745  19.911  0.00  0.00    +0.000 A 
ATOM      6  C   UNL     1       1.908   7.515  20.283  0.00  0.00    +0.000 A 
ENDROOT
BRANCH   5   7
ATOM      7  C   UNL     1       0.461   9.521  20.842  0.00  0.00    +0.000 A 
ATOM      8  C   UNL     1       0.338   9.166  22.208  0.00  0.00    +0.000 A 
ATOM      9  C   UNL     1      -0.457   9.901  23.102  0.00  0.00    +0.000 A 
ATOM     10  C   UNL     1      -1.115  11.018  22.628  0.00  0.00    +0.000 A 
ATOM     11  C   UNL     1      -1.007  11.393  21.288  0.00  0.00    +0.000 A 
ATOM     12  C   UNL     1      -0.249  10.655  20.391  0.00  0.00    +0.000 A 
ATOM     13  C   UNL     1      -1.784  12.651  21.052  0.00  0.00    +0.000 C 
ATOM     14  C   UNL     1      -2.337  12.906  22.434  0.00  0.00    +0.000 C 
ATOM     15  C   UNL     1      -1.961  11.973  23.322  0.00  0.00    +0.000 C 
ENDBRANCH   5   7
BRANCH   1  17
ATOM     16  C   UNL     1       2.151   4.676  20.720  0.00  0.00    +0.000 C 
ATOM     17  C   UNL     1       3.172   5.355  19.793  0.00  0.00    +0.000 C 
BRANCH  17  18
ATOM     18  S   UNL     1       3.580   4.327  18.321  0.00  0.00    +0.000 S 
BRANCH  18  19
ATOM     19  C   UNL     1       5.293   4.541  18.180  0.00  0.00    +0.000 A 
ATOM     20  N   UNL     1       6.160   4.626  19.168  0.00  0.00    +0.000 NA
ATOM     21  N   UNL     1       7.423   4.649  18.630  0.00  0.00    +0.000 NA
ATOM     22  C   UNL     1       7.295   4.620  17.325  0.00  0.00    +0.000 A 
ATOM     23  N   UNL     1       5.972   4.599  16.996  0.00  0.00    +0.000 N 
ATOM     24  C   UNL     1       5.458   4.677  15.653  0.00  0.00    +0.000 C 
ENDBRANCH  18  19
ENDBRANCH  17  18
ENDBRANCH   1  17
TORSDOF 4
ENDMDL
MODEL 2
REMARK VINA RESULT:      -8.7      2.330      4.271
REMARK  Name = 
REMARK  6 active torsions:
REMARK  status: ('A' for Active; 'I' for Inactive)
REMARK    1  A    between atoms: C_1  and  C_2
REMARK    2  A    between atoms: C_2  and  S_3
REMARK    3  A    between atoms: C_2  and  C_10
REMARK    4  A    between atoms: S_3  and  C_4
REMARK    5  A    between atoms: N_8  and  C_9
REMARK    6  A    between atoms: C_14  and  C_15
REMARK                            x       y       z     vdW  Elec       q    Type
REMARK                         _______ _______ _______ _____ _____    ______ ____
ROOT
ATOM      1  C   UNL     1       4.568   4.992  17.255  0.00  0.00    +0.000 A 
ATOM      2  C   UNL     1       3.846   3.806  17.476  0.00  0.00    +0.000 A 
ATOM      3  C   UNL     1       2.613   3.830  18.120  0.00  0.00    +0.000 A 
ATOM      4  C   UNL     1       2.063   5.041  18.532  0.00  0.00    +0.000 A 
ATOM      5  C   UNL     1       2.728   6.262  18.313  0.00  0.00    +0.000 A 
ATOM      6  C   UNL     1       3.978   6.210  17.657  0.00  0.00    +0.000 A 
ENDROOT
BRANCH   5   7
ATOM      7  C   UNL     1       2.139   7.540  18.787  0.00  0.00    +0.000 A 
ATOM      8  C   UNL     1       1.913   8.625  17.904  0.00  0.00    +0.000 A 
ATOM      9  C   UNL     1       1.343   9.834  18.336  0.00  0.00    +0.000 A 
ATOM     10  C   UNL     1       0.973   9.947  19.660  0.00  0.00    +0.000 A 
ATOM     11  C   UNL     1       1.179   8.892  20.550  0.00  0.00    +0.000 A 
ATOM     12  C   UNL     1       1.770   7.706  20.139  0.00  0.00    +0.000 A 
ATOM     13  C   UNL     1       0.656   9.263  21.903  0.00  0.00    +0.000 C 
ATOM     14  C   UNL     1       0.148  10.660  21.637  0.00  0.00    +0.000 C 
ATOM     15  C   UNL     1       0.336  11.046  20.365  0.00  0.00    +0.000 C 
ENDBRANCH   5   7
BRANCH   1  17
ATOM     16  C   UNL     1       7.023   4.895  17.809  0.00  0.00    +0.000 C 
ATOM     17  C   UNL     1       5.986   4.979  16.677  0.00  0.00    +0.000 C 
BRANCH  17  18
ATOM     18  S   UNL     1       6.193   3.640  15.431  0.00  0.00    +0.000 S 
BRANCH  18  19
ATOM     19  C   UNL     1       6.909   4.481  14.096  0.00  0.00    +0.000 A 
ATOM     20  N   UNL     1       7.746   5.497  14.163  0.00  0.00    +0.000 NA
ATOM     21  N   UNL     1       8.184   5.775  12.891  0.00  0.00    +0.000 NA
ATOM     22  C   UNL     1       7.572   4.951  12.075  0.00  0.00    +0.000 A 
ATOM     23  N   UNL     1       6.726   4.150  12.783  0.00  0.00    +0.000 N 
ATOM     24  C   UNL     1       5.812   3.202  12.202  0.00  0.00    +0.000 C 
ENDBRANCH  18  19
ENDBRANCH  17  18
ENDBRANCH   1  17
TORSDOF 4
ENDMDL
MODEL 3
REMARK VINA RESULT:      -8.4      0.776      1.537
REMARK  Name = 
REMARK  6 active torsions:
REMARK  status: ('A' for Active; 'I' for Inactive)
REMARK    1  A    between atoms: C_1  and  C_2
REMARK    2  A    between atoms: C_2  and  S_3
REMARK    3  A    between atoms: C_2  and  C_10
REMARK    4  A    between atoms: S_3  and  C_4
REMARK    5  A    between atoms: N_8  and  C_9
REMARK    6  A    between atoms: C_14  and  C_15
REMARK                            x       y       z     vdW  Elec       q    Type
REMARK                         _______ _______ _______ _____ _____    ______ ____
ROOT
ATOM      1  C   UNL     1       2.910   6.384  19.295  0.00  0.00    +0.000 A 
ATOM      2  C   UNL     1       3.338   6.613  17.976  0.00  0.00    +0.000 A 
ATOM      3  C   UNL     1       2.939   7.752  17.282  0.00  0.00    +0.000 A 
ATOM      4  C   UNL     1       2.126   8.698  17.903  0.00  0.00    +0.000 A 
ATOM      5  C   UNL     1       1.690   8.535  19.230  0.00  0.00    +0.000 A 
ATOM      6  C   UNL     1       2.110   7.370  19.911  0.00  0.00    +0.000 A 
ENDROOT
BRANCH   5   7
ATOM      7  C   UNL     1       0.800   9.540  19.864  0.00  0.00    +0.000 A 
ATOM      8  C   UNL     1       0.249  10.615  19.124  0.00  0.00    +0.000 A 
ATOM      9  C   UNL     1      -0.607  11.564  19.707  0.00  0.00    +0.000 A 
ATOM     10  C   UNL     1      -0.935  11.418  21.040  0.00  0.00    +0.000 A 
ATOM     11  C   UNL     1      -0.411  10.364  21.791  0.00  0.00    +0.000 A 
ATOM     12  C   UNL     1       0.460   9.442  21.231  0.00  0.00    +0.000 A 
ATOM     13  C   UNL     1      -0.954  10.419  23.186  0.00  0.00    +0.000 C 
ATOM     14  C   UNL     1      -1.832  11.645  23.099  0.00  0.00    +0.000 C 
ATOM     15  C   UNL     1      -1.813  12.211  21.882  0.00  0.00    +0.000 C 
ENDBRANCH   5   7
BRANCH   1  17
ATOM     16  C   UNL     1       1.952   4.536  20.714  0.00  0.00    +0.000 C 
ATOM     17  C   UNL     1       3.219   5.076  20.030  0.00  0.00    +0.000 C 
BRANCH  17  18
ATOM     18  S   UNL     1       3.993   3.840  18.906  0.00  0.00    +0.000 S 
BRANCH  18  19
ATOM     19  C   UNL     1       5.603   4.456  18.728  0.00  0.00    +0.000 A 
ATOM     20  N   UNL     1       6.359   4.970  19.677  0.00  0.00    +0.000 NA
ATOM     21  N   UNL     1       7.606   5.204  19.152  0.00  0.00    +0.000 NA
ATOM     22  C   UNL     1       7.569   4.867  17.885  0.00  0.00    +0.000 A 
ATOM     23  N   UNL     1       6.316   4.435  17.563  0.00  0.00    +0.000 N 
ATOM     24  C   UNL     1       5.882   4.090  16.235  0.00  0.00    +0.000 C 
ENDBRANCH  18  19
ENDBRANCH  17  18
ENDBRANCH   1  17
TORSDOF 4
ENDMDL
MODEL 4
REMARK VINA RESULT:      -8.3      2.397      4.226
REMARK  Name = 
REMARK  6 active torsions:
REMARK  status: ('A' for Active; 'I' for Inactive)
REMARK    1  A    between atoms: C_1  and  C_2
REMARK    2  A    between atoms: C_2  and  S_3
REMARK    3  A    between atoms: C_2  and  C_10
REMARK    4  A    between atoms: S_3  and  C_4
REMARK    5  A    between atoms: N_8  and  C_9
REMARK    6  A    between atoms: C_14  and  C_15
REMARK                            x       y       z     vdW  Elec       q    Type
REMARK                         _______ _______ _______ _____ _____    ______ ____
ROOT
ATOM      1  C   UNL     1       4.789   4.718  17.811  0.00  0.00    +0.000 A 
ATOM      2  C   UNL     1       4.404   3.497  18.390  0.00  0.00    +0.000 A 
ATOM      3  C   UNL     1       3.360   3.439  19.309  0.00  0.00    +0.000 A 
ATOM      4  C   UNL     1       2.663   4.597  19.647  0.00  0.00    +0.000 A 
ATOM      5  C   UNL     1       2.987   5.842  19.079  0.00  0.00    +0.000 A 
ATOM      6  C   UNL     1       4.050   5.872  18.148  0.00  0.00    +0.000 A 
ENDROOT
BRANCH   5   7
ATOM      7  C   UNL     1       2.252   7.070  19.475  0.00  0.00    +0.000 A 
ATOM      8  C   UNL     1       1.651   7.196  20.752  0.00  0.00    +0.000 A 
ATOM      9  C   UNL     1       0.967   8.357  21.145  0.00  0.00    +0.000 A 
ATOM     10  C   UNL     1       0.906   9.413  20.258  0.00  0.00    +0.000 A 
ATOM     11  C   UNL     1       1.493   9.318  18.996  0.00  0.00    +0.000 A 
ATOM     12  C   UNL     1       2.144   8.163  18.588  0.00  0.00    +0.000 A 
ATOM     13  C   UNL     1       1.314  10.608  18.257  0.00  0.00    +0.000 C 
ATOM     14  C   UNL     1       0.543  11.413  19.276  0.00  0.00    +0.000 C 
ATOM     15  C   UNL     1       0.308  10.729  20.407  0.00  0.00    +0.000 C 
ENDBRANCH   5   7
BRANCH   1  17
ATOM     16  C   UNL     1       7.307   4.672  17.734  0.00  0.00    +0.000 C 
ATOM     17  C   UNL     1       6.021   4.832  16.907  0.00  0.00    +0.000 C 
BRANCH  17  18
ATOM     18  S   UNL     1       5.936   3.645  15.502  0.00  0.00    +0.000 S 
BRANCH  18  19
ATOM     19  C   UNL     1       6.797   4.484  14.254  0.00  0.00    +0.000 A 
ATOM     20  N   UNL     1       7.644   5.480  14.414  0.00  0.00    +0.000 NA
ATOM     21  N   UNL     1       8.210   5.762  13.196  0.00  0.00    +0.000 NA
ATOM     22  C   UNL     1       7.664   4.959  12.313  0.00  0.00    +0.000 A 
ATOM     23  N   UNL     1       6.736   4.170  12.926  0.00  0.00    +0.000 N 
ATOM     24  C   UNL     1       5.863   3.249  12.246  0.00  0.00    +0.000 C 
ENDBRANCH  18  19
ENDBRANCH  17  18
ENDBRANCH   1  17
TORSDOF 4
ENDMDL
MODEL 5
REMARK VINA RESULT:      -8.3      1.595      1.898
REMARK  Name = 
REMARK  6 active torsions:
REMARK  status: ('A' for Active; 'I' for Inactive)
REMARK    1  A    between atoms: C_1  and  C_2
REMARK    2  A    between atoms: C_2  and  S_3
REMARK    3  A    between atoms: C_2  and  C_10
REMARK    4  A    between atoms: S_3  and  C_4
REMARK    5  A    between atoms: N_8  and  C_9
REMARK    6  A    between atoms: C_14  and  C_15
REMARK                            x       y       z     vdW  Elec       q    Type
REMARK                         _______ _______ _______ _____ _____    ______ ____
ROOT
ATOM      1  C   UNL     1       2.344   7.469  19.347  0.00  0.00    +0.000 A 
ATOM      2  C   UNL     1       2.507   8.023  18.066  0.00  0.00    +0.000 A 
ATOM      3  C   UNL     1       1.863   9.205  17.711  0.00  0.00    +0.000 A 
ATOM      4  C   UNL     1       1.065   9.871  18.638  0.00  0.00    +0.000 A 
ATOM      5  C   UNL     1       0.887   9.377  19.943  0.00  0.00    +0.000 A 
ATOM      6  C   UNL     1       1.553   8.176  20.278  0.00  0.00    +0.000 A 
ENDROOT
BRANCH   5   7
ATOM      7  C   UNL     1       0.008  10.085  20.908  0.00  0.00    +0.000 A 
ATOM      8  C   UNL     1      -0.102   9.667  22.257  0.00  0.00    +0.000 A 
ATOM      9  C   UNL     1      -0.917  10.338  23.184  0.00  0.00    +0.000 A 
ATOM     10  C   UNL     1      -1.609  11.454  22.759  0.00  0.00    +0.000 A 
ATOM     11  C   UNL     1      -1.515  11.890  21.437  0.00  0.00    +0.000 A 
ATOM     12  C   UNL     1      -0.737  11.216  20.508  0.00  0.00    +0.000 A 
ATOM     13  C   UNL     1      -2.330  13.134  21.257  0.00  0.00    +0.000 C 
ATOM     14  C   UNL     1      -2.888  13.311  22.649  0.00  0.00    +0.000 C 
ATOM     15  C   UNL     1      -2.482  12.351  23.496  0.00  0.00    +0.000 C 
ENDBRANCH   5   7
BRANCH   1  17
ATOM     16  C   UNL     1       1.835   5.203  20.323  0.00  0.00    +0.000 C 
ATOM     17  C   UNL     1       2.926   6.101  19.717  0.00  0.00    +0.000 C 
BRANCH  17  18
ATOM     18  S   UNL     1       3.765   5.316  18.279  0.00  0.00    +0.000 S 
BRANCH  18  19
ATOM     19  C   UNL     1       4.140   3.736  18.882  0.00  0.00    +0.000 A 
ATOM     20  N   UNL     1       5.110   3.422  19.716  0.00  0.00    +0.000 NA
ATOM     21  N   UNL     1       4.976   2.096  20.051  0.00  0.00    +0.000 NA
ATOM     22  C   UNL     1       3.952   1.624  19.380  0.00  0.00    +0.000 A 
ATOM     23  N   UNL     1       3.425   2.608  18.597  0.00  0.00    +0.000 N 
ATOM     24  C   UNL     1       2.363   2.419  17.644  0.00  0.00    +0.000 C 
ENDBRANCH  18  19
ENDBRANCH  17  18
ENDBRANCH   1  17
TORSDOF 4
ENDMDL
MODEL 6
REMARK VINA RESULT:      -8.2      2.114      3.937
REMARK  Name = 
REMARK  6 active torsions:
REMARK  status: ('A' for Active; 'I' for Inactive)
REMARK    1  A    between atoms: C_1  and  C_2
REMARK    2  A    between atoms: C_2  and  S_3
REMARK    3  A    between atoms: C_2  and  C_10
REMARK    4  A    between atoms: S_3  and  C_4
REMARK    5  A    between atoms: N_8  and  C_9
REMARK    6  A    between atoms: C_14  and  C_15
REMARK                            x       y       z     vdW  Elec       q    Type
REMARK                         _______ _______ _______ _____ _____    ______ ____
ROOT
ATOM      1  C   UNL     1       3.994   5.280  17.396  0.00  0.00    +0.000 A 
ATOM      2  C   UNL     1       4.212   4.216  18.287  0.00  0.00    +0.000 A 
ATOM      3  C   UNL     1       3.741   4.270  19.595  0.00  0.00    +0.000 A 
ATOM      4  C   UNL     1       3.017   5.378  20.031  0.00  0.00    +0.000 A 
ATOM      5  C   UNL     1       2.744   6.460  19.175  0.00  0.00    +0.000 A 
ATOM      6  C   UNL     1       3.234   6.379  17.852  0.00  0.00    +0.000 A 
ENDROOT
BRANCH   5   7
ATOM      7  C   UNL     1       1.997   7.645  19.666  0.00  0.00    +0.000 A 
ATOM      8  C   UNL     1       1.741   8.761  18.831  0.00  0.00    +0.000 A 
ATOM      9  C   UNL     1       1.022   9.881  19.278  0.00  0.00    +0.000 A 
ATOM     10  C   UNL     1       0.533   9.872  20.569  0.00  0.00    +0.000 A 
ATOM     11  C   UNL     1       0.767   8.785  21.412  0.00  0.00    +0.000 A 
ATOM     12  C   UNL     1       1.502   7.688  20.988  0.00  0.00    +0.000 A 
ATOM     13  C   UNL     1       0.099   9.017  22.732  0.00  0.00    +0.000 C 
ATOM     14  C   UNL     1      -0.519  10.376  22.502  0.00  0.00    +0.000 C 
ATOM     15  C   UNL     1      -0.264  10.860  21.276  0.00  0.00    +0.000 C 
ENDBRANCH   5   7
BRANCH   1  17
ATOM     16  C   UNL     1       5.091   6.729  15.651  0.00  0.00    +0.000 C 
ATOM     17  C   UNL     1       4.621   5.307  15.999  0.00  0.00    +0.000 C 
BRANCH  17  18
ATOM     18  S   UNL     1       5.969   4.062  15.842  0.00  0.00    +0.000 S 
BRANCH  18  19
ATOM     19  C   UNL     1       6.868   4.655  14.486  0.00  0.00    +0.000 A 
ATOM     20  N   UNL     1       7.850   5.535  14.515  0.00  0.00    +0.000 NA
ATOM     21  N   UNL     1       8.384   5.623  13.254  0.00  0.00    +0.000 NA
ATOM     22  C   UNL     1       7.690   4.827  12.476  0.00  0.00    +0.000 A 
ATOM     23  N   UNL     1       6.697   4.234  13.198  0.00  0.00    +0.000 N 
ATOM     24  C   UNL     1       5.674   3.385  12.645  0.00  0.00    +0.000 C 
ENDBRANCH  18  19
ENDBRANCH  17  18
ENDBRANCH   1  17
TORSDOF 4
ENDMDL
MODEL 7
REMARK VINA RESULT:      -8.1      1.609      3.258
REMARK  Name = 
REMARK  6 active torsions:
REMARK  status: ('A' for Active; 'I' for Inactive)
REMARK    1  A    between atoms: C_1  and  C_2
REMARK    2  A    between atoms: C_2  and  S_3
REMARK    3  A    between atoms: C_2  and  C_10
REMARK    4  A    between atoms: S_3  and  C_4
REMARK    5  A    between atoms: N_8  and  C_9
REMARK    6  A    between atoms: C_14  and  C_15
REMARK                            x       y       z     vdW  Elec       q    Type
REMARK                         _______ _______ _______ _____ _____    ______ ____
ROOT
ATOM      1  C   UNL     1       3.973   5.302  18.749  0.00  0.00    +0.000 A 
ATOM      2  C   UNL     1       3.477   4.131  19.346  0.00  0.00    +0.000 A 
ATOM      3  C   UNL     1       2.405   4.179  20.232  0.00  0.00    +0.000 A 
ATOM      4  C   UNL     1       1.790   5.395  20.518  0.00  0.00    +0.000 A 
ATOM      5  C   UNL     1       2.227   6.596  19.929  0.00  0.00    +0.000 A 
ATOM      6  C   UNL     1       3.316   6.519  19.032  0.00  0.00    +0.000 A 
ENDROOT
BRANCH   5   7
ATOM      7  C   UNL     1       1.577   7.887  20.269  0.00  0.00    +0.000 A 
ATOM      8  C   UNL     1       1.464   8.934  19.322  0.00  0.00    +0.000 A 
ATOM      9  C   UNL     1       0.838  10.154  19.626  0.00  0.00    +0.000 A 
ATOM     10  C   UNL     1       0.298  10.316  20.885  0.00  0.00    +0.000 A 
ATOM     11  C   UNL     1       0.391   9.299  21.837  0.00  0.00    +0.000 A 
ATOM     12  C   UNL     1       1.034   8.104  21.555  0.00  0.00    +0.000 A 
ATOM     13  C   UNL     1      -0.306   9.719  23.094  0.00  0.00    +0.000 C 
ATOM     14  C   UNL     1      -0.780  11.100  22.707  0.00  0.00    +0.000 C 
ATOM     15  C   UNL     1      -0.429  11.437  21.456  0.00  0.00    +0.000 C 
ENDBRANCH   5   7
BRANCH   1  17
ATOM     16  C   UNL     1       6.489   5.173  18.765  0.00  0.00    +0.000 C 
ATOM     17  C   UNL     1       5.237   5.296  17.882  0.00  0.00    +0.000 C 
BRANCH  17  18
ATOM     18  S   UNL     1       5.157   3.990  16.587  0.00  0.00    +0.000 S 
BRANCH  18  19
ATOM     19  C   UNL     1       6.229   4.605  15.372  0.00  0.00    +0.000 A 
ATOM     20  N   UNL     1       7.263   5.398  15.563  0.00  0.00    +0.000 NA
ATOM     21  N   UNL     1       7.927   5.533  14.368  0.00  0.00    +0.000 NA
ATOM     22  C   UNL     1       7.258   4.853  13.468  0.00  0.00    +0.000 A 
ATOM     23  N   UNL     1       6.158   4.291  14.044  0.00  0.00    +0.000 N 
ATOM     24  C   UNL     1       5.136   3.568  13.333  0.00  0.00    +0.000 C 
ENDBRANCH  18  19
ENDBRANCH  17  18
ENDBRANCH   1  17
TORSDOF 4
ENDMDL
MODEL 8
REMARK VINA RESULT:      -8.1      1.894      2.347
REMARK  Name = 
REMARK  6 active torsions:
REMARK  status: ('A' for Active; 'I' for Inactive)
REMARK    1  A    between atoms: C_1  and  C_2
REMARK    2  A    between atoms: C_2  and  S_3
REMARK    3  A    between atoms: C_2  and  C_10
REMARK    4  A    between atoms: S_3  and  C_4
REMARK    5  A    between atoms: N_8  and  C_9
REMARK    6  A    between atoms: C_14  and  C_15
REMARK                            x       y       z     vdW  Elec       q    Type
REMARK                         _______ _______ _______ _____ _____    ______ ____
ROOT
ATOM      1  C   UNL     1       2.288   7.333  19.659  0.00  0.00    +0.000 A 
ATOM      2  C   UNL     1       2.456   7.763  18.331  0.00  0.00    +0.000 A 
ATOM      3  C   UNL     1       1.815   8.907  17.864  0.00  0.00    +0.000 A 
ATOM      4  C   UNL     1       1.015   9.659  18.721  0.00  0.00    +0.000 A 
ATOM      5  C   UNL     1       0.833   9.291  20.067  0.00  0.00    +0.000 A 
ATOM      6  C   UNL     1       1.495   8.127  20.516  0.00  0.00    +0.000 A 
ENDROOT
BRANCH   5   7
ATOM      7  C   UNL     1      -0.048  10.089  20.958  0.00  0.00    +0.000 A 
ATOM      8  C   UNL     1      -0.191   9.778  22.333  0.00  0.00    +0.000 A 
ATOM      9  C   UNL     1      -1.007  10.534  23.189  0.00  0.00    +0.000 A 
ATOM     10  C   UNL     1      -1.668  11.628  22.668  0.00  0.00    +0.000 A 
ATOM     11  C   UNL     1      -1.541  11.960  21.318  0.00  0.00    +0.000 A 
ATOM     12  C   UNL     1      -0.761  11.201  20.459  0.00  0.00    +0.000 A 
ATOM     13  C   UNL     1      -2.325  13.202  21.028  0.00  0.00    +0.000 C 
ATOM     14  C   UNL     1      -2.904  13.496  22.391  0.00  0.00    +0.000 C 
ATOM     15  C   UNL     1      -2.534  12.597  23.316  0.00  0.00    +0.000 C 
ENDBRANCH   5   7
BRANCH   1  17
ATOM     16  C   UNL     1       1.737   4.997  20.423  0.00  0.00    +0.000 C 
ATOM     17  C   UNL     1       2.866   6.006  20.158  0.00  0.00    +0.000 C 
BRANCH  17  18
ATOM     18  S   UNL     1       4.139   5.350  19.001  0.00  0.00    +0.000 S 
BRANCH  18  19
ATOM     19  C   UNL     1       3.403   3.892  18.424  0.00  0.00    +0.000 A 
ATOM     20  N   UNL     1       2.555   3.781  17.421  0.00  0.00    +0.000 NA
ATOM     21  N   UNL     1       2.323   2.446  17.200  0.00  0.00    +0.000 NA
ATOM     22  C   UNL     1       3.001   1.775  18.101  0.00  0.00    +0.000 A 
ATOM     23  N   UNL     1       3.658   2.645  18.920  0.00  0.00    +0.000 N 
ATOM     24  C   UNL     1       4.409   2.265  20.088  0.00  0.00    +0.000 C 
ENDBRANCH  18  19
ENDBRANCH  17  18
ENDBRANCH   1  17
TORSDOF 4
ENDMDL
MODEL 9
REMARK VINA RESULT:      -8.0      1.818      4.098
REMARK  Name = 
REMARK  6 active torsions:
REMARK  status: ('A' for Active; 'I' for Inactive)
REMARK    1  A    between atoms: C_1  and  C_2
REMARK    2  A    between atoms: C_2  and  S_3
REMARK    3  A    between atoms: C_2  and  C_10
REMARK    4  A    between atoms: S_3  and  C_4
REMARK    5  A    between atoms: N_8  and  C_9
REMARK    6  A    between atoms: C_14  and  C_15
REMARK                            x       y       z     vdW  Elec       q    Type
REMARK                         _______ _______ _______ _____ _____    ______ ____
ROOT
ATOM      1  C   UNL     1       4.397   4.622  17.267  0.00  0.00    +0.000 A 
ATOM      2  C   UNL     1       4.147   3.557  18.149  0.00  0.00    +0.000 A 
ATOM      3  C   UNL     1       3.326   3.726  19.260  0.00  0.00    +0.000 A 
ATOM      4  C   UNL     1       2.716   4.955  19.497  0.00  0.00    +0.000 A 
ATOM      5  C   UNL     1       2.908   6.049  18.633  0.00  0.00    +0.000 A 
ATOM      6  C   UNL     1       3.746   5.850  17.513  0.00  0.00    +0.000 A 
ENDROOT
BRANCH   5   7
ATOM      7  C   UNL     1       2.274   7.361  18.919  0.00  0.00    +0.000 A 
ATOM      8  C   UNL     1       2.110   8.342  17.910  0.00  0.00    +0.000 A 
ATOM      9  C   UNL     1       1.497   9.580  18.163  0.00  0.00    +0.000 A 
ATOM     10  C   UNL     1       1.022   9.827  19.435  0.00  0.00    +0.000 A 
ATOM     11  C   UNL     1       1.165   8.876  20.446  0.00  0.00    +0.000 A 
ATOM     12  C   UNL     1       1.797   7.664  20.213  0.00  0.00    +0.000 A 
ATOM     13  C   UNL     1       0.533   9.381  21.707  0.00  0.00    +0.000 C 
ATOM     14  C   UNL     1       0.036  10.733  21.253  0.00  0.00    +0.000 C 
ATOM     15  C   UNL     1       0.322  10.984  19.965  0.00  0.00    +0.000 C 
ENDBRANCH   5   7
BRANCH   1  17
ATOM     16  C   UNL     1       5.264   5.694  15.159  0.00  0.00    +0.000 C 
ATOM     17  C   UNL     1       5.405   4.503  16.120  0.00  0.00    +0.000 C 
BRANCH  17  18
ATOM     18  S   UNL     1       7.123   4.307  16.752  0.00  0.00    +0.000 S 
BRANCH  18  19
ATOM     19  C   UNL     1       7.535   5.924  17.219  0.00  0.00    +0.000 A 
ATOM     20  N   UNL     1       7.631   6.972  16.427  0.00  0.00    +0.000 NA
ATOM     21  N   UNL     1       7.837   8.083  17.208  0.00  0.00    +0.000 NA
ATOM     22  C   UNL     1       7.904   7.680  18.454  0.00  0.00    +0.000 A 
ATOM     23  N   UNL     1       7.766   6.325  18.505  0.00  0.00    +0.000 N 
ATOM     24  C   UNL     1       7.898   5.529  19.697  0.00  0.00    +0.000 C 
ENDBRANCH  18  19
ENDBRANCH  17  18
ENDBRANCH   1  17
TORSDOF 4
ENDMDL
