MODEL 1
REMARK VINA RESULT:      -9.5      0.000      0.000
REMARK  Name = 
REMARK  6 active torsions:
REMARK  status: ('A' for Active; 'I' for Inactive)
REMARK    1  A    between atoms: C_1  and  C_2
REMARK    2  A    between atoms: C_7  and  C_8
REMARK    3  A    between atoms: C_8  and  N_9
REMARK    4  A    between atoms: N_9  and  C_10
REMARK    5  A    between atoms: C_10  and  C_11
REMARK    6  A    between atoms: N_19  and  C_20
REMARK                            x       y       z     vdW  Elec       q    Type
REMARK                         _______ _______ _______ _____ _____    ______ ____
ROOT
ATOM      1  N   UNL     1       3.158   7.122  18.060  0.00  0.00    +0.000 N 
ATOM      2  C   UNL     1       2.399   8.289  18.060  0.00  0.00    +0.000 C 
ATOM      3  O   UNL     1       2.491   9.088  17.132  0.00  0.00    +0.000 OA
ATOM      4  N   UNL     1       1.557   8.463  19.134  0.00  0.00    +0.000 N 
ATOM      5  H   UNL     1       1.602   7.773  19.858  0.00  0.00    +0.000 HD
ENDROOT
BRANCH   4   6
ATOM      6  C   UNL     1       0.698   9.574  19.377  0.00  0.00    +0.000 A 
ATOM      7  C   UNL     1       0.350  10.462  18.349  0.00  0.00    +0.000 A 
ATOM      8  C   UNL     1      -0.425  11.589  18.596  0.00  0.00    +0.000 A 
ATOM      9  C   UNL     1      -0.870  11.851  19.885  0.00  0.00    +0.000 A 
ATOM     10  C   UNL     1      -0.573  10.971  20.930  0.00  0.00    +0.000 A 
ATOM     11  C   UNL     1      -1.043  11.265  22.220  0.00  0.00    +0.000 A 
ATOM     12  C   UNL     1      -0.782  10.415  23.292  0.00  0.00    +0.000 A 
ATOM     13  C   UNL     1      -0.054   9.253  23.087  0.00  0.00    +0.000 A 
ATOM     14  C   UNL     1       0.429   8.950  21.810  0.00  0.00    +0.000 A 
ATOM     15  C   UNL     1       0.197   9.800  20.696  0.00  0.00    +0.000 A 
ENDBRANCH   4   6
BRANCH   1  16
ATOM     16  C   UNL     1       4.086   6.989  16.922  0.00  0.00    +0.000 C 
BRANCH  16  23
ATOM     17  C   UNL     1       4.776   4.024  16.339  0.00  0.00    +0.000 C 
ATOM     18  C   UNL     1       5.711   4.969  17.042  0.00  0.00    +0.000 A 
ATOM     19  C   UNL     1       6.907   4.419  17.550  0.00  0.00    +0.000 A 
ATOM     20  C   UNL     1       7.853   5.213  18.187  0.00  0.00    +0.000 A 
ATOM     21  C   UNL     1       7.634   6.578  18.301  0.00  0.00    +0.000 A 
ATOM     22  C   UNL     1       6.445   7.138  17.828  0.00  0.00    +0.000 A 
ATOM     23  C   UNL     1       5.443   6.350  17.226  0.00  0.00    +0.000 A 
ENDBRANCH  16  23
ENDBRANCH   1  16
BRANCH   1  24
ATOM     24  C   UNL     1       3.324   6.200  19.194  0.00  0.00    +0.000 C 
BRANCH  24  25
ATOM     25  C   UNL     1       2.362   5.040  19.323  0.00  0.00    +0.000 A 
ATOM     26  C   UNL     1       1.908   4.497  20.526  0.00  0.00    +0.000 A 
ATOM     27  C   UNL     1       1.097   3.359  20.513  0.00  0.00    +0.000 A 
ATOM     28  C   UNL     1       0.737   2.809  19.294  0.00  0.00    +0.000 A 
ATOM     29  N   UNL     1       1.108   3.332  18.108  0.00  0.00    +0.000 NA
ATOM     30  C   UNL     1       1.896   4.432  18.152  0.00  0.00    +0.000 A 
ENDBRANCH  24  25
ENDBRANCH   1  24
TORSDOF 5
ENDMDL
MODEL 2
REMARK VINA RESULT:      -9.2      1.038      1.236
REMARK  Name = 
REMARK  6 active torsions:
REMARK  status: ('A' for Active; 'I' for Inactive)
REMARK    1  A    between atoms: C_1  and  C_2
REMARK    2  A    between atoms: C_7  and  C_8
REMARK    3  A    between atoms: C_8  and  N_9
REMARK    4  A    between atoms: N_9  and  C_10
REMARK    5  A    between atoms: C_10  and  C_11
REMARK    6  A    between atoms: N_19  and  C_20
REMARK                            x       y       z     vdW  Elec       q    Type
REMARK                         _______ _______ _______ _____ _____    ______ ____
ROOT
ATOM      1  N   UNL     1       2.794   6.877  18.527  0.00  0.00    +0.000 N 
ATOM      2  C   UNL     1       2.183   8.120  18.392  0.00  0.00    +0.000 C 
ATOM      3  O   UNL     1       2.134   8.670  17.295  0.00  0.00    +0.000 OA
ATOM      4  N   UNL     1       1.646   8.659  19.538  0.00  0.00    +0.000 N 
ATOM      5  H   UNL     1       1.791   8.147  20.387  0.00  0.00    +0.000 HD
ENDROOT
BRANCH   4   6
ATOM      6  C   UNL     1       0.991   9.917  19.668  0.00  0.00    +0.000 A 
ATOM      7  C   UNL     1       1.089  10.894  18.667  0.00  0.00    +0.000 A 
ATOM      8  C   UNL     1       0.517  12.151  18.821  0.00  0.00    +0.000 A 
ATOM      9  C   UNL     1      -0.170  12.458  19.989  0.00  0.00    +0.000 A 
ATOM     10  C   UNL     1      -0.319  11.499  20.996  0.00  0.00    +0.000 A 
ATOM     11  C   UNL     1      -1.023  11.842  22.161  0.00  0.00    +0.000 A 
ATOM     12  C   UNL     1      -1.207  10.920  23.188  0.00  0.00    +0.000 A 
ATOM     13  C   UNL     1      -0.695   9.637  23.060  0.00  0.00    +0.000 A 
ATOM     14  C   UNL     1       0.016   9.283  21.910  0.00  0.00    +0.000 A 
ATOM     15  C   UNL     1       0.237  10.200  20.848  0.00  0.00    +0.000 A 
ENDBRANCH   4   6
BRANCH   1  16
ATOM     16  C   UNL     1       3.404   6.350  17.292  0.00  0.00    +0.000 C 
BRANCH  16  23
ATOM     17  C   UNL     1       4.499   3.452  17.383  0.00  0.00    +0.000 C 
ATOM     18  C   UNL     1       5.371   4.671  17.505  0.00  0.00    +0.000 A 
ATOM     19  C   UNL     1       6.735   4.450  17.788  0.00  0.00    +0.000 A 
ATOM     20  C   UNL     1       7.632   5.508  17.888  0.00  0.00    +0.000 A 
ATOM     21  C   UNL     1       7.186   6.804  17.677  0.00  0.00    +0.000 A 
ATOM     22  C   UNL     1       5.834   7.046  17.421  0.00  0.00    +0.000 A 
ATOM     23  C   UNL     1       4.892   6.000  17.367  0.00  0.00    +0.000 A 
ENDBRANCH  16  23
ENDBRANCH   1  16
BRANCH   1  24
ATOM     24  C   UNL     1       3.130   6.213  19.796  0.00  0.00    +0.000 C 
BRANCH  24  25
ATOM     25  C   UNL     1       2.424   4.919  20.138  0.00  0.00    +0.000 A 
ATOM     26  C   UNL     1       1.529   4.243  19.307  0.00  0.00    +0.000 A 
ATOM     27  C   UNL     1       0.864   3.108  19.779  0.00  0.00    +0.000 A 
ATOM     28  C   UNL     1       1.133   2.662  21.062  0.00  0.00    +0.000 A 
ATOM     29  N   UNL     1       2.028   3.252  21.878  0.00  0.00    +0.000 NA
ATOM     30  C   UNL     1       2.654   4.351  21.395  0.00  0.00    +0.000 A 
ENDBRANCH  24  25
ENDBRANCH   1  24
TORSDOF 5
ENDMDL
MODEL 3
REMARK VINA RESULT:      -9.1      1.080      1.758
REMARK  Name = 
REMARK  6 active torsions:
REMARK  status: ('A' for Active; 'I' for Inactive)
REMARK    1  A    between atoms: C_1  and  C_2
REMARK    2  A    between atoms: C_7  and  C_8
REMARK    3  A    between atoms: C_8  and  N_9
REMARK    4  A    between atoms: N_9  and  C_10
REMARK    5  A    between atoms: C_10  and  C_11
REMARK    6  A    between atoms: N_19  and  C_20
REMARK                            x       y       z     vdW  Elec       q    Type
REMARK                         _______ _______ _______ _____ _____    ______ ____
ROOT
ATOM      1  N   UNL     1       3.596   7.252  18.085  0.00  0.00    +0.000 N 
ATOM      2  C   UNL     1       2.708   8.323  18.084  0.00  0.00    +0.000 C 
ATOM      3  O   UNL     1       2.867   9.258  17.304  0.00  0.00    +0.000 OA
ATOM      4  N   UNL     1       1.669   8.249  18.982  0.00  0.00    +0.000 N 
ATOM      5  H   UNL     1       1.667   7.465  19.606  0.00  0.00    +0.000 HD
ENDROOT
BRANCH   4   6
ATOM      6  C   UNL     1       0.646   9.218  19.191  0.00  0.00    +0.000 A 
ATOM      7  C   UNL     1       0.025   9.863  18.112  0.00  0.00    +0.000 A 
ATOM      8  C   UNL     1      -0.918  10.865  18.310  0.00  0.00    +0.000 A 
ATOM      9  C   UNL     1      -1.262  11.242  19.601  0.00  0.00    +0.000 A 
ATOM     10  C   UNL     1      -0.690  10.599  20.704  0.00  0.00    +0.000 A 
ATOM     11  C   UNL     1      -1.064  11.003  21.995  0.00  0.00    +0.000 A 
ATOM     12  C   UNL     1      -0.531  10.388  23.125  0.00  0.00    +0.000 A 
ATOM     13  C   UNL     1       0.378   9.352  22.978  0.00  0.00    +0.000 A 
ATOM     14  C   UNL     1       0.767   8.942  21.699  0.00  0.00    +0.000 A 
ATOM     15  C   UNL     1       0.258   9.556  20.524  0.00  0.00    +0.000 A 
ENDBRANCH   4   6
BRANCH   1  16
ATOM     16  C   UNL     1       4.726   7.384  17.147  0.00  0.00    +0.000 C 
BRANCH  16  23
ATOM     17  C   UNL     1       7.334   6.280  18.407  0.00  0.00    +0.000 C 
ATOM     18  C   UNL     1       6.646   5.641  17.232  0.00  0.00    +0.000 A 
ATOM     19  C   UNL     1       7.307   4.553  16.624  0.00  0.00    +0.000 A 
ATOM     20  C   UNL     1       6.741   3.872  15.553  0.00  0.00    +0.000 A 
ATOM     21  C   UNL     1       5.489   4.248  15.089  0.00  0.00    +0.000 A 
ATOM     22  C   UNL     1       4.830   5.339  15.661  0.00  0.00    +0.000 A 
ATOM     23  C   UNL     1       5.402   6.083  16.712  0.00  0.00    +0.000 A 
ENDBRANCH  16  23
ENDBRANCH   1  16
BRANCH   1  24
ATOM     24  C   UNL     1       3.668   6.189  19.100  0.00  0.00    +0.000 C 
BRANCH  24  25
ATOM     25  C   UNL     1       3.243   4.791  18.709  0.00  0.00    +0.000 A 
ATOM     26  C   UNL     1       3.992   3.631  18.913  0.00  0.00    +0.000 A 
ATOM     27  C   UNL     1       3.533   2.410  18.414  0.00  0.00    +0.000 A 
ATOM     28  C   UNL     1       2.320   2.375  17.747  0.00  0.00    +0.000 A 
ATOM     29  N   UNL     1       1.539   3.459  17.574  0.00  0.00    +0.000 NA
ATOM     30  C   UNL     1       2.012   4.630  18.064  0.00  0.00    +0.000 A 
ENDBRANCH  24  25
ENDBRANCH   1  24
TORSDOF 5
ENDMDL
MODEL 4
REMARK VINA RESULT:      -9.0      0.831      1.696
REMARK  Name = 
REMARK  6 active torsions:
REMARK  status: ('A' for Active; 'I' for Inactive)
REMARK    1  A    between atoms: C_1  and  C_2
REMARK    2  A    between atoms: C_7  and  C_8
REMARK    3  A    between atoms: C_8  and  N_9
REMARK    4  A    between atoms: N_9  and  C_10
REMARK    5  A    between atoms: C_10  and  C_11
REMARK    6  A    between atoms: N_19  and  C_20
REMARK                            x       y       z     vdW  Elec       q    Type
REMARK                         _______ _______ _______ _____ _____    ______ ____
ROOT
ATOM      1  N   UNL     1       3.315   7.384  17.971  0.00  0.00    +0.000 N 
ATOM      2  C   UNL     1       2.431   8.459  17.997  0.00  0.00    +0.000 C 
ATOM      3  O   UNL     1       2.434   9.285  17.087  0.00  0.00    +0.000 OA
ATOM      4  N   UNL     1       1.577   8.516  19.074  0.00  0.00    +0.000 N 
ATOM      5  H   UNL     1       1.698   7.819  19.782  0.00  0.00    +0.000 HD
ENDROOT
BRANCH   4   6
ATOM      6  C   UNL     1       0.601   9.519  19.341  0.00  0.00    +0.000 A 
ATOM      7  C   UNL     1       0.058  10.298  18.309  0.00  0.00    +0.000 A 
ATOM      8  C   UNL     1      -0.836  11.329  18.572  0.00  0.00    +0.000 A 
ATOM      9  C   UNL     1      -1.209  11.601  19.882  0.00  0.00    +0.000 A 
ATOM     10  C   UNL     1      -0.716  10.824  20.935  0.00  0.00    +0.000 A 
ATOM     11  C   UNL     1      -1.117  11.126  22.246  0.00  0.00    +0.000 A 
ATOM     12  C   UNL     1      -0.663  10.376  23.328  0.00  0.00    +0.000 A 
ATOM     13  C   UNL     1       0.194   9.307  23.112  0.00  0.00    +0.000 A 
ATOM     14  C   UNL     1       0.610   8.999  21.813  0.00  0.00    +0.000 A 
ATOM     15  C   UNL     1       0.180   9.750  20.687  0.00  0.00    +0.000 A 
ENDBRANCH   4   6
BRANCH   1  16
ATOM     16  C   UNL     1       4.251   7.380  16.832  0.00  0.00    +0.000 C 
BRANCH  16  23
ATOM     17  C   UNL     1       7.231   7.464  17.679  0.00  0.00    +0.000 C 
ATOM     18  C   UNL     1       6.584   6.265  17.041  0.00  0.00    +0.000 A 
ATOM     19  C   UNL     1       7.431   5.183  16.721  0.00  0.00    +0.000 A 
ATOM     20  C   UNL     1       6.927   4.015  16.159  0.00  0.00    +0.000 A 
ATOM     21  C   UNL     1       5.563   3.898  15.934  0.00  0.00    +0.000 A 
ATOM     22  C   UNL     1       4.713   4.968  16.220  0.00  0.00    +0.000 A 
ATOM     23  C   UNL     1       5.200   6.184  16.740  0.00  0.00    +0.000 A 
ENDBRANCH  16  23
ENDBRANCH   1  16
BRANCH   1  24
ATOM     24  C   UNL     1       3.583   6.460  19.084  0.00  0.00    +0.000 C 
BRANCH  24  25
ATOM     25  C   UNL     1       2.651   5.285  19.283  0.00  0.00    +0.000 A 
ATOM     26  C   UNL     1       2.107   4.504  18.262  0.00  0.00    +0.000 A 
ATOM     27  C   UNL     1       1.177   3.507  18.570  0.00  0.00    +0.000 A 
ATOM     28  C   UNL     1       0.836   3.299  19.895  0.00  0.00    +0.000 A 
ATOM     29  N   UNL     1       1.376   3.993  20.916  0.00  0.00    +0.000 NA
ATOM     30  C   UNL     1       2.271   4.955  20.588  0.00  0.00    +0.000 A 
ENDBRANCH  24  25
ENDBRANCH   1  24
TORSDOF 5
ENDMDL
MODEL 5
REMARK VINA RESULT:      -9.0      1.059      2.160
REMARK  Name = 
REMARK  6 active torsions:
REMARK  status: ('A' for Active; 'I' for Inactive)
REMARK    1  A    between atoms: C_1  and  C_2
REMARK    2  A    between atoms: C_7  and  C_8
REMARK    3  A    between atoms: C_8  and  N_9
REMARK    4  A    between atoms: N_9  and  C_10
REMARK    5  A    between atoms: C_10  and  C_11
REMARK    6  A    between atoms: N_19  and  C_20
REMARK                            x       y       z     vdW  Elec       q    Type
REMARK                         _______ _______ _______ _____ _____    ______ ____
ROOT
ATOM      1  N   UNL     1       2.985   7.272  18.143  0.00  0.00    +0.000 N 
ATOM      2  C   UNL     1       2.326   8.496  18.205  0.00  0.00    +0.000 C 
ATOM      3  O   UNL     1       2.436   9.306  17.287  0.00  0.00    +0.000 OA
ATOM      4  N   UNL     1       1.559   8.716  19.326  0.00  0.00    +0.000 N 
ATOM      5  H   UNL     1       1.584   8.008  20.034  0.00  0.00    +0.000 HD
ENDROOT
BRANCH   4   6
ATOM      6  C   UNL     1       0.809   9.887  19.634  0.00  0.00    +0.000 A 
ATOM      7  C   UNL     1       1.160  10.712  20.713  0.00  0.00    +0.000 A 
ATOM      8  C   UNL     1       0.388  11.812  21.066  0.00  0.00    +0.000 A 
ATOM      9  C   UNL     1      -0.757  12.112  20.341  0.00  0.00    +0.000 A 
ATOM     10  C   UNL     1      -1.122  11.334  19.238  0.00  0.00    +0.000 A 
ATOM     11  C   UNL     1      -2.284  11.669  18.526  0.00  0.00    +0.000 A 
ATOM     12  C   UNL     1      -2.685  10.931  17.414  0.00  0.00    +0.000 A 
ATOM     13  C   UNL     1      -1.922   9.853  16.994  0.00  0.00    +0.000 A 
ATOM     14  C   UNL     1      -0.766   9.501  17.697  0.00  0.00    +0.000 A 
ATOM     15  C   UNL     1      -0.334  10.219  18.844  0.00  0.00    +0.000 A 
ENDBRANCH   4   6
BRANCH   1  16
ATOM     16  C   UNL     1       3.838   7.088  16.955  0.00  0.00    +0.000 C 
BRANCH  16  23
ATOM     17  C   UNL     1       4.565   4.121  16.428  0.00  0.00    +0.000 C 
ATOM     18  C   UNL     1       5.515   5.109  17.047  0.00  0.00    +0.000 A 
ATOM     19  C   UNL     1       6.749   4.602  17.504  0.00  0.00    +0.000 A 
ATOM     20  C   UNL     1       7.710   5.438  18.063  0.00  0.00    +0.000 A 
ATOM     21  C   UNL     1       7.465   6.800  18.146  0.00  0.00    +0.000 A 
ATOM     22  C   UNL     1       6.239   7.318  17.722  0.00  0.00    +0.000 A 
ATOM     23  C   UNL     1       5.225   6.490  17.203  0.00  0.00    +0.000 A 
ENDBRANCH  16  23
ENDBRANCH   1  16
BRANCH   1  24
ATOM     24  C   UNL     1       3.133   6.314  19.250  0.00  0.00    +0.000 C 
BRANCH  24  25
ATOM     25  C   UNL     1       2.213   5.113  19.289  0.00  0.00    +0.000 A 
ATOM     26  C   UNL     1       1.729   4.504  20.448  0.00  0.00    +0.000 A 
ATOM     27  C   UNL     1       0.966   3.337  20.352  0.00  0.00    +0.000 A 
ATOM     28  C   UNL     1       0.683   2.825  19.097  0.00  0.00    +0.000 A 
ATOM     29  N   UNL     1       1.084   3.410  17.951  0.00  0.00    +0.000 NA
ATOM     30  C   UNL     1       1.825   4.537  18.075  0.00  0.00    +0.000 A 
ENDBRANCH  24  25
ENDBRANCH   1  24
TORSDOF 5
ENDMDL
MODEL 6
REMARK VINA RESULT:      -8.9      1.811      4.552
REMARK  Name = 
REMARK  6 active torsions:
REMARK  status: ('A' for Active; 'I' for Inactive)
REMARK    1  A    between atoms: C_1  and  C_2
REMARK    2  A    between atoms: C_7  and  C_8
REMARK    3  A    between atoms: C_8  and  N_9
REMARK    4  A    between atoms: N_9  and  C_10
REMARK    5  A    between atoms: C_10  and  C_11
REMARK    6  A    between atoms: N_19  and  C_20
REMARK                            x       y       z     vdW  Elec       q    Type
REMARK                         _______ _______ _______ _____ _____    ______ ____
ROOT
ATOM      1  N   UNL     1       2.683   6.803  19.309  0.00  0.00    +0.000 N 
ATOM      2  C   UNL     1       1.917   7.763  19.964  0.00  0.00    +0.000 C 
ATOM      3  O   UNL     1       1.698   7.663  21.169  0.00  0.00    +0.000 OA
ATOM      4  N   UNL     1       1.454   8.801  19.189  0.00  0.00    +0.000 N 
ATOM      5  H   UNL     1       1.650   8.753  18.208  0.00  0.00    +0.000 HD
ENDROOT
BRANCH   4   6
ATOM      6  C   UNL     1       0.638   9.889  19.614  0.00  0.00    +0.000 A 
ATOM      7  C   UNL     1       0.931  10.602  20.786  0.00  0.00    +0.000 A 
ATOM      8  C   UNL     1       0.097  11.614  21.246  0.00  0.00    +0.000 A 
ATOM      9  C   UNL     1      -1.054  11.935  20.538  0.00  0.00    +0.000 A 
ATOM     10  C   UNL     1      -1.362  11.270  19.347  0.00  0.00    +0.000 A 
ATOM     11  C   UNL     1      -2.531  11.624  18.655  0.00  0.00    +0.000 A 
ATOM     12  C   UNL     1      -2.877  10.998  17.460  0.00  0.00    +0.000 A 
ATOM     13  C   UNL     1      -2.052  10.015  16.935  0.00  0.00    +0.000 A 
ATOM     14  C   UNL     1      -0.888   9.646  17.616  0.00  0.00    +0.000 A 
ATOM     15  C   UNL     1      -0.511  10.250  18.845  0.00  0.00    +0.000 A 
ENDBRANCH   4   6
BRANCH   1  16
ATOM     16  C   UNL     1       3.122   5.678  20.155  0.00  0.00    +0.000 C 
BRANCH  16  23
ATOM     17  C   UNL     1       4.798   3.181  19.405  0.00  0.00    +0.000 C 
ATOM     18  C   UNL     1       3.294   3.203  19.395  0.00  0.00    +0.000 A 
ATOM     19  C   UNL     1       2.645   2.050  18.905  0.00  0.00    +0.000 A 
ATOM     20  C   UNL     1       1.258   1.957  18.884  0.00  0.00    +0.000 A 
ATOM     21  C   UNL     1       0.496   3.003  19.381  0.00  0.00    +0.000 A 
ATOM     22  C   UNL     1       1.118   4.164  19.846  0.00  0.00    +0.000 A 
ATOM     23  C   UNL     1       2.519   4.310  19.830  0.00  0.00    +0.000 A 
ENDBRANCH  16  23
ENDBRANCH   1  16
BRANCH   1  24
ATOM     24  C   UNL     1       2.834   6.666  17.852  0.00  0.00    +0.000 C 
BRANCH  24  25
ATOM     25  C   UNL     1       4.201   6.328  17.300  0.00  0.00    +0.000 A 
ATOM     26  C   UNL     1       4.532   5.150  16.627  0.00  0.00    +0.000 A 
ATOM     27  C   UNL     1       5.858   4.911  16.254  0.00  0.00    +0.000 A 
ATOM     28  C   UNL     1       6.815   5.871  16.540  0.00  0.00    +0.000 A 
ATOM     29  N   UNL     1       6.531   7.044  17.139  0.00  0.00    +0.000 NA
ATOM     30  C   UNL     1       5.239   7.246  17.492  0.00  0.00    +0.000 A 
ENDBRANCH  24  25
ENDBRANCH   1  24
TORSDOF 5
ENDMDL
MODEL 7
REMARK VINA RESULT:      -8.9      1.687      4.722
REMARK  Name = 
REMARK  6 active torsions:
REMARK  status: ('A' for Active; 'I' for Inactive)
REMARK    1  A    between atoms: C_1  and  C_2
REMARK    2  A    between atoms: C_7  and  C_8
REMARK    3  A    between atoms: C_8  and  N_9
REMARK    4  A    between atoms: N_9  and  C_10
REMARK    5  A    between atoms: C_10  and  C_11
REMARK    6  A    between atoms: N_19  and  C_20
REMARK                            x       y       z     vdW  Elec       q    Type
REMARK                         _______ _______ _______ _____ _____    ______ ____
ROOT
ATOM      1  N   UNL     1       2.950   7.106  18.928  0.00  0.00    +0.000 N 
ATOM      2  C   UNL     1       2.027   7.882  19.623  0.00  0.00    +0.000 C 
ATOM      3  O   UNL     1       1.597   7.507  20.711  0.00  0.00    +0.000 OA
ATOM      4  N   UNL     1       1.658   9.065  19.025  0.00  0.00    +0.000 N 
ATOM      5  H   UNL     1       2.033   9.245  18.114  0.00  0.00    +0.000 HD
ENDROOT
BRANCH   4   6
ATOM      6  C   UNL     1       0.722  10.018  19.518  0.00  0.00    +0.000 A 
ATOM      7  C   UNL     1       0.943  10.697  20.726  0.00  0.00    +0.000 A 
ATOM      8  C   UNL     1      -0.002  11.570  21.251  0.00  0.00    +0.000 A 
ATOM      9  C   UNL     1      -1.195  11.785  20.573  0.00  0.00    +0.000 A 
ATOM     10  C   UNL     1      -1.437  11.153  19.349  0.00  0.00    +0.000 A 
ATOM     11  C   UNL     1      -2.652  11.396  18.689  0.00  0.00    +0.000 A 
ATOM     12  C   UNL     1      -2.938  10.800  17.463  0.00  0.00    +0.000 A 
ATOM     13  C   UNL     1      -2.007   9.957  16.876  0.00  0.00    +0.000 A 
ATOM     14  C   UNL     1      -0.795   9.698  17.524  0.00  0.00    +0.000 A 
ATOM     15  C   UNL     1      -0.475  10.275  18.782  0.00  0.00    +0.000 A 
ENDBRANCH   4   6
BRANCH   1  16
ATOM     16  C   UNL     1       3.287   5.822  19.570  0.00  0.00    +0.000 C 
BRANCH  16  23
ATOM     17  C   UNL     1       2.340   3.924  21.830  0.00  0.00    +0.000 C 
ATOM     18  C   UNL     1       1.939   3.761  20.389  0.00  0.00    +0.000 A 
ATOM     19  C   UNL     1       1.188   2.612  20.065  0.00  0.00    +0.000 A 
ATOM     20  C   UNL     1       0.741   2.385  18.768  0.00  0.00    +0.000 A 
ATOM     21  C   UNL     1       1.011   3.318  17.779  0.00  0.00    +0.000 A 
ATOM     22  C   UNL     1       1.775   4.450  18.074  0.00  0.00    +0.000 A 
ATOM     23  C   UNL     1       2.289   4.680  19.366  0.00  0.00    +0.000 A 
ENDBRANCH  16  23
ENDBRANCH   1  16
BRANCH   1  24
ATOM     24  C   UNL     1       3.372   7.308  17.533  0.00  0.00    +0.000 C 
BRANCH  24  25
ATOM     25  C   UNL     1       4.622   6.604  17.052  0.00  0.00    +0.000 A 
ATOM     26  C   UNL     1       4.660   5.342  16.456  0.00  0.00    +0.000 A 
ATOM     27  C   UNL     1       5.891   4.756  16.147  0.00  0.00    +0.000 A 
ATOM     28  C   UNL     1       7.052   5.461  16.416  0.00  0.00    +0.000 A 
ATOM     29  N   UNL     1       7.060   6.702  16.941  0.00  0.00    +0.000 NA
ATOM     30  C   UNL     1       5.853   7.243  17.234  0.00  0.00    +0.000 A 
ENDBRANCH  24  25
ENDBRANCH   1  24
TORSDOF 5
ENDMDL
MODEL 8
REMARK VINA RESULT:      -8.8      2.048      2.547
REMARK  Name = 
REMARK  6 active torsions:
REMARK  status: ('A' for Active; 'I' for Inactive)
REMARK    1  A    between atoms: C_1  and  C_2
REMARK    2  A    between atoms: C_7  and  C_8
REMARK    3  A    between atoms: C_8  and  N_9
REMARK    4  A    between atoms: N_9  and  C_10
REMARK    5  A    between atoms: C_10  and  C_11
REMARK    6  A    between atoms: N_19  and  C_20
REMARK                            x       y       z     vdW  Elec       q    Type
REMARK                         _______ _______ _______ _____ _____    ______ ____
ROOT
ATOM      1  N   UNL     1       2.611   6.951  18.607  0.00  0.00    +0.000 N 
ATOM      2  C   UNL     1       2.224   8.211  18.161  0.00  0.00    +0.000 C 
ATOM      3  O   UNL     1       2.468   8.562  17.009  0.00  0.00    +0.000 OA
ATOM      4  N   UNL     1       1.560   8.998  19.073  0.00  0.00    +0.000 N 
ATOM      5  H   UNL     1       1.462   8.631  19.999  0.00  0.00    +0.000 HD
ENDROOT
BRANCH   4   6
ATOM      6  C   UNL     1       1.082  10.325  18.871  0.00  0.00    +0.000 A 
ATOM      7  C   UNL     1       1.906  11.437  19.097  0.00  0.00    +0.000 A 
ATOM      8  C   UNL     1       1.423  12.735  18.977  0.00  0.00    +0.000 A 
ATOM      9  C   UNL     1       0.097  12.947  18.623  0.00  0.00    +0.000 A 
ATOM     10  C   UNL     1      -0.747  11.864  18.356  0.00  0.00    +0.000 A 
ATOM     11  C   UNL     1      -2.081  12.116  17.998  0.00  0.00    +0.000 A 
ATOM     12  C   UNL     1      -2.959  11.073  17.712  0.00  0.00    +0.000 A 
ATOM     13  C   UNL     1      -2.511   9.762  17.773  0.00  0.00    +0.000 A 
ATOM     14  C   UNL     1      -1.188   9.494  18.136  0.00  0.00    +0.000 A 
ATOM     15  C   UNL     1      -0.268  10.530  18.450  0.00  0.00    +0.000 A 
ENDBRANCH   4   6
BRANCH   1  16
ATOM     16  C   UNL     1       3.365   6.151  17.624  0.00  0.00    +0.000 C 
BRANCH  16  23
ATOM     17  C   UNL     1       5.008   3.894  18.970  0.00  0.00    +0.000 C 
ATOM     18  C   UNL     1       5.616   5.174  18.465  0.00  0.00    +0.000 A 
ATOM     19  C   UNL     1       6.986   5.375  18.735  0.00  0.00    +0.000 A 
ATOM     20  C   UNL     1       7.651   6.509  18.283  0.00  0.00    +0.000 A 
ATOM     21  C   UNL     1       6.965   7.448  17.527  0.00  0.00    +0.000 A 
ATOM     22  C   UNL     1       5.602   7.279  17.271  0.00  0.00    +0.000 A 
ATOM     23  C   UNL     1       4.888   6.168  17.761  0.00  0.00    +0.000 A 
ENDBRANCH  16  23
ENDBRANCH   1  16
BRANCH   1  24
ATOM     24  C   UNL     1       2.596   6.486  20.003  0.00  0.00    +0.000 C 
BRANCH  24  25
ATOM     25  C   UNL     1       2.126   5.076  20.285  0.00  0.00    +0.000 A 
ATOM     26  C   UNL     1       1.300   4.317  19.452  0.00  0.00    +0.000 A 
ATOM     27  C   UNL     1       0.854   3.062  19.873  0.00  0.00    +0.000 A 
ATOM     28  C   UNL     1       1.267   2.585  21.105  0.00  0.00    +0.000 A 
ATOM     29  N   UNL     1       2.105   3.259  21.917  0.00  0.00    +0.000 NA
ATOM     30  C   UNL     1       2.519   4.474  21.485  0.00  0.00    +0.000 A 
ENDBRANCH  24  25
ENDBRANCH   1  24
TORSDOF 5
ENDMDL
MODEL 9
REMARK VINA RESULT:      -8.7      1.118      2.567
REMARK  Name = 
REMARK  6 active torsions:
REMARK  status: ('A' for Active; 'I' for Inactive)
REMARK    1  A    between atoms: C_1  and  C_2
REMARK    2  A    between atoms: C_7  and  C_8
REMARK    3  A    between atoms: C_8  and  N_9
REMARK    4  A    between atoms: N_9  and  C_10
REMARK    5  A    between atoms: C_10  and  C_11
REMARK    6  A    between atoms: N_19  and  C_20
REMARK                            x       y       z     vdW  Elec       q    Type
REMARK                         _______ _______ _______ _____ _____    ______ ____
ROOT
ATOM      1  N   UNL     1       3.039   7.456  18.048  0.00  0.00    +0.000 N 
ATOM      2  C   UNL     1       2.302   8.627  18.195  0.00  0.00    +0.000 C 
ATOM      3  O   UNL     1       2.354   9.504  17.336  0.00  0.00    +0.000 OA
ATOM      4  N   UNL     1       1.527   8.716  19.328  0.00  0.00    +0.000 N 
ATOM      5  H   UNL     1       1.602   7.964  19.985  0.00  0.00    +0.000 HD
ENDROOT
BRANCH   4   6
ATOM      6  C   UNL     1       0.703   9.811  19.718  0.00  0.00    +0.000 A 
ATOM      7  C   UNL     1       0.975  10.548  20.880  0.00  0.00    +0.000 A 
ATOM      8  C   UNL     1       0.131  11.566  21.307  0.00  0.00    +0.000 A 
ATOM      9  C   UNL     1      -1.008  11.871  20.574  0.00  0.00    +0.000 A 
ATOM     10  C   UNL     1      -1.295  11.182  19.391  0.00  0.00    +0.000 A 
ATOM     11  C   UNL     1      -2.454  11.519  18.674  0.00  0.00    +0.000 A 
ATOM     12  C   UNL     1      -2.779  10.870  17.486  0.00  0.00    +0.000 A 
ATOM     13  C   UNL     1      -1.944   9.879  16.994  0.00  0.00    +0.000 A 
ATOM     14  C   UNL     1      -0.791   9.525  17.701  0.00  0.00    +0.000 A 
ATOM     15  C   UNL     1      -0.434  10.154  18.924  0.00  0.00    +0.000 A 
ENDBRANCH   4   6
BRANCH   1  16
ATOM     16  C   UNL     1       3.898   7.412  16.850  0.00  0.00    +0.000 C 
BRANCH  16  23
ATOM     17  C   UNL     1       6.831   7.994  17.665  0.00  0.00    +0.000 C 
ATOM     18  C   UNL     1       6.366   6.665  17.134  0.00  0.00    +0.000 A 
ATOM     19  C   UNL     1       7.361   5.693  16.899  0.00  0.00    +0.000 A 
ATOM     20  C   UNL     1       7.033   4.422  16.439  0.00  0.00    +0.000 A 
ATOM     21  C   UNL     1       5.701   4.092  16.236  0.00  0.00    +0.000 A 
ATOM     22  C   UNL     1       4.704   5.050  16.437  0.00  0.00    +0.000 A 
ATOM     23  C   UNL     1       5.009   6.361  16.850  0.00  0.00    +0.000 A 
ENDBRANCH  16  23
ENDBRANCH   1  16
BRANCH   1  24
ATOM     24  C   UNL     1       3.255   6.435  19.085  0.00  0.00    +0.000 C 
BRANCH  24  25
ATOM     25  C   UNL     1       2.280   5.282  19.171  0.00  0.00    +0.000 A 
ATOM     26  C   UNL     1       1.747   4.761  20.352  0.00  0.00    +0.000 A 
ATOM     27  C   UNL     1       0.932   3.627  20.306  0.00  0.00    +0.000 A 
ATOM     28  C   UNL     1       0.648   3.059  19.076  0.00  0.00    +0.000 A 
ATOM     29  N   UNL     1       1.096   3.560  17.908  0.00  0.00    +0.000 NA
ATOM     30  C   UNL     1       1.887   4.657  17.983  0.00  0.00    +0.000 A 
ENDBRANCH  24  25
ENDBRANCH   1  24
TORSDOF 5
ENDMDL
