MODEL 1
REMARK VINA RESULT:      -8.7      0.000      0.000
REMARK  Name = 
REMARK  5 active torsions:
REMARK  status: ('A' for Active; 'I' for Inactive)
REMARK    1  A    between atoms: C_2  and  C_17
REMARK    2  A    between atoms: N_3  and  C_4
REMARK    3  A    between atoms: C_4  and  C_5
REMARK    4  A    between atoms: C_5  and  C_6
REMARK    5  A    between atoms: N_10  and  C_11
REMARK                            x       y       z     vdW  Elec       q    Type
REMARK                         _______ _______ _______ _____ _____    ______ ____
ROOT
ATOM      1  C   UNL     1       4.030   7.227  17.231  0.00  0.00    +0.000 C 
ENDROOT
BRANCH   1   4
ATOM      2  O   UNL     1       2.374   7.286  19.524  0.00  0.00    +0.000 OA
ATOM      3  C   UNL     1       2.688   6.209  19.038  0.00  0.00    +0.000 C 
ATOM      4  N   UNL     1       3.508   6.071  17.935  0.00  0.00    +0.000 N 
ATOM      5  H   UNL     1       3.529   5.186  17.444  0.00  0.00    +0.000 HD
BRANCH   3   6
ATOM      6  C   UNL     1       2.134   4.944  19.589  0.00  0.00    +0.000 A 
ATOM      7  C   UNL     1       1.440   4.084  18.731  0.00  0.00    +0.000 A 
ATOM      8  C   UNL     1       0.958   2.874  19.221  0.00  0.00    +0.000 A 
ATOM      9  F   UNL     1       0.315   2.038  18.395  0.00  0.00    +0.000 F 
ATOM     10  C   UNL     1       1.143   2.509  20.548  0.00  0.00    +0.000 A 
ATOM     11  C   UNL     1       1.806   3.384  21.396  0.00  0.00    +0.000 A 
ATOM     12  F   UNL     1       1.982   3.053  22.681  0.00  0.00    +0.000 F 
ATOM     13  C   UNL     1       2.298   4.600  20.937  0.00  0.00    +0.000 A 
ENDBRANCH   3   6
ENDBRANCH   1   4
BRANCH   1  14
ATOM     14  C   UNL     1       5.062   6.820  16.177  0.00  0.00    +0.000 C 
BRANCH  14  15
ATOM     15  C   UNL     1       6.240   6.071  16.722  0.00  0.00    +0.000 A 
ATOM     16  C   UNL     1       6.804   6.102  17.984  0.00  0.00    +0.000 A 
ATOM     17  C   UNL     1       7.733   5.056  17.999  0.00  0.00    +0.000 A 
ATOM     18  N   UNL     1       7.757   4.386  16.851  0.00  0.00    +0.000 NA
ATOM     19  N   UNL     1       6.946   5.095  16.016  0.00  0.00    +0.000 N 
BRANCH  19  20
ATOM     20  C   UNL     1       6.919   4.768  14.628  0.00  0.00    +0.000 A 
ATOM     21  C   UNL     1       6.056   3.760  14.176  0.00  0.00    +0.000 A 
ATOM     22  C   UNL     1       6.011   3.430  12.819  0.00  0.00    +0.000 A 
ATOM     23  C   UNL     1       6.841   4.085  11.910  0.00  0.00    +0.000 A 
ATOM     24  C   UNL     1       7.728   5.058  12.356  0.00  0.00    +0.000 A 
ATOM     25  C   UNL     1       7.774   5.392  13.714  0.00  0.00    +0.000 A 
ENDBRANCH  19  20
ENDBRANCH  14  15
ENDBRANCH   1  14
TORSDOF 5
ENDMDL
MODEL 2
REMARK VINA RESULT:      -8.7      0.082      1.679
REMARK  Name = 
REMARK  5 active torsions:
REMARK  status: ('A' for Active; 'I' for Inactive)
REMARK    1  A    between atoms: C_2  and  C_17
REMARK    2  A    between atoms: N_3  and  C_4
REMARK    3  A    between atoms: C_4  and  C_5
REMARK    4  A    between atoms: C_5  and  C_6
REMARK    5  A    between atoms: N_10  and  C_11
REMARK                            x       y       z     vdW  Elec       q    Type
REMARK                         _______ _______ _______ _____ _____    ______ ____
ROOT
ATOM      1  C   UNL     1       4.001   7.238  17.125  0.00  0.00    +0.000 C 
ENDROOT
BRANCH   1   4
ATOM      2  O   UNL     1       2.425   7.234  19.474  0.00  0.00    +0.000 OA
ATOM      3  C   UNL     1       2.718   6.171  18.946  0.00  0.00    +0.000 C 
ATOM      4  N   UNL     1       3.498   6.063  17.811  0.00  0.00    +0.000 N 
ATOM      5  H   UNL     1       3.499   5.193  17.295  0.00  0.00    +0.000 HD
BRANCH   3   6
ATOM      6  C   UNL     1       2.178   4.892  19.479  0.00  0.00    +0.000 A 
ATOM      7  C   UNL     1       2.386   4.585  20.828  0.00  0.00    +0.000 A 
ATOM      8  C   UNL     1       1.846   3.415  21.353  0.00  0.00    +0.000 A 
ATOM      9  F   UNL     1       2.023   3.132  22.650  0.00  0.00    +0.000 F 
ATOM     10  C   UNL     1       1.114   2.541  20.560  0.00  0.00    +0.000 A 
ATOM     11  C   UNL     1       0.941   2.840  19.217  0.00  0.00    +0.000 A 
ATOM     12  F   UNL     1       0.249   2.002  18.436  0.00  0.00    +0.000 F 
ATOM     13  C   UNL     1       1.470   4.001  18.663  0.00  0.00    +0.000 A 
ENDBRANCH   3   6
ENDBRANCH   1   4
BRANCH   1  14
ATOM     14  C   UNL     1       5.072   6.867  16.097  0.00  0.00    +0.000 C 
BRANCH  14  15
ATOM     15  C   UNL     1       6.229   6.098  16.660  0.00  0.00    +0.000 A 
ATOM     16  C   UNL     1       6.780   6.126  17.928  0.00  0.00    +0.000 A 
ATOM     17  C   UNL     1       7.687   5.062  17.960  0.00  0.00    +0.000 A 
ATOM     18  N   UNL     1       7.709   4.383  16.816  0.00  0.00    +0.000 NA
ATOM     19  N   UNL     1       6.922   5.103  15.968  0.00  0.00    +0.000 N 
BRANCH  19  20
ATOM     20  C   UNL     1       6.902   4.766  14.583  0.00  0.00    +0.000 A 
ATOM     21  C   UNL     1       6.034   3.763  14.130  0.00  0.00    +0.000 A 
ATOM     22  C   UNL     1       5.997   3.424  12.775  0.00  0.00    +0.000 A 
ATOM     23  C   UNL     1       6.840   4.064  11.869  0.00  0.00    +0.000 A 
ATOM     24  C   UNL     1       7.732   5.033  12.315  0.00  0.00    +0.000 A 
ATOM     25  C   UNL     1       7.770   5.376  13.671  0.00  0.00    +0.000 A 
ENDBRANCH  19  20
ENDBRANCH  14  15
ENDBRANCH   1  14
TORSDOF 5
ENDMDL
MODEL 3
REMARK VINA RESULT:      -8.4      0.377      1.973
REMARK  Name = 
REMARK  5 active torsions:
REMARK  status: ('A' for Active; 'I' for Inactive)
REMARK    1  A    between atoms: C_2  and  C_17
REMARK    2  A    between atoms: N_3  and  C_4
REMARK    3  A    between atoms: C_4  and  C_5
REMARK    4  A    between atoms: C_5  and  C_6
REMARK    5  A    between atoms: N_10  and  C_11
REMARK                            x       y       z     vdW  Elec       q    Type
REMARK                         _______ _______ _______ _____ _____    ______ ____
ROOT
ATOM      1  C   UNL     1       4.335   7.308  17.253  0.00  0.00    +0.000 C 
ENDROOT
BRANCH   1   4
ATOM      2  O   UNL     1       1.754   7.138  18.398  0.00  0.00    +0.000 OA
ATOM      3  C   UNL     1       2.530   6.202  18.526  0.00  0.00    +0.000 C 
ATOM      4  N   UNL     1       3.817   6.194  18.024  0.00  0.00    +0.000 N 
ATOM      5  H   UNL     1       4.312   5.315  17.950  0.00  0.00    +0.000 HD
BRANCH   3   6
ATOM      6  C   UNL     1       2.095   4.949  19.197  0.00  0.00    +0.000 A 
ATOM      7  C   UNL     1       2.391   4.776  20.554  0.00  0.00    +0.000 A 
ATOM      8  C   UNL     1       1.949   3.630  21.208  0.00  0.00    +0.000 A 
ATOM      9  F   UNL     1       2.210   3.475  22.513  0.00  0.00    +0.000 F 
ATOM     10  C   UNL     1       1.229   2.651  20.538  0.00  0.00    +0.000 A 
ATOM     11  C   UNL     1       0.968   2.819  19.186  0.00  0.00    +0.000 A 
ATOM     12  F   UNL     1       0.286   1.878  18.522  0.00  0.00    +0.000 F 
ATOM     13  C   UNL     1       1.398   3.952  18.504  0.00  0.00    +0.000 A 
ENDBRANCH   3   6
ENDBRANCH   1   4
BRANCH   1  14
ATOM     14  C   UNL     1       5.315   6.835  16.177  0.00  0.00    +0.000 C 
BRANCH  14  15
ATOM     15  C   UNL     1       6.445   5.998  16.696  0.00  0.00    +0.000 A 
ATOM     16  C   UNL     1       7.039   5.985  17.945  0.00  0.00    +0.000 A 
ATOM     17  C   UNL     1       7.885   4.871  17.939  0.00  0.00    +0.000 A 
ATOM     18  N   UNL     1       7.831   4.201  16.792  0.00  0.00    +0.000 NA
ATOM     19  N   UNL     1       7.057   4.970  15.975  0.00  0.00    +0.000 N 
BRANCH  19  20
ATOM     20  C   UNL     1       6.972   4.646  14.589  0.00  0.00    +0.000 A 
ATOM     21  C   UNL     1       7.778   5.333  13.671  0.00  0.00    +0.000 A 
ATOM     22  C   UNL     1       7.713   5.025  12.310  0.00  0.00    +0.000 A 
ATOM     23  C   UNL     1       6.828   4.049  11.854  0.00  0.00    +0.000 A 
ATOM     24  C   UNL     1       5.997   3.390  12.753  0.00  0.00    +0.000 A 
ATOM     25  C   UNL     1       6.062   3.695  14.116  0.00  0.00    +0.000 A 
ENDBRANCH  19  20
ENDBRANCH  14  15
ENDBRANCH   1  14
TORSDOF 5
ENDMDL
MODEL 4
REMARK VINA RESULT:      -8.4      0.438      1.078
REMARK  Name = 
REMARK  5 active torsions:
REMARK  status: ('A' for Active; 'I' for Inactive)
REMARK    1  A    between atoms: C_2  and  C_17
REMARK    2  A    between atoms: N_3  and  C_4
REMARK    3  A    between atoms: C_4  and  C_5
REMARK    4  A    between atoms: C_5  and  C_6
REMARK    5  A    between atoms: N_10  and  C_11
REMARK                            x       y       z     vdW  Elec       q    Type
REMARK                         _______ _______ _______ _____ _____    ______ ____
ROOT
ATOM      1  C   UNL     1       4.304   7.324  17.260  0.00  0.00    +0.000 C 
ENDROOT
BRANCH   1   4
ATOM      2  O   UNL     1       1.622   7.022  18.107  0.00  0.00    +0.000 OA
ATOM      3  C   UNL     1       2.450   6.180  18.425  0.00  0.00    +0.000 C 
ATOM      4  N   UNL     1       3.786   6.246  18.082  0.00  0.00    +0.000 N 
ATOM      5  H   UNL     1       4.357   5.415  18.162  0.00  0.00    +0.000 HD
BRANCH   3   6
ATOM      6  C   UNL     1       2.037   4.964  19.172  0.00  0.00    +0.000 A 
ATOM      7  C   UNL     1       1.340   3.960  18.491  0.00  0.00    +0.000 A 
ATOM      8  C   UNL     1       0.990   2.794  19.165  0.00  0.00    +0.000 A 
ATOM      9  F   UNL     1       0.343   1.822  18.507  0.00  0.00    +0.000 F 
ATOM     10  C   UNL     1       1.309   2.612  20.504  0.00  0.00    +0.000 A 
ATOM     11  C   UNL     1       1.973   3.627  21.177  0.00  0.00    +0.000 A 
ATOM     12  F   UNL     1       2.278   3.473  22.471  0.00  0.00    +0.000 F 
ATOM     13  C   UNL     1       2.335   4.804  20.531  0.00  0.00    +0.000 A 
ENDBRANCH   3   6
ENDBRANCH   1   4
BRANCH   1  14
ATOM     14  C   UNL     1       5.248   6.796  16.178  0.00  0.00    +0.000 C 
BRANCH  14  15
ATOM     15  C   UNL     1       6.387   5.973  16.699  0.00  0.00    +0.000 A 
ATOM     16  C   UNL     1       6.969   5.957  17.953  0.00  0.00    +0.000 A 
ATOM     17  C   UNL     1       7.834   4.857  17.944  0.00  0.00    +0.000 A 
ATOM     18  N   UNL     1       7.803   4.199  16.789  0.00  0.00    +0.000 NA
ATOM     19  N   UNL     1       7.024   4.964  15.973  0.00  0.00    +0.000 N 
BRANCH  19  20
ATOM     20  C   UNL     1       6.958   4.654  14.583  0.00  0.00    +0.000 A 
ATOM     21  C   UNL     1       7.775   5.351  13.682  0.00  0.00    +0.000 A 
ATOM     22  C   UNL     1       7.728   5.057  12.317  0.00  0.00    +0.000 A 
ATOM     23  C   UNL     1       6.852   4.084  11.839  0.00  0.00    +0.000 A 
ATOM     24  C   UNL     1       6.009   3.415  12.720  0.00  0.00    +0.000 A 
ATOM     25  C   UNL     1       6.055   3.706  14.088  0.00  0.00    +0.000 A 
ENDBRANCH  19  20
ENDBRANCH  14  15
ENDBRANCH   1  14
TORSDOF 5
ENDMDL
MODEL 5
REMARK VINA RESULT:      -8.2      1.203      1.436
REMARK  Name = 
REMARK  5 active torsions:
REMARK  status: ('A' for Active; 'I' for Inactive)
REMARK    1  A    between atoms: C_2  and  C_17
REMARK    2  A    between atoms: N_3  and  C_4
REMARK    3  A    between atoms: C_4  and  C_5
REMARK    4  A    between atoms: C_5  and  C_6
REMARK    5  A    between atoms: N_10  and  C_11
REMARK                            x       y       z     vdW  Elec       q    Type
REMARK                         _______ _______ _______ _____ _____    ______ ____
ROOT
ATOM      1  C   UNL     1       3.955   7.036  17.201  0.00  0.00    +0.000 C 
ENDROOT
BRANCH   1   4
ATOM      2  O   UNL     1       2.412   6.830  19.563  0.00  0.00    +0.000 OA
ATOM      3  C   UNL     1       3.054   5.862  19.179  0.00  0.00    +0.000 C 
ATOM      4  N   UNL     1       3.853   5.866  18.052  0.00  0.00    +0.000 N 
ATOM      5  H   UNL     1       4.155   4.984  17.659  0.00  0.00    +0.000 HD
BRANCH   3   6
ATOM      6  C   UNL     1       2.955   4.562  19.893  0.00  0.00    +0.000 A 
ATOM      7  C   UNL     1       3.958   3.607  19.691  0.00  0.00    +0.000 A 
ATOM      8  C   UNL     1       3.905   2.404  20.389  0.00  0.00    +0.000 A 
ATOM      9  F   UNL     1       4.878   1.499  20.216  0.00  0.00    +0.000 F 
ATOM     10  C   UNL     1       2.871   2.129  21.274  0.00  0.00    +0.000 A 
ATOM     11  C   UNL     1       1.867   3.071  21.442  0.00  0.00    +0.000 A 
ATOM     12  F   UNL     1       0.856   2.817  22.282  0.00  0.00    +0.000 F 
ATOM     13  C   UNL     1       1.891   4.281  20.758  0.00  0.00    +0.000 A 
ENDBRANCH   3   6
ENDBRANCH   1   4
BRANCH   1  14
ATOM     14  C   UNL     1       5.136   6.922  16.235  0.00  0.00    +0.000 C 
BRANCH  14  15
ATOM     15  C   UNL     1       6.302   6.149  16.773  0.00  0.00    +0.000 A 
ATOM     16  C   UNL     1       6.889   6.185  18.024  0.00  0.00    +0.000 A 
ATOM     17  C   UNL     1       7.788   5.113  18.041  0.00  0.00    +0.000 A 
ATOM     18  N   UNL     1       7.773   4.423  16.904  0.00  0.00    +0.000 NA
ATOM     19  N   UNL     1       6.967   5.141  16.071  0.00  0.00    +0.000 N 
BRANCH  19  20
ATOM     20  C   UNL     1       6.906   4.791  14.690  0.00  0.00    +0.000 A 
ATOM     21  C   UNL     1       6.012   3.795  14.272  0.00  0.00    +0.000 A 
ATOM     22  C   UNL     1       5.933   3.444  12.922  0.00  0.00    +0.000 A 
ATOM     23  C   UNL     1       6.760   4.063  11.986  0.00  0.00    +0.000 A 
ATOM     24  C   UNL     1       7.678   5.023  12.399  0.00  0.00    +0.000 A 
ATOM     25  C   UNL     1       7.757   5.379  13.749  0.00  0.00    +0.000 A 
ENDBRANCH  19  20
ENDBRANCH  14  15
ENDBRANCH   1  14
TORSDOF 5
ENDMDL
MODEL 6
REMARK VINA RESULT:      -8.2      5.084      7.278
REMARK  Name = 
REMARK  5 active torsions:
REMARK  status: ('A' for Active; 'I' for Inactive)
REMARK    1  A    between atoms: C_2  and  C_17
REMARK    2  A    between atoms: N_3  and  C_4
REMARK    3  A    between atoms: C_4  and  C_5
REMARK    4  A    between atoms: C_5  and  C_6
REMARK    5  A    between atoms: N_10  and  C_11
REMARK                            x       y       z     vdW  Elec       q    Type
REMARK                         _______ _______ _______ _____ _____    ______ ____
ROOT
ATOM      1  C   UNL     1       2.060   9.242  18.003  0.00  0.00    +0.000 C 
ENDROOT
BRANCH   1   4
ATOM      2  O   UNL     1       0.162  10.562  19.633  0.00  0.00    +0.000 OA
ATOM      3  C   UNL     1      -0.165  10.184  18.517  0.00  0.00    +0.000 C 
ATOM      4  N   UNL     1       0.678   9.512  17.653  0.00  0.00    +0.000 N 
ATOM      5  H   UNL     1       0.430   9.446  16.675  0.00  0.00    +0.000 HD
BRANCH   3   6
ATOM      6  C   UNL     1      -1.518  10.492  17.984  0.00  0.00    +0.000 A 
ATOM      7  C   UNL     1      -1.909   9.919  16.769  0.00  0.00    +0.000 A 
ATOM      8  C   UNL     1      -3.190  10.159  16.281  0.00  0.00    +0.000 A 
ATOM      9  F   UNL     1      -3.574   9.591  15.130  0.00  0.00    +0.000 F 
ATOM     10  C   UNL     1      -4.083  10.967  16.971  0.00  0.00    +0.000 A 
ATOM     11  C   UNL     1      -3.674  11.555  18.159  0.00  0.00    +0.000 A 
ATOM     12  F   UNL     1      -4.519  12.346  18.831  0.00  0.00    +0.000 F 
ATOM     13  C   UNL     1      -2.400  11.335  18.671  0.00  0.00    +0.000 A 
ENDBRANCH   3   6
ENDBRANCH   1   4
BRANCH   1  14
ATOM     14  C   UNL     1       2.212   7.862  18.647  0.00  0.00    +0.000 C 
BRANCH  14  15
ATOM     15  C   UNL     1       3.244   6.989  18.001  0.00  0.00    +0.000 A 
ATOM     16  C   UNL     1       4.222   7.306  17.077  0.00  0.00    +0.000 A 
ATOM     17  C   UNL     1       5.030   6.167  16.989  0.00  0.00    +0.000 A 
ATOM     18  N   UNL     1       4.626   5.197  17.804  0.00  0.00    +0.000 NA
ATOM     19  N   UNL     1       3.447   5.644  18.321  0.00  0.00    +0.000 N 
BRANCH  19  20
ATOM     20  C   UNL     1       2.632   4.748  19.073  0.00  0.00    +0.000 A 
ATOM     21  C   UNL     1       1.747   3.893  18.402  0.00  0.00    +0.000 A 
ATOM     22  C   UNL     1       0.945   3.004  19.122  0.00  0.00    +0.000 A 
ATOM     23  C   UNL     1       1.004   2.978  20.514  0.00  0.00    +0.000 A 
ATOM     24  C   UNL     1       1.850   3.850  21.191  0.00  0.00    +0.000 A 
ATOM     25  C   UNL     1       2.655   4.740  20.472  0.00  0.00    +0.000 A 
ENDBRANCH  19  20
ENDBRANCH  14  15
ENDBRANCH   1  14
TORSDOF 5
ENDMDL
MODEL 7
REMARK VINA RESULT:      -8.1      3.360      7.685
REMARK  Name = 
REMARK  5 active torsions:
REMARK  status: ('A' for Active; 'I' for Inactive)
REMARK    1  A    between atoms: C_2  and  C_17
REMARK    2  A    between atoms: N_3  and  C_4
REMARK    3  A    between atoms: C_4  and  C_5
REMARK    4  A    between atoms: C_5  and  C_6
REMARK    5  A    between atoms: N_10  and  C_11
REMARK                            x       y       z     vdW  Elec       q    Type
REMARK                         _______ _______ _______ _____ _____    ______ ____
ROOT
ATOM      1  C   UNL     1       6.649   4.319  17.082  0.00  0.00    +0.000 C 
ENDROOT
BRANCH   1   4
ATOM      2  O   UNL     1       6.954   5.651  14.605  0.00  0.00    +0.000 OA
ATOM      3  C   UNL     1       6.467   4.529  14.627  0.00  0.00    +0.000 C 
ATOM      4  N   UNL     1       6.256   3.804  15.784  0.00  0.00    +0.000 N 
ATOM      5  H   UNL     1       6.082   2.810  15.718  0.00  0.00    +0.000 HD
BRANCH   3   6
ATOM      6  C   UNL     1       6.120   3.833  13.361  0.00  0.00    +0.000 A 
ATOM      7  C   UNL     1       7.140   3.207  12.636  0.00  0.00    +0.000 A 
ATOM      8  C   UNL     1       6.824   2.510  11.474  0.00  0.00    +0.000 A 
ATOM      9  F   UNL     1       7.797   1.890  10.793  0.00  0.00    +0.000 F 
ATOM     10  C   UNL     1       5.517   2.434  11.014  0.00  0.00    +0.000 A 
ATOM     11  C   UNL     1       4.518   3.084  11.724  0.00  0.00    +0.000 A 
ATOM     12  F   UNL     1       3.254   3.030  11.287  0.00  0.00    +0.000 F 
ATOM     13  C   UNL     1       4.803   3.789  12.887  0.00  0.00    +0.000 A 
ENDBRANCH   3   6
ENDBRANCH   1   4
BRANCH   1  14
ATOM     14  C   UNL     1       5.476   4.311  18.065  0.00  0.00    +0.000 C 
BRANCH  14  15
ATOM     15  C   UNL     1       4.593   5.519  17.984  0.00  0.00    +0.000 A 
ATOM     16  C   UNL     1       4.827   6.751  17.403  0.00  0.00    +0.000 A 
ATOM     17  C   UNL     1       3.595   7.414  17.434  0.00  0.00    +0.000 A 
ATOM     18  N   UNL     1       2.634   6.668  17.970  0.00  0.00    +0.000 NA
ATOM     19  N   UNL     1       3.273   5.559  18.439  0.00  0.00    +0.000 N 
BRANCH  19  20
ATOM     20  C   UNL     1       2.562   4.644  19.270  0.00  0.00    +0.000 A 
ATOM     21  C   UNL     1       1.595   3.804  18.699  0.00  0.00    +0.000 A 
ATOM     22  C   UNL     1       0.893   2.897  19.496  0.00  0.00    +0.000 A 
ATOM     23  C   UNL     1       1.130   2.839  20.868  0.00  0.00    +0.000 A 
ATOM     24  C   UNL     1       2.058   3.696  21.449  0.00  0.00    +0.000 A 
ATOM     25  C   UNL     1       2.765   4.603  20.653  0.00  0.00    +0.000 A 
ENDBRANCH  19  20
ENDBRANCH  14  15
ENDBRANCH   1  14
TORSDOF 5
ENDMDL
MODEL 8
REMARK VINA RESULT:      -8.1      3.405      7.721
REMARK  Name = 
REMARK  5 active torsions:
REMARK  status: ('A' for Active; 'I' for Inactive)
REMARK    1  A    between atoms: C_2  and  C_17
REMARK    2  A    between atoms: N_3  and  C_4
REMARK    3  A    between atoms: C_4  and  C_5
REMARK    4  A    between atoms: C_5  and  C_6
REMARK    5  A    between atoms: N_10  and  C_11
REMARK                            x       y       z     vdW  Elec       q    Type
REMARK                         _______ _______ _______ _____ _____    ______ ____
ROOT
ATOM      1  C   UNL     1       5.331   3.835  18.096  0.00  0.00    +0.000 C 
ENDROOT
BRANCH   1   4
ATOM      2  O   UNL     1       7.730   4.538  16.771  0.00  0.00    +0.000 OA
ATOM      3  C   UNL     1       6.723   4.318  16.113  0.00  0.00    +0.000 C 
ATOM      4  N   UNL     1       5.499   3.989  16.663  0.00  0.00    +0.000 N 
ATOM      5  H   UNL     1       4.784   3.588  16.071  0.00  0.00    +0.000 HD
BRANCH   3   6
ATOM      6  C   UNL     1       6.776   4.330  14.628  0.00  0.00    +0.000 A 
ATOM      7  C   UNL     1       7.557   5.302  13.991  0.00  0.00    +0.000 A 
ATOM      8  C   UNL     1       7.656   5.297  12.603  0.00  0.00    +0.000 A 
ATOM      9  F   UNL     1       8.422   6.212  11.994  0.00  0.00    +0.000 F 
ATOM     10  C   UNL     1       6.985   4.353  11.837  0.00  0.00    +0.000 A 
ATOM     11  C   UNL     1       6.190   3.414  12.477  0.00  0.00    +0.000 A 
ATOM     12  F   UNL     1       5.528   2.504  11.753  0.00  0.00    +0.000 F 
ATOM     13  C   UNL     1       6.070   3.394  13.862  0.00  0.00    +0.000 A 
ENDBRANCH   3   6
ENDBRANCH   1   4
BRANCH   1  14
ATOM     14  C   UNL     1       5.400   5.184  18.814  0.00  0.00    +0.000 C 
BRANCH  14  15
ATOM     15  C   UNL     1       4.275   6.118  18.485  0.00  0.00    +0.000 A 
ATOM     16  C   UNL     1       4.300   7.356  17.870  0.00  0.00    +0.000 A 
ATOM     17  C   UNL     1       2.960   7.674  17.625  0.00  0.00    +0.000 A 
ATOM     18  N   UNL     1       2.132   6.715  18.028  0.00  0.00    +0.000 NA
ATOM     19  N   UNL     1       2.924   5.823  18.686  0.00  0.00    +0.000 N 
BRANCH  19  20
ATOM     20  C   UNL     1       2.317   4.773  19.435  0.00  0.00    +0.000 A 
ATOM     21  C   UNL     1       2.559   4.682  20.813  0.00  0.00    +0.000 A 
ATOM     22  C   UNL     1       1.968   3.663  21.564  0.00  0.00    +0.000 A 
ATOM     23  C   UNL     1       1.153   2.717  20.945  0.00  0.00    +0.000 A 
ATOM     24  C   UNL     1       0.940   2.776  19.572  0.00  0.00    +0.000 A 
ATOM     25  C   UNL     1       1.529   3.796  18.817  0.00  0.00    +0.000 A 
ENDBRANCH  19  20
ENDBRANCH  14  15
ENDBRANCH   1  14
TORSDOF 5
ENDMDL
MODEL 9
REMARK VINA RESULT:      -8.1      1.240      1.891
REMARK  Name = 
REMARK  5 active torsions:
REMARK  status: ('A' for Active; 'I' for Inactive)
REMARK    1  A    between atoms: C_2  and  C_17
REMARK    2  A    between atoms: N_3  and  C_4
REMARK    3  A    between atoms: C_4  and  C_5
REMARK    4  A    between atoms: C_5  and  C_6
REMARK    5  A    between atoms: N_10  and  C_11
REMARK                            x       y       z     vdW  Elec       q    Type
REMARK                         _______ _______ _______ _____ _____    ______ ____
ROOT
ATOM      1  C   UNL     1       3.941   6.977  17.116  0.00  0.00    +0.000 C 
ENDROOT
BRANCH   1   4
ATOM      2  O   UNL     1       2.610   6.825  19.607  0.00  0.00    +0.000 OA
ATOM      3  C   UNL     1       3.197   5.840  19.179  0.00  0.00    +0.000 C 
ATOM      4  N   UNL     1       3.894   5.817  17.987  0.00  0.00    +0.000 N 
ATOM      5  H   UNL     1       4.143   4.926  17.579  0.00  0.00    +0.000 HD
BRANCH   3   6
ATOM      6  C   UNL     1       3.138   4.550  19.914  0.00  0.00    +0.000 A 
ATOM      7  C   UNL     1       2.060   4.314  20.774  0.00  0.00    +0.000 A 
ATOM      8  C   UNL     1       1.965   3.092  21.432  0.00  0.00    +0.000 A 
ATOM      9  F   UNL     1       0.921   2.855  22.236  0.00  0.00    +0.000 F 
ATOM     10  C   UNL     1       2.927   2.105  21.260  0.00  0.00    +0.000 A 
ATOM     11  C   UNL     1       4.008   2.362  20.429  0.00  0.00    +0.000 A 
ATOM     12  F   UNL     1       4.950   1.426  20.262  0.00  0.00    +0.000 F 
ATOM     13  C   UNL     1       4.131   3.574  19.759  0.00  0.00    +0.000 A 
ENDBRANCH   3   6
ENDBRANCH   1   4
BRANCH   1  14
ATOM     14  C   UNL     1       5.179   6.948  16.217  0.00  0.00    +0.000 C 
BRANCH  14  15
ATOM     15  C   UNL     1       6.326   6.156  16.768  0.00  0.00    +0.000 A 
ATOM     16  C   UNL     1       6.911   6.196  18.020  0.00  0.00    +0.000 A 
ATOM     17  C   UNL     1       7.785   5.104  18.054  0.00  0.00    +0.000 A 
ATOM     18  N   UNL     1       7.756   4.399  16.927  0.00  0.00    +0.000 NA
ATOM     19  N   UNL     1       6.969   5.123  16.083  0.00  0.00    +0.000 N 
BRANCH  19  20
ATOM     20  C   UNL     1       6.902   4.755  14.707  0.00  0.00    +0.000 A 
ATOM     21  C   UNL     1       7.747   5.387  13.783  0.00  0.00    +0.000 A 
ATOM     22  C   UNL     1       7.699   5.035  12.432  0.00  0.00    +0.000 A 
ATOM     23  C   UNL     1       6.796   4.071  11.990  0.00  0.00    +0.000 A 
ATOM     24  C   UNL     1       5.926   3.468  12.892  0.00  0.00    +0.000 A 
ATOM     25  C   UNL     1       5.973   3.816  14.246  0.00  0.00    +0.000 A 
ENDBRANCH  19  20
ENDBRANCH  14  15
ENDBRANCH   1  14
TORSDOF 5
ENDMDL
