MODEL 1
REMARK VINA RESULT:      -8.4      0.000      0.000
REMARK  Name = 
REMARK  4 active torsions:
REMARK  status: ('A' for Active; 'I' for Inactive)
REMARK    1  A    between atoms: C_2  and  C_12
REMARK    2  A    between atoms: N_3  and  C_4
REMARK    3  A    between atoms: C_17  and  S_18
REMARK    4  A    between atoms: S_18  and  N_21
REMARK                            x       y       z     vdW  Elec       q    Type
REMARK                         _______ _______ _______ _____ _____    ______ ____
ROOT
ATOM      1  C   UNL     1       2.925   7.562  17.974  0.00  0.00    +0.000 A 
ATOM      2  C   UNL     1       4.104   7.711  17.223  0.00  0.00    +0.000 A 
ATOM      3  C   UNL     1       4.775   6.596  16.727  0.00  0.00    +0.000 A 
ATOM      4  C   UNL     1       4.291   5.325  17.006  0.00  0.00    +0.000 A 
ATOM      5  F   UNL     1       4.900   4.276  16.443  0.00  0.00    +0.000 F 
ATOM      6  C   UNL     1       3.176   5.167  17.824  0.00  0.00    +0.000 A 
ATOM      7  C   UNL     1       2.477   6.284  18.317  0.00  0.00    +0.000 A 
ENDROOT
BRANCH   1   9
ATOM      8  O   UNL     1       2.193   9.631  17.275  0.00  0.00    +0.000 OA
ATOM      9  C   UNL     1       2.115   8.790  18.169  0.00  0.00    +0.000 C 
ATOM     10  N   UNL     1       1.366   8.916  19.328  0.00  0.00    +0.000 N 
ATOM     11  H   UNL     1       1.587   8.306  20.107  0.00  0.00    +0.000 HD
BRANCH  10  12
ATOM     12  C   UNL     1       0.507  10.015  19.568  0.00  0.00    +0.000 A 
ATOM     13  C   UNL     1       0.765  10.981  20.553  0.00  0.00    +0.000 A 
ATOM     14  C   UNL     1      -0.146  12.002  20.829  0.00  0.00    +0.000 A 
ATOM     15  C   UNL     1      -1.323  12.071  20.104  0.00  0.00    +0.000 A 
ATOM     16  F   UNL     1      -2.214  13.031  20.390  0.00  0.00    +0.000 F 
ATOM     17  C   UNL     1      -1.574  11.151  19.092  0.00  0.00    +0.000 A 
ATOM     18  F   UNL     1      -2.713  11.229  18.390  0.00  0.00    +0.000 F 
ATOM     19  C   UNL     1      -0.663  10.130  18.810  0.00  0.00    +0.000 A 
ENDBRANCH  10  12
ENDBRANCH   1   9
BRANCH   6  20
ATOM     20  S   UNL     1       2.694   3.539  18.294  0.00  0.00    +0.000 S 
ATOM     21  O   UNL     1       2.070   2.928  17.140  0.00  0.00    +0.000 OA
ATOM     22  O   UNL     1       3.845   2.917  18.915  0.00  0.00    +0.000 OA
BRANCH  20  23
ATOM     23  N   UNL     1       1.516   3.734  19.512  0.00  0.00    +0.000 NA
ATOM     24  C   UNL     1       1.844   4.624  20.651  0.00  0.00    +0.000 C 
ATOM     25  C   UNL     1       2.294   3.691  21.756  0.00  0.00    +0.000 C 
ATOM     26  C   UNL     1       1.393   2.484  21.588  0.00  0.00    +0.000 C 
ATOM     27  C   UNL     1       1.058   2.434  20.100  0.00  0.00    +0.000 C 
ENDBRANCH  20  23
ENDBRANCH   6  20
TORSDOF 4
ENDMDL
MODEL 2
REMARK VINA RESULT:      -8.3      2.918      4.310
REMARK  Name = 
REMARK  4 active torsions:
REMARK  status: ('A' for Active; 'I' for Inactive)
REMARK    1  A    between atoms: C_2  and  C_12
REMARK    2  A    between atoms: N_3  and  C_4
REMARK    3  A    between atoms: C_17  and  S_18
REMARK    4  A    between atoms: S_18  and  N_21
REMARK                            x       y       z     vdW  Elec       q    Type
REMARK                         _______ _______ _______ _____ _____    ______ ____
ROOT
ATOM      1  C   UNL     1       2.839   5.525  18.508  0.00  0.00    +0.000 A 
ATOM      2  C   UNL     1       2.665   4.136  18.634  0.00  0.00    +0.000 A 
ATOM      3  C   UNL     1       3.468   3.252  17.918  0.00  0.00    +0.000 A 
ATOM      4  C   UNL     1       4.426   3.751  17.045  0.00  0.00    +0.000 A 
ATOM      5  F   UNL     1       5.245   2.885  16.439  0.00  0.00    +0.000 F 
ATOM      6  C   UNL     1       4.543   5.124  16.848  0.00  0.00    +0.000 A 
ATOM      7  C   UNL     1       3.752   6.029  17.578  0.00  0.00    +0.000 A 
ENDROOT
BRANCH   1   9
ATOM      8  O   UNL     1       1.857   5.781  20.576  0.00  0.00    +0.000 OA
ATOM      9  C   UNL     1       2.181   6.362  19.541  0.00  0.00    +0.000 C 
ATOM     10  N   UNL     1       1.954   7.702  19.267  0.00  0.00    +0.000 N 
ATOM     11  H   UNL     1       2.005   8.006  18.301  0.00  0.00    +0.000 HD
BRANCH  10  12
ATOM     12  C   UNL     1       1.401   8.594  20.216  0.00  0.00    +0.000 A 
ATOM     13  C   UNL     1       1.553   8.423  21.601  0.00  0.00    +0.000 A 
ATOM     14  C   UNL     1       0.918   9.268  22.513  0.00  0.00    +0.000 A 
ATOM     15  C   UNL     1       0.135  10.306  22.041  0.00  0.00    +0.000 A 
ATOM     16  F   UNL     1      -0.501  11.098  22.915  0.00  0.00    +0.000 F 
ATOM     17  C   UNL     1       0.011  10.520  20.672  0.00  0.00    +0.000 A 
ATOM     18  F   UNL     1      -0.744  11.533  20.223  0.00  0.00    +0.000 F 
ATOM     19  C   UNL     1       0.647   9.679  19.755  0.00  0.00    +0.000 A 
ENDBRANCH  10  12
ENDBRANCH   1   9
BRANCH   6  20
ATOM     20  S   UNL     1       5.650   5.710  15.610  0.00  0.00    +0.000 S 
ATOM     21  O   UNL     1       5.683   4.715  14.560  0.00  0.00    +0.000 OA
ATOM     22  O   UNL     1       5.269   7.075  15.310  0.00  0.00    +0.000 OA
BRANCH  20  23
ATOM     23  N   UNL     1       7.187   5.774  16.349  0.00  0.00    +0.000 NA
ATOM     24  C   UNL     1       7.528   4.707  17.319  0.00  0.00    +0.000 C 
ATOM     25  C   UNL     1       7.262   5.319  18.679  0.00  0.00    +0.000 C 
ATOM     26  C   UNL     1       7.689   6.763  18.507  0.00  0.00    +0.000 C 
ATOM     27  C   UNL     1       7.456   7.080  17.032  0.00  0.00    +0.000 C 
ENDBRANCH  20  23
ENDBRANCH   6  20
TORSDOF 4
ENDMDL
MODEL 3
REMARK VINA RESULT:      -8.3      0.588      1.345
REMARK  Name = 
REMARK  4 active torsions:
REMARK  status: ('A' for Active; 'I' for Inactive)
REMARK    1  A    between atoms: C_2  and  C_12
REMARK    2  A    between atoms: N_3  and  C_4
REMARK    3  A    between atoms: C_17  and  S_18
REMARK    4  A    between atoms: S_18  and  N_21
REMARK                            x       y       z     vdW  Elec       q    Type
REMARK                         _______ _______ _______ _____ _____    ______ ____
ROOT
ATOM      1  C   UNL     1       2.922   7.580  17.984  0.00  0.00    +0.000 A 
ATOM      2  C   UNL     1       4.098   7.737  17.230  0.00  0.00    +0.000 A 
ATOM      3  C   UNL     1       4.773   6.627  16.728  0.00  0.00    +0.000 A 
ATOM      4  C   UNL     1       4.296   5.352  17.005  0.00  0.00    +0.000 A 
ATOM      5  F   UNL     1       4.908   4.308  16.437  0.00  0.00    +0.000 F 
ATOM      6  C   UNL     1       3.184   5.187  17.826  0.00  0.00    +0.000 A 
ATOM      7  C   UNL     1       2.481   6.299  18.324  0.00  0.00    +0.000 A 
ENDROOT
BRANCH   1   9
ATOM      8  O   UNL     1       2.209   9.664  17.313  0.00  0.00    +0.000 OA
ATOM      9  C   UNL     1       2.107   8.803  18.185  0.00  0.00    +0.000 C 
ATOM     10  N   UNL     1       1.327   8.903  19.326  0.00  0.00    +0.000 N 
ATOM     11  H   UNL     1       1.527   8.275  20.096  0.00  0.00    +0.000 HD
BRANCH  10  12
ATOM     12  C   UNL     1       0.461   9.996  19.568  0.00  0.00    +0.000 A 
ATOM     13  C   UNL     1      -0.739  10.186  18.866  0.00  0.00    +0.000 A 
ATOM     14  C   UNL     1      -1.526  11.323  19.063  0.00  0.00    +0.000 A 
ATOM     15  C   UNL     1      -1.120  12.275  19.982  0.00  0.00    +0.000 A 
ATOM     16  F   UNL     1      -1.858  13.382  20.148  0.00  0.00    +0.000 F 
ATOM     17  C   UNL     1       0.042  12.080  20.720  0.00  0.00    +0.000 A 
ATOM     18  F   UNL     1       0.424  13.004  21.614  0.00  0.00    +0.000 F 
ATOM     19  C   UNL     1       0.830  10.943  20.529  0.00  0.00    +0.000 A 
ENDBRANCH  10  12
ENDBRANCH   1   9
BRANCH   6  20
ATOM     20  S   UNL     1       2.712   3.555  18.292  0.00  0.00    +0.000 S 
ATOM     21  O   UNL     1       2.096   2.941  17.136  0.00  0.00    +0.000 OA
ATOM     22  O   UNL     1       3.865   2.940  18.917  0.00  0.00    +0.000 OA
BRANCH  20  23
ATOM     23  N   UNL     1       1.528   3.740  19.506  0.00  0.00    +0.000 NA
ATOM     24  C   UNL     1       1.847   4.627  20.650  0.00  0.00    +0.000 C 
ATOM     25  C   UNL     1       2.295   3.690  21.754  0.00  0.00    +0.000 C 
ATOM     26  C   UNL     1       1.399   2.481  21.576  0.00  0.00    +0.000 C 
ATOM     27  C   UNL     1       1.071   2.437  20.086  0.00  0.00    +0.000 C 
ENDBRANCH  20  23
ENDBRANCH   6  20
TORSDOF 4
ENDMDL
MODEL 4
REMARK VINA RESULT:      -8.3      2.809      3.986
REMARK  Name = 
REMARK  4 active torsions:
REMARK  status: ('A' for Active; 'I' for Inactive)
REMARK    1  A    between atoms: C_2  and  C_12
REMARK    2  A    between atoms: N_3  and  C_4
REMARK    3  A    between atoms: C_17  and  S_18
REMARK    4  A    between atoms: S_18  and  N_21
REMARK                            x       y       z     vdW  Elec       q    Type
REMARK                         _______ _______ _______ _____ _____    ______ ____
ROOT
ATOM      1  C   UNL     1       2.893   6.447  18.016  0.00  0.00    +0.000 A 
ATOM      2  C   UNL     1       2.422   5.260  18.602  0.00  0.00    +0.000 A 
ATOM      3  C   UNL     1       3.083   4.052  18.388  0.00  0.00    +0.000 A 
ATOM      4  C   UNL     1       4.196   4.019  17.559  0.00  0.00    +0.000 A 
ATOM      5  F   UNL     1       4.865   2.866  17.442  0.00  0.00    +0.000 F 
ATOM      6  C   UNL     1       4.613   5.173  16.903  0.00  0.00    +0.000 A 
ATOM      7  C   UNL     1       3.968   6.403  17.124  0.00  0.00    +0.000 A 
ENDROOT
BRANCH   1   9
ATOM      8  O   UNL     1       2.252   7.774  19.785  0.00  0.00    +0.000 OA
ATOM      9  C   UNL     1       2.337   7.710  18.560  0.00  0.00    +0.000 C 
ATOM     10  N   UNL     1       1.933   8.697  17.674  0.00  0.00    +0.000 N 
ATOM     11  H   UNL     1       1.789   8.437  16.705  0.00  0.00    +0.000 HD
BRANCH  10  12
ATOM     12  C   UNL     1       1.460   9.961  18.100  0.00  0.00    +0.000 A 
ATOM     13  C   UNL     1       2.278  11.100  18.157  0.00  0.00    +0.000 A 
ATOM     14  C   UNL     1       1.807  12.311  18.667  0.00  0.00    +0.000 A 
ATOM     15  C   UNL     1       0.500  12.393  19.113  0.00  0.00    +0.000 A 
ATOM     16  F   UNL     1       0.055  13.545  19.634  0.00  0.00    +0.000 F 
ATOM     17  C   UNL     1      -0.340  11.288  19.020  0.00  0.00    +0.000 A 
ATOM     18  F   UNL     1      -1.608  11.378  19.447  0.00  0.00    +0.000 F 
ATOM     19  C   UNL     1       0.126  10.075  18.507  0.00  0.00    +0.000 A 
ENDBRANCH  10  12
ENDBRANCH   1   9
BRANCH   6  20
ATOM     20  S   UNL     1       5.922   5.054  15.730  0.00  0.00    +0.000 S 
ATOM     21  O   UNL     1       5.966   3.681  15.277  0.00  0.00    +0.000 OA
ATOM     22  O   UNL     1       5.740   6.131  14.779  0.00  0.00    +0.000 OA
BRANCH  20  23
ATOM     23  N   UNL     1       7.355   5.390  16.593  0.00  0.00    +0.000 NA
ATOM     24  C   UNL     1       7.620   4.603  17.820  0.00  0.00    +0.000 C 
ATOM     25  C   UNL     1       7.169   5.494  18.959  0.00  0.00    +0.000 C 
ATOM     26  C   UNL     1       7.556   6.884  18.494  0.00  0.00    +0.000 C 
ATOM     27  C   UNL     1       7.489   6.834  16.970  0.00  0.00    +0.000 C 
ENDBRANCH  20  23
ENDBRANCH   6  20
TORSDOF 4
ENDMDL
MODEL 5
REMARK VINA RESULT:      -8.3      2.994      4.205
REMARK  Name = 
REMARK  4 active torsions:
REMARK  status: ('A' for Active; 'I' for Inactive)
REMARK    1  A    between atoms: C_2  and  C_12
REMARK    2  A    between atoms: N_3  and  C_4
REMARK    3  A    between atoms: C_17  and  S_18
REMARK    4  A    between atoms: S_18  and  N_21
REMARK                            x       y       z     vdW  Elec       q    Type
REMARK                         _______ _______ _______ _____ _____    ______ ____
ROOT
ATOM      1  C   UNL     1       2.888   6.433  18.081  0.00  0.00    +0.000 A 
ATOM      2  C   UNL     1       2.438   5.240  18.673  0.00  0.00    +0.000 A 
ATOM      3  C   UNL     1       3.108   4.040  18.450  0.00  0.00    +0.000 A 
ATOM      4  C   UNL     1       4.211   4.019  17.607  0.00  0.00    +0.000 A 
ATOM      5  F   UNL     1       4.891   2.874  17.481  0.00  0.00    +0.000 F 
ATOM      6  C   UNL     1       4.607   5.178  16.946  0.00  0.00    +0.000 A 
ATOM      7  C   UNL     1       3.952   6.401  17.176  0.00  0.00    +0.000 A 
ENDROOT
BRANCH   1   9
ATOM      8  O   UNL     1       2.241   7.746  19.859  0.00  0.00    +0.000 OA
ATOM      9  C   UNL     1       2.325   7.690  18.634  0.00  0.00    +0.000 C 
ATOM     10  N   UNL     1       1.917   8.680  17.754  0.00  0.00    +0.000 N 
ATOM     11  H   UNL     1       1.774   8.425  16.783  0.00  0.00    +0.000 HD
BRANCH  10  12
ATOM     12  C   UNL     1       1.437   9.939  18.187  0.00  0.00    +0.000 A 
ATOM     13  C   UNL     1       0.113  10.145  18.604  0.00  0.00    +0.000 A 
ATOM     14  C   UNL     1      -0.356  11.418  18.938  0.00  0.00    +0.000 A 
ATOM     15  C   UNL     1       0.510  12.495  18.871  0.00  0.00    +0.000 A 
ATOM     16  F   UNL     1       0.053  13.722  19.160  0.00  0.00    +0.000 F 
ATOM     17  C   UNL     1       1.838  12.302  18.506  0.00  0.00    +0.000 A 
ATOM     18  F   UNL     1       2.672  13.350  18.450  0.00  0.00    +0.000 F 
ATOM     19  C   UNL     1       2.311  11.030  18.174  0.00  0.00    +0.000 A 
ENDBRANCH  10  12
ENDBRANCH   1   9
BRANCH   6  20
ATOM     20  S   UNL     1       5.902   5.074  15.756  0.00  0.00    +0.000 S 
ATOM     21  O   UNL     1       5.941   3.706  15.285  0.00  0.00    +0.000 OA
ATOM     22  O   UNL     1       5.709   6.162  14.821  0.00  0.00    +0.000 OA
BRANCH  20  23
ATOM     23  N   UNL     1       7.345   5.399  16.606  0.00  0.00    +0.000 NA
ATOM     24  C   UNL     1       7.609   4.619  17.838  0.00  0.00    +0.000 C 
ATOM     25  C   UNL     1       7.178   5.527  18.972  0.00  0.00    +0.000 C 
ATOM     26  C   UNL     1       7.579   6.907  18.492  0.00  0.00    +0.000 C 
ATOM     27  C   UNL     1       7.501   6.844  16.969  0.00  0.00    +0.000 C 
ENDBRANCH  20  23
ENDBRANCH   6  20
TORSDOF 4
ENDMDL
MODEL 6
REMARK VINA RESULT:      -8.3      2.985      4.258
REMARK  Name = 
REMARK  4 active torsions:
REMARK  status: ('A' for Active; 'I' for Inactive)
REMARK    1  A    between atoms: C_2  and  C_12
REMARK    2  A    between atoms: N_3  and  C_4
REMARK    3  A    between atoms: C_17  and  S_18
REMARK    4  A    between atoms: S_18  and  N_21
REMARK                            x       y       z     vdW  Elec       q    Type
REMARK                         _______ _______ _______ _____ _____    ______ ____
ROOT
ATOM      1  C   UNL     1       2.937   6.422  18.077  0.00  0.00    +0.000 A 
ATOM      2  C   UNL     1       2.460   5.201  18.584  0.00  0.00    +0.000 A 
ATOM      3  C   UNL     1       3.103   4.005  18.277  0.00  0.00    +0.000 A 
ATOM      4  C   UNL     1       4.207   4.018  17.434  0.00  0.00    +0.000 A 
ATOM      5  F   UNL     1       4.861   2.869  17.228  0.00  0.00    +0.000 F 
ATOM      6  C   UNL     1       4.630   5.211  16.857  0.00  0.00    +0.000 A 
ATOM      7  C   UNL     1       4.002   6.430  17.173  0.00  0.00    +0.000 A 
ENDROOT
BRANCH   1   9
ATOM      8  O   UNL     1       2.636   8.705  18.130  0.00  0.00    +0.000 OA
ATOM      9  C   UNL     1       2.402   7.650  18.717  0.00  0.00    +0.000 C 
ATOM     10  N   UNL     1       1.717   7.531  19.915  0.00  0.00    +0.000 N 
ATOM     11  H   UNL     1       1.821   6.670  20.441  0.00  0.00    +0.000 HD
BRANCH  10  12
ATOM     12  C   UNL     1       1.108   8.634  20.561  0.00  0.00    +0.000 A 
ATOM     13  C   UNL     1       0.804   9.832  19.896  0.00  0.00    +0.000 A 
ATOM     14  C   UNL     1       0.288  10.934  20.580  0.00  0.00    +0.000 A 
ATOM     15  C   UNL     1       0.058  10.837  21.941  0.00  0.00    +0.000 A 
ATOM     16  F   UNL     1      -0.406  11.905  22.606  0.00  0.00    +0.000 F 
ATOM     17  C   UNL     1       0.308   9.642  22.608  0.00  0.00    +0.000 A 
ATOM     18  F   UNL     1       0.075   9.554  23.925  0.00  0.00    +0.000 F 
ATOM     19  C   UNL     1       0.821   8.536  21.927  0.00  0.00    +0.000 A 
ENDBRANCH  10  12
ENDBRANCH   1   9
BRANCH   6  20
ATOM     20  S   UNL     1       5.925   5.161  15.663  0.00  0.00    +0.000 S 
ATOM     21  O   UNL     1       5.953   3.822  15.118  0.00  0.00    +0.000 OA
ATOM     22  O   UNL     1       5.741   6.301  14.788  0.00  0.00    +0.000 OA
BRANCH  20  23
ATOM     23  N   UNL     1       7.370   5.428  16.529  0.00  0.00    +0.000 NA
ATOM     24  C   UNL     1       7.627   4.580  17.717  0.00  0.00    +0.000 C 
ATOM     25  C   UNL     1       7.202   5.428  18.899  0.00  0.00    +0.000 C 
ATOM     26  C   UNL     1       7.615   6.829  18.495  0.00  0.00    +0.000 C 
ATOM     27  C   UNL     1       7.537   6.850  16.971  0.00  0.00    +0.000 C 
ENDBRANCH  20  23
ENDBRANCH   6  20
TORSDOF 4
ENDMDL
MODEL 7
REMARK VINA RESULT:      -8.2      2.417      4.159
REMARK  Name = 
REMARK  4 active torsions:
REMARK  status: ('A' for Active; 'I' for Inactive)
REMARK    1  A    between atoms: C_2  and  C_12
REMARK    2  A    between atoms: N_3  and  C_4
REMARK    3  A    between atoms: C_17  and  S_18
REMARK    4  A    between atoms: S_18  and  N_21
REMARK                            x       y       z     vdW  Elec       q    Type
REMARK                         _______ _______ _______ _____ _____    ______ ____
ROOT
ATOM      1  C   UNL     1       2.263   7.195  18.773  0.00  0.00    +0.000 A 
ATOM      2  C   UNL     1       1.701   6.663  19.946  0.00  0.00    +0.000 A 
ATOM      3  C   UNL     1       2.200   5.488  20.503  0.00  0.00    +0.000 A 
ATOM      4  C   UNL     1       3.240   4.819  19.871  0.00  0.00    +0.000 A 
ATOM      5  F   UNL     1       3.761   3.744  20.473  0.00  0.00    +0.000 F 
ATOM      6  C   UNL     1       3.740   5.291  18.661  0.00  0.00    +0.000 A 
ATOM      7  C   UNL     1       3.260   6.487  18.097  0.00  0.00    +0.000 A 
ENDROOT
BRANCH   1   9
ATOM      8  O   UNL     1       2.315   9.025  17.376  0.00  0.00    +0.000 OA
ATOM      9  C   UNL     1       1.896   8.596  18.450  0.00  0.00    +0.000 C 
ATOM     10  N   UNL     1       1.151   9.318  19.368  0.00  0.00    +0.000 N 
ATOM     11  H   UNL     1       1.099   8.970  20.319  0.00  0.00    +0.000 HD
BRANCH  10  12
ATOM     12  C   UNL     1       0.692  10.634  19.117  0.00  0.00    +0.000 A 
ATOM     13  C   UNL     1      -0.594  10.911  18.630  0.00  0.00    +0.000 A 
ATOM     14  C   UNL     1      -0.986  12.211  18.306  0.00  0.00    +0.000 A 
ATOM     15  C   UNL     1      -0.090  13.250  18.483  0.00  0.00    +0.000 A 
ATOM     16  F   UNL     1      -0.453  14.495  18.141  0.00  0.00    +0.000 F 
ATOM     17  C   UNL     1       1.173  13.001  19.009  0.00  0.00    +0.000 A 
ATOM     18  F   UNL     1       2.033  14.015  19.184  0.00  0.00    +0.000 F 
ATOM     19  C   UNL     1       1.568  11.702  19.338  0.00  0.00    +0.000 A 
ENDBRANCH  10  12
ENDBRANCH   1   9
BRANCH   6  20
ATOM     20  S   UNL     1       4.940   4.325  17.807  0.00  0.00    +0.000 S 
ATOM     21  O   UNL     1       6.123   4.280  18.638  0.00  0.00    +0.000 OA
ATOM     22  O   UNL     1       4.287   3.098  17.400  0.00  0.00    +0.000 OA
BRANCH  20  23
ATOM     23  N   UNL     1       5.307   5.189  16.382  0.00  0.00    +0.000 NA
ATOM     24  C   UNL     1       4.942   4.567  15.087  0.00  0.00    +0.000 C 
ATOM     25  C   UNL     1       6.224   3.933  14.586  0.00  0.00    +0.000 C 
ATOM     26  C   UNL     1       7.295   4.913  15.020  0.00  0.00    +0.000 C 
ATOM     27  C   UNL     1       6.751   5.574  16.283  0.00  0.00    +0.000 C 
ENDBRANCH  20  23
ENDBRANCH   6  20
TORSDOF 4
ENDMDL
MODEL 8
REMARK VINA RESULT:      -8.2      2.804      4.022
REMARK  Name = 
REMARK  4 active torsions:
REMARK  status: ('A' for Active; 'I' for Inactive)
REMARK    1  A    between atoms: C_2  and  C_12
REMARK    2  A    between atoms: N_3  and  C_4
REMARK    3  A    between atoms: C_17  and  S_18
REMARK    4  A    between atoms: S_18  and  N_21
REMARK                            x       y       z     vdW  Elec       q    Type
REMARK                         _______ _______ _______ _____ _____    ______ ____
ROOT
ATOM      1  C   UNL     1       2.876   6.465  18.229  0.00  0.00    +0.000 A 
ATOM      2  C   UNL     1       2.455   5.229  18.748  0.00  0.00    +0.000 A 
ATOM      3  C   UNL     1       3.117   4.053  18.404  0.00  0.00    +0.000 A 
ATOM      4  C   UNL     1       4.182   4.101  17.513  0.00  0.00    +0.000 A 
ATOM      5  F   UNL     1       4.858   2.973  17.271  0.00  0.00    +0.000 F 
ATOM      6  C   UNL     1       4.546   5.309  16.927  0.00  0.00    +0.000 A 
ATOM      7  C   UNL     1       3.899   6.508  17.278  0.00  0.00    +0.000 A 
ENDROOT
BRANCH   1   9
ATOM      8  O   UNL     1       2.527   8.740  18.318  0.00  0.00    +0.000 OA
ATOM      9  C   UNL     1       2.336   7.674  18.900  0.00  0.00    +0.000 C 
ATOM     10  N   UNL     1       1.695   7.527  20.120  0.00  0.00    +0.000 N 
ATOM     11  H   UNL     1       1.836   6.663  20.632  0.00  0.00    +0.000 HD
BRANCH  10  12
ATOM     12  C   UNL     1       1.084   8.609  20.798  0.00  0.00    +0.000 A 
ATOM     13  C   UNL     1       1.123   8.750  22.194  0.00  0.00    +0.000 A 
ATOM     14  C   UNL     1       0.434   9.778  22.842  0.00  0.00    +0.000 A 
ATOM     15  C   UNL     1      -0.290  10.684  22.089  0.00  0.00    +0.000 A 
ATOM     16  F   UNL     1      -0.979  11.652  22.711  0.00  0.00    +0.000 F 
ATOM     17  C   UNL     1      -0.301  10.588  20.701  0.00  0.00    +0.000 A 
ATOM     18  F   UNL     1      -1.000  11.476  19.978  0.00  0.00    +0.000 F 
ATOM     19  C   UNL     1       0.389   9.564  20.049  0.00  0.00    +0.000 A 
ENDBRANCH  10  12
ENDBRANCH   1   9
BRANCH   6  20
ATOM     20  S   UNL     1       5.787   5.303  15.676  0.00  0.00    +0.000 S 
ATOM     21  O   UNL     1       5.776   3.989  15.070  0.00  0.00    +0.000 OA
ATOM     22  O   UNL     1       5.578   6.483  14.863  0.00  0.00    +0.000 OA
BRANCH  20  23
ATOM     23  N   UNL     1       7.271   5.516  16.490  0.00  0.00    +0.000 NA
ATOM     24  C   UNL     1       7.598   4.572  17.584  0.00  0.00    +0.000 C 
ATOM     25  C   UNL     1       7.225   5.306  18.855  0.00  0.00    +0.000 C 
ATOM     26  C   UNL     1       7.600   6.743  18.557  0.00  0.00    +0.000 C 
ATOM     27  C   UNL     1       7.444   6.896  17.046  0.00  0.00    +0.000 C 
ENDBRANCH  20  23
ENDBRANCH   6  20
TORSDOF 4
ENDMDL
MODEL 9
REMARK VINA RESULT:      -8.1      6.227      7.655
REMARK  Name = 
REMARK  4 active torsions:
REMARK  status: ('A' for Active; 'I' for Inactive)
REMARK    1  A    between atoms: C_2  and  C_12
REMARK    2  A    between atoms: N_3  and  C_4
REMARK    3  A    between atoms: C_17  and  S_18
REMARK    4  A    between atoms: S_18  and  N_21
REMARK                            x       y       z     vdW  Elec       q    Type
REMARK                         _______ _______ _______ _____ _____    ______ ____
ROOT
ATOM      1  C   UNL     1       7.854   7.983  18.254  0.00  0.00    +0.000 A 
ATOM      2  C   UNL     1       8.425   7.029  19.113  0.00  0.00    +0.000 A 
ATOM      3  C   UNL     1       8.174   5.671  18.933  0.00  0.00    +0.000 A 
ATOM      4  C   UNL     1       7.322   5.262  17.915  0.00  0.00    +0.000 A 
ATOM      5  F   UNL     1       7.169   3.950  17.706  0.00  0.00    +0.000 F 
ATOM      6  C   UNL     1       6.683   6.206  17.118  0.00  0.00    +0.000 A 
ATOM      7  C   UNL     1       6.942   7.580  17.276  0.00  0.00    +0.000 A 
ENDROOT
BRANCH   1   9
ATOM      8  O   UNL     1       8.036  10.138  17.460  0.00  0.00    +0.000 OA
ATOM      9  C   UNL     1       8.436   9.347  18.313  0.00  0.00    +0.000 C 
ATOM     10  N   UNL     1       9.387   9.624  19.282  0.00  0.00    +0.000 N 
ATOM     11  H   UNL     1       9.838   8.842  19.744  0.00  0.00    +0.000 HD
BRANCH  10  12
ATOM     12  C   UNL     1       9.943  10.913  19.464  0.00  0.00    +0.000 A 
ATOM     13  C   UNL     1      10.826  11.496  18.542  0.00  0.00    +0.000 A 
ATOM     14  C   UNL     1      11.430  12.730  18.793  0.00  0.00    +0.000 A 
ATOM     15  C   UNL     1      11.138  13.398  19.969  0.00  0.00    +0.000 A 
ATOM     16  F   UNL     1      11.742  14.567  20.225  0.00  0.00    +0.000 F 
ATOM     17  C   UNL     1      10.229  12.858  20.871  0.00  0.00    +0.000 A 
ATOM     18  F   UNL     1       9.946  13.516  22.005  0.00  0.00    +0.000 F 
ATOM     19  C   UNL     1       9.620  11.626  20.623  0.00  0.00    +0.000 A 
ENDBRANCH  10  12
ENDBRANCH   1   9
BRANCH   6  20
ATOM     20  S   UNL     1       5.482   5.657  15.952  0.00  0.00    +0.000 S 
ATOM     21  O   UNL     1       5.201   6.770  15.071  0.00  0.00    +0.000 OA
ATOM     22  O   UNL     1       5.958   4.401  15.410  0.00  0.00    +0.000 OA
BRANCH  20  23
ATOM     23  N   UNL     1       4.078   5.308  16.856  0.00  0.00    +0.000 NA
ATOM     24  C   UNL     1       3.779   6.170  18.024  0.00  0.00    +0.000 C 
ATOM     25  C   UNL     1       4.289   5.393  19.220  0.00  0.00    +0.000 C 
ATOM     26  C   UNL     1       3.977   3.953  18.865  0.00  0.00    +0.000 C 
ATOM     27  C   UNL     1       4.028   3.892  17.341  0.00  0.00    +0.000 C 
ENDBRANCH  20  23
ENDBRANCH   6  20
TORSDOF 4
ENDMDL
