MODEL 1
REMARK VINA RESULT:      -8.0      0.000      0.000
REMARK  Name = 
REMARK  4 active torsions:
REMARK  status: ('A' for Active; 'I' for Inactive)
REMARK    1  A    between atoms: C_4  and  C_5
REMARK    2  A    between atoms: C_5  and  N_6
REMARK    3  A    between atoms: N_9  and  C_10
REMARK    4  A    between atoms: C_10  and  C_11
REMARK                            x       y       z     vdW  Elec       q    Type
REMARK                         _______ _______ _______ _____ _____    ______ ____
ROOT
ATOM      1  N   UNL     1       0.279   8.560  20.749  0.00  0.00    +0.000 NA
ATOM      2  C   UNL     1       0.422   9.844  20.024  0.00  0.00    +0.000 C 
ATOM      3  C   UNL     1       0.944  11.022  20.877  0.00  0.00    +0.000 C 
ATOM      4  N   UNL     1       0.166  11.306  22.097  0.00  0.00    +0.000 NA
ATOM      5  C   UNL     1      -0.114  10.047  22.822  0.00  0.00    +0.000 C 
ATOM      6  C   UNL     1      -0.530   8.820  21.963  0.00  0.00    +0.000 C 
ENDROOT
BRANCH   1   7
ATOM      7  C   UNL     1       1.590   7.951  21.097  0.00  0.00    +0.000 C 
BRANCH   7  11
ATOM      8  O   UNL     1       3.784   6.115  17.332  0.00  0.00    +0.000 OA
ATOM      9  C   UNL     1       3.045   5.912  18.288  0.00  0.00    +0.000 A 
ATOM     10  N   UNL     1       2.665   6.906  19.148  0.00  0.00    +0.000 N 
ATOM     11  C   UNL     1       1.878   6.702  20.256  0.00  0.00    +0.000 A 
ATOM     12  N   UNL     1       1.372   5.546  20.557  0.00  0.00    +0.000 NA
ATOM     13  C   UNL     1       1.687   4.452  19.719  0.00  0.00    +0.000 A 
ATOM     14  C   UNL     1       1.177   3.187  20.027  0.00  0.00    +0.000 A 
ATOM     15  C   UNL     1       1.508   2.070  19.248  0.00  0.00    +0.000 A 
ATOM     16  C   UNL     1       2.347   2.209  18.144  0.00  0.00    +0.000 A 
ATOM     17  C   UNL     1       2.849   3.466  17.810  0.00  0.00    +0.000 A 
ATOM     18  C   UNL     1       2.515   4.572  18.599  0.00  0.00    +0.000 A 
ATOM     19  H   UNL     1       3.042   7.834  18.996  0.00  0.00    +0.000 HD
ENDBRANCH   7  11
ENDBRANCH   1   7
BRANCH   4  20
ATOM     20  C   UNL     1      -1.063  12.086  21.850  0.00  0.00    +0.000 C 
BRANCH  20  21
ATOM     21  C   UNL     1      -1.145  13.401  22.620  0.00  0.00    +0.000 A 
ATOM     22  C   UNL     1      -0.139  14.367  22.418  0.00  0.00    +0.000 A 
ATOM     23  C   UNL     1      -0.156  15.598  23.086  0.00  0.00    +0.000 A 
ATOM     24  C   UNL     1      -1.193  15.908  23.959  0.00  0.00    +0.000 A 
ATOM     25  C   UNL     1      -2.217  14.985  24.162  0.00  0.00    +0.000 A 
ATOM     26  C   UNL     1      -2.178  13.717  23.523  0.00  0.00    +0.000 A 
ATOM     27  C   UNL     1      -3.348  12.827  23.868  0.00  0.00    +0.000 C 
ATOM     28  C   UNL     1      -4.621  13.662  23.686  0.00  0.00    +0.000 C 
ATOM     29  N   UNL     1      -4.685  14.877  24.512  0.00  0.00    +0.000 NA
ATOM     30  C   UNL     1      -3.387  15.284  25.075  0.00  0.00    +0.000 C 
ATOM     31  H   UNL     1      -5.344  14.743  25.275  0.00  0.00    +0.000 HD
ENDBRANCH  20  21
ENDBRANCH   4  20
TORSDOF 4
ENDMDL
MODEL 2
REMARK VINA RESULT:      -7.8      1.618      2.379
REMARK  Name = 
REMARK  4 active torsions:
REMARK  status: ('A' for Active; 'I' for Inactive)
REMARK    1  A    between atoms: C_4  and  C_5
REMARK    2  A    between atoms: C_5  and  N_6
REMARK    3  A    between atoms: N_9  and  C_10
REMARK    4  A    between atoms: C_10  and  C_11
REMARK                            x       y       z     vdW  Elec       q    Type
REMARK                         _______ _______ _______ _____ _____    ______ ____
ROOT
ATOM      1  N   UNL     1       0.258   8.537  20.854  0.00  0.00    +0.000 NA
ATOM      2  C   UNL     1       0.238   9.928  20.346  0.00  0.00    +0.000 C 
ATOM      3  C   UNL     1       0.679  11.004  21.364  0.00  0.00    +0.000 C 
ATOM      4  N   UNL     1      -0.065  11.004  22.638  0.00  0.00    +0.000 NA
ATOM      5  C   UNL     1      -0.184   9.623  23.154  0.00  0.00    +0.000 C 
ATOM      6  C   UNL     1      -0.515   8.512  22.118  0.00  0.00    +0.000 C 
ENDROOT
BRANCH   1   7
ATOM      7  C   UNL     1       1.638   8.023  21.058  0.00  0.00    +0.000 C 
BRANCH   7  11
ATOM      8  O   UNL     1       3.848   6.207  17.293  0.00  0.00    +0.000 OA
ATOM      9  C   UNL     1       3.094   6.002  18.236  0.00  0.00    +0.000 A 
ATOM     10  N   UNL     1       2.720   6.989  19.106  0.00  0.00    +0.000 N 
ATOM     11  C   UNL     1       1.916   6.782  20.201  0.00  0.00    +0.000 A 
ATOM     12  N   UNL     1       1.386   5.631  20.478  0.00  0.00    +0.000 NA
ATOM     13  C   UNL     1       1.692   4.545  19.627  0.00  0.00    +0.000 A 
ATOM     14  C   UNL     1       1.156   3.284  19.909  0.00  0.00    +0.000 A 
ATOM     15  C   UNL     1       1.478   2.174  19.118  0.00  0.00    +0.000 A 
ATOM     16  C   UNL     1       2.333   2.314  18.026  0.00  0.00    +0.000 A 
ATOM     17  C   UNL     1       2.861   3.567  17.718  0.00  0.00    +0.000 A 
ATOM     18  C   UNL     1       2.536   4.667  18.520  0.00  0.00    +0.000 A 
ATOM     19  H   UNL     1       3.115   7.912  18.973  0.00  0.00    +0.000 HD
ENDBRANCH   7  11
ENDBRANCH   1   7
BRANCH   4  20
ATOM     20  C   UNL     1      -1.377  11.679  22.559  0.00  0.00    +0.000 C 
BRANCH  20  21
ATOM     21  C   UNL     1      -1.303  13.199  22.452  0.00  0.00    +0.000 A 
ATOM     22  C   UNL     1      -1.111  13.952  23.628  0.00  0.00    +0.000 A 
ATOM     23  C   UNL     1      -1.028  15.350  23.601  0.00  0.00    +0.000 A 
ATOM     24  C   UNL     1      -1.109  16.034  22.393  0.00  0.00    +0.000 A 
ATOM     25  C   UNL     1      -1.274  15.318  21.209  0.00  0.00    +0.000 A 
ATOM     26  C   UNL     1      -1.406  13.904  21.238  0.00  0.00    +0.000 A 
ATOM     27  C   UNL     1      -1.601  13.285  19.874  0.00  0.00    +0.000 C 
ATOM     28  C   UNL     1      -0.521  13.866  18.955  0.00  0.00    +0.000 C 
ATOM     29  N   UNL     1      -0.546  15.331  18.823  0.00  0.00    +0.000 NA
ATOM     30  C   UNL     1      -1.335  16.010  19.864  0.00  0.00    +0.000 C 
ATOM     31  H   UNL     1      -0.916  15.590  17.911  0.00  0.00    +0.000 HD
ENDBRANCH  20  21
ENDBRANCH   4  20
TORSDOF 4
ENDMDL
MODEL 3
REMARK VINA RESULT:      -7.8      3.167      5.721
REMARK  Name = 
REMARK  4 active torsions:
REMARK  status: ('A' for Active; 'I' for Inactive)
REMARK    1  A    between atoms: C_4  and  C_5
REMARK    2  A    between atoms: C_5  and  N_6
REMARK    3  A    between atoms: N_9  and  C_10
REMARK    4  A    between atoms: C_10  and  C_11
REMARK                            x       y       z     vdW  Elec       q    Type
REMARK                         _______ _______ _______ _____ _____    ______ ____
ROOT
ATOM      1  N   UNL     1       2.637   5.024  18.457  0.00  0.00    +0.000 NA
ATOM      2  C   UNL     1       2.395   6.475  18.281  0.00  0.00    +0.000 C 
ATOM      3  C   UNL     1       2.522   7.322  19.567  0.00  0.00    +0.000 C 
ATOM      4  N   UNL     1       1.678   6.882  20.694  0.00  0.00    +0.000 NA
ATOM      5  C   UNL     1       1.782   5.416  20.862  0.00  0.00    +0.000 C 
ATOM      6  C   UNL     1       1.770   4.558  19.565  0.00  0.00    +0.000 C 
ENDROOT
BRANCH   1   7
ATOM      7  C   UNL     1       4.066   4.713  18.726  0.00  0.00    +0.000 C 
BRANCH   7  11
ATOM      8  O   UNL     1       7.735   6.793  16.588  0.00  0.00    +0.000 OA
ATOM      9  C   UNL     1       6.813   5.991  16.493  0.00  0.00    +0.000 A 
ATOM     10  N   UNL     1       5.935   5.757  17.515  0.00  0.00    +0.000 N 
ATOM     11  C   UNL     1       4.922   4.830  17.459  0.00  0.00    +0.000 A 
ATOM     12  N   UNL     1       4.668   4.129  16.398  0.00  0.00    +0.000 NA
ATOM     13  C   UNL     1       5.506   4.310  15.274  0.00  0.00    +0.000 A 
ATOM     14  C   UNL     1       5.276   3.552  14.121  0.00  0.00    +0.000 A 
ATOM     15  C   UNL     1       6.116   3.668  13.006  0.00  0.00    +0.000 A 
ATOM     16  C   UNL     1       7.193   4.553  13.028  0.00  0.00    +0.000 A 
ATOM     17  C   UNL     1       7.427   5.331  14.161  0.00  0.00    +0.000 A 
ATOM     18  C   UNL     1       6.583   5.202  15.270  0.00  0.00    +0.000 A 
ATOM     19  H   UNL     1       6.083   6.247  18.389  0.00  0.00    +0.000 HD
ENDBRANCH   7  11
ENDBRANCH   1   7
BRANCH   4  20
ATOM     20  C   UNL     1       0.273   7.327  20.592  0.00  0.00    +0.000 C 
BRANCH  20  21
ATOM     21  C   UNL     1       0.002   8.708  21.179  0.00  0.00    +0.000 A 
ATOM     22  C   UNL     1      -0.248   8.819  22.562  0.00  0.00    +0.000 A 
ATOM     23  C   UNL     1      -0.498  10.057  23.168  0.00  0.00    +0.000 A 
ATOM     24  C   UNL     1      -0.482  11.224  22.412  0.00  0.00    +0.000 A 
ATOM     25  C   UNL     1      -0.213  11.152  21.046  0.00  0.00    +0.000 A 
ATOM     26  C   UNL     1      -0.006   9.894  20.421  0.00  0.00    +0.000 A 
ATOM     27  C   UNL     1       0.249   9.990  18.935  0.00  0.00    +0.000 C 
ATOM     28  C   UNL     1       1.329  11.058  18.729  0.00  0.00    +0.000 C 
ATOM     29  N   UNL     1       0.982  12.393  19.242  0.00  0.00    +0.000 NA
ATOM     30  C   UNL     1      -0.150  12.394  20.183  0.00  0.00    +0.000 C 
ATOM     31  H   UNL     1       0.764  13.015  18.467  0.00  0.00    +0.000 HD
ENDBRANCH  20  21
ENDBRANCH   4  20
TORSDOF 4
ENDMDL
MODEL 4
REMARK VINA RESULT:      -7.7      1.826      2.404
REMARK  Name = 
REMARK  4 active torsions:
REMARK  status: ('A' for Active; 'I' for Inactive)
REMARK    1  A    between atoms: C_4  and  C_5
REMARK    2  A    between atoms: C_5  and  N_6
REMARK    3  A    between atoms: N_9  and  C_10
REMARK    4  A    between atoms: C_10  and  C_11
REMARK                            x       y       z     vdW  Elec       q    Type
REMARK                         _______ _______ _______ _____ _____    ______ ____
ROOT
ATOM      1  N   UNL     1       0.131   8.849  20.887  0.00  0.00    +0.000 NA
ATOM      2  C   UNL     1      -0.267  10.219  20.487  0.00  0.00    +0.000 C 
ATOM      3  C   UNL     1       0.086  11.327  21.505  0.00  0.00    +0.000 C 
ATOM      4  N   UNL     1      -0.431  11.113  22.870  0.00  0.00    +0.000 NA
ATOM      5  C   UNL     1      -0.168   9.722  23.299  0.00  0.00    +0.000 C 
ATOM      6  C   UNL     1      -0.410   8.605  22.245  0.00  0.00    +0.000 C 
ENDROOT
BRANCH   1   7
ATOM      7  C   UNL     1       1.604   8.649  20.852  0.00  0.00    +0.000 C 
BRANCH   7  11
ATOM      8  O   UNL     1       1.289   3.935  21.040  0.00  0.00    +0.000 OA
ATOM      9  C   UNL     1       1.744   4.909  20.453  0.00  0.00    +0.000 A 
ATOM     10  N   UNL     1       1.526   6.191  20.877  0.00  0.00    +0.000 N 
ATOM     11  C   UNL     1       1.981   7.306  20.215  0.00  0.00    +0.000 A 
ATOM     12  N   UNL     1       2.716   7.241  19.149  0.00  0.00    +0.000 NA
ATOM     13  C   UNL     1       3.019   5.958  18.637  0.00  0.00    +0.000 A 
ATOM     14  C   UNL     1       3.790   5.851  17.475  0.00  0.00    +0.000 A 
ATOM     15  C   UNL     1       4.068   4.599  16.911  0.00  0.00    +0.000 A 
ATOM     16  C   UNL     1       3.586   3.436  17.510  0.00  0.00    +0.000 A 
ATOM     17  C   UNL     1       2.832   3.522  18.680  0.00  0.00    +0.000 A 
ATOM     18  C   UNL     1       2.557   4.779  19.230  0.00  0.00    +0.000 A 
ATOM     19  H   UNL     1       0.936   6.328  21.690  0.00  0.00    +0.000 HD
ENDBRANCH   7  11
ENDBRANCH   1   7
BRANCH   4  20
ATOM     20  C   UNL     1      -1.852  11.480  23.030  0.00  0.00    +0.000 C 
BRANCH  20  21
ATOM     21  C   UNL     1      -2.137  12.975  22.922  0.00  0.00    +0.000 A 
ATOM     22  C   UNL     1      -1.206  13.883  23.465  0.00  0.00    +0.000 A 
ATOM     23  C   UNL     1      -1.401  15.268  23.395  0.00  0.00    +0.000 A 
ATOM     24  C   UNL     1      -2.524  15.787  22.758  0.00  0.00    +0.000 A 
ATOM     25  C   UNL     1      -3.452  14.917  22.188  0.00  0.00    +0.000 A 
ATOM     26  C   UNL     1      -3.280  13.512  22.299  0.00  0.00    +0.000 A 
ATOM     27  C   UNL     1      -4.385  12.712  21.650  0.00  0.00    +0.000 C 
ATOM     28  C   UNL     1      -4.588  13.282  20.241  0.00  0.00    +0.000 C 
ATOM     29  N   UNL     1      -4.941  14.709  20.197  0.00  0.00    +0.000 NA
ATOM     30  C   UNL     1      -4.673  15.428  21.454  0.00  0.00    +0.000 C 
ATOM     31  H   UNL     1      -5.926  14.815  19.964  0.00  0.00    +0.000 HD
ENDBRANCH  20  21
ENDBRANCH   4  20
TORSDOF 4
ENDMDL
MODEL 5
REMARK VINA RESULT:      -7.7      2.659     10.585
REMARK  Name = 
REMARK  4 active torsions:
REMARK  status: ('A' for Active; 'I' for Inactive)
REMARK    1  A    between atoms: C_4  and  C_5
REMARK    2  A    between atoms: C_5  and  N_6
REMARK    3  A    between atoms: N_9  and  C_10
REMARK    4  A    between atoms: C_10  and  C_11
REMARK                            x       y       z     vdW  Elec       q    Type
REMARK                         _______ _______ _______ _____ _____    ______ ____
ROOT
ATOM      1  N   UNL     1      -0.542  10.149  21.923  0.00  0.00    +0.000 NA
ATOM      2  C   UNL     1       0.307   9.279  22.770  0.00  0.00    +0.000 C 
ATOM      3  C   UNL     1       1.711   8.976  22.198  0.00  0.00    +0.000 C 
ATOM      4  N   UNL     1       1.724   8.396  20.842  0.00  0.00    +0.000 NA
ATOM      5  C   UNL     1       0.806   9.149  19.960  0.00  0.00    +0.000 C 
ATOM      6  C   UNL     1      -0.567   9.561  20.563  0.00  0.00    +0.000 C 
ENDROOT
BRANCH   1   7
ATOM      7  C   UNL     1      -0.064  11.556  21.890  0.00  0.00    +0.000 C 
BRANCH   7  11
ATOM      8  O   UNL     1      -4.542  12.560  23.028  0.00  0.00    +0.000 OA
ATOM      9  C   UNL     1      -3.366  12.894  23.105  0.00  0.00    +0.000 A 
ATOM     10  N   UNL     1      -2.360  12.182  22.510  0.00  0.00    +0.000 N 
ATOM     11  C   UNL     1      -1.027  12.501  22.618  0.00  0.00    +0.000 A 
ATOM     12  N   UNL     1      -0.604  13.551  23.251  0.00  0.00    +0.000 NA
ATOM     13  C   UNL     1      -1.567  14.368  23.886  0.00  0.00    +0.000 A 
ATOM     14  C   UNL     1      -1.143  15.496  24.597  0.00  0.00    +0.000 A 
ATOM     15  C   UNL     1      -2.064  16.301  25.281  0.00  0.00    +0.000 A 
ATOM     16  C   UNL     1      -3.423  15.993  25.252  0.00  0.00    +0.000 A 
ATOM     17  C   UNL     1      -3.866  14.885  24.532  0.00  0.00    +0.000 A 
ATOM     18  C   UNL     1      -2.936  14.085  23.858  0.00  0.00    +0.000 A 
ATOM     19  H   UNL     1      -2.607  11.332  22.019  0.00  0.00    +0.000 HD
ENDBRANCH   7  11
ENDBRANCH   1   7
BRANCH   4  20
ATOM     20  C   UNL     1       1.448   6.945  20.815  0.00  0.00    +0.000 C 
BRANCH  20  21
ATOM     21  C   UNL     1       2.126   6.192  19.674  0.00  0.00    +0.000 A 
ATOM     22  C   UNL     1       3.087   6.867  18.895  0.00  0.00    +0.000 A 
ATOM     23  C   UNL     1       3.753   6.235  17.837  0.00  0.00    +0.000 A 
ATOM     24  C   UNL     1       3.494   4.901  17.543  0.00  0.00    +0.000 A 
ATOM     25  C   UNL     1       2.567   4.197  18.310  0.00  0.00    +0.000 A 
ATOM     26  C   UNL     1       1.856   4.848  19.352  0.00  0.00    +0.000 A 
ATOM     27  C   UNL     1       0.875   3.953  20.070  0.00  0.00    +0.000 C 
ATOM     28  C   UNL     1       1.620   2.664  20.433  0.00  0.00    +0.000 C 
ATOM     29  N   UNL     1       2.185   1.934  19.288  0.00  0.00    +0.000 NA
ATOM     30  C   UNL     1       2.272   2.735  18.055  0.00  0.00    +0.000 C 
ATOM     31  H   UNL     1       1.630   1.102  19.099  0.00  0.00    +0.000 HD
ENDBRANCH  20  21
ENDBRANCH   4  20
TORSDOF 4
ENDMDL
MODEL 6
REMARK VINA RESULT:      -7.6      4.001      9.917
REMARK  Name = 
REMARK  4 active torsions:
REMARK  status: ('A' for Active; 'I' for Inactive)
REMARK    1  A    between atoms: C_4  and  C_5
REMARK    2  A    between atoms: C_5  and  N_6
REMARK    3  A    between atoms: N_9  and  C_10
REMARK    4  A    between atoms: C_10  and  C_11
REMARK                            x       y       z     vdW  Elec       q    Type
REMARK                         _______ _______ _______ _____ _____    ______ ____
ROOT
ATOM      1  N   UNL     1       0.237  11.389  19.348  0.00  0.00    +0.000 NA
ATOM      2  C   UNL     1       1.708  11.285  19.206  0.00  0.00    +0.000 C 
ATOM      3  C   UNL     1       2.193  10.478  17.981  0.00  0.00    +0.000 C 
ATOM      4  N   UNL     1       1.658   9.108  17.879  0.00  0.00    +0.000 NA
ATOM      5  C   UNL     1       0.198   9.116  18.122  0.00  0.00    +0.000 C 
ATOM      6  C   UNL     1      -0.315  10.015  19.282  0.00  0.00    +0.000 C 
ENDROOT
BRANCH   1   7
ATOM      7  C   UNL     1      -0.375  12.264  18.314  0.00  0.00    +0.000 C 
BRANCH   7  11
ATOM      8  O   UNL     1      -4.006  10.881  15.619  0.00  0.00    +0.000 OA
ATOM      9  C   UNL     1      -3.644  11.322  16.704  0.00  0.00    +0.000 A 
ATOM     10  N   UNL     1      -2.333  11.595  16.986  0.00  0.00    +0.000 N 
ATOM     11  C   UNL     1      -1.889  12.043  18.206  0.00  0.00    +0.000 A 
ATOM     12  N   UNL     1      -2.688  12.306  19.193  0.00  0.00    +0.000 NA
ATOM     13  C   UNL     1      -4.069  12.077  18.999  0.00  0.00    +0.000 A 
ATOM     14  C   UNL     1      -4.957  12.329  20.050  0.00  0.00    +0.000 A 
ATOM     15  C   UNL     1      -6.327  12.067  19.911  0.00  0.00    +0.000 A 
ATOM     16  C   UNL     1      -6.826  11.559  18.713  0.00  0.00    +0.000 A 
ATOM     17  C   UNL     1      -5.959  11.322  17.647  0.00  0.00    +0.000 A 
ATOM     18  C   UNL     1      -4.593  11.582  17.801  0.00  0.00    +0.000 A 
ATOM     19  H   UNL     1      -1.643  11.389  16.274  0.00  0.00    +0.000 HD
ENDBRANCH   7  11
ENDBRANCH   1   7
BRANCH   4  20
ATOM     20  C   UNL     1       2.355   8.133  18.742  0.00  0.00    +0.000 C 
BRANCH  20  21
ATOM     21  C   UNL     1       3.150   7.073  17.986  0.00  0.00    +0.000 A 
ATOM     22  C   UNL     1       4.155   7.491  17.090  0.00  0.00    +0.000 A 
ATOM     23  C   UNL     1       4.927   6.572  16.369  0.00  0.00    +0.000 A 
ATOM     24  C   UNL     1       4.732   5.205  16.540  0.00  0.00    +0.000 A 
ATOM     25  C   UNL     1       3.763   4.758  17.437  0.00  0.00    +0.000 A 
ATOM     26  C   UNL     1       2.947   5.687  18.134  0.00  0.00    +0.000 A 
ATOM     27  C   UNL     1       1.933   5.039  19.047  0.00  0.00    +0.000 C 
ATOM     28  C   UNL     1       2.681   3.999  19.888  0.00  0.00    +0.000 C 
ATOM     29  N   UNL     1       3.363   2.952  19.111  0.00  0.00    +0.000 NA
ATOM     30  C   UNL     1       3.533   3.283  17.686  0.00  0.00    +0.000 C 
ATOM     31  H   UNL     1       2.850   2.077  19.184  0.00  0.00    +0.000 HD
ENDBRANCH  20  21
ENDBRANCH   4  20
TORSDOF 4
ENDMDL
MODEL 7
REMARK VINA RESULT:      -7.6      3.055      4.136
REMARK  Name = 
REMARK  4 active torsions:
REMARK  status: ('A' for Active; 'I' for Inactive)
REMARK    1  A    between atoms: C_4  and  C_5
REMARK    2  A    between atoms: C_5  and  N_6
REMARK    3  A    between atoms: N_9  and  C_10
REMARK    4  A    between atoms: C_10  and  C_11
REMARK                            x       y       z     vdW  Elec       q    Type
REMARK                         _______ _______ _______ _____ _____    ______ ____
ROOT
ATOM      1  N   UNL     1       0.544   9.217  19.362  0.00  0.00    +0.000 NA
ATOM      2  C   UNL     1       1.043  10.374  18.583  0.00  0.00    +0.000 C 
ATOM      3  C   UNL     1       1.188  11.689  19.384  0.00  0.00    +0.000 C 
ATOM      4  N   UNL     1      -0.032  12.137  20.080  0.00  0.00    +0.000 NA
ATOM      5  C   UNL     1      -0.654  11.000  20.794  0.00  0.00    +0.000 C 
ATOM      6  C   UNL     1      -0.702   9.640  20.042  0.00  0.00    +0.000 C 
ENDROOT
BRANCH   1   7
ATOM      7  C   UNL     1       1.544   8.712  20.339  0.00  0.00    +0.000 C 
BRANCH   7  11
ATOM      8  O   UNL     1       2.020   4.132  21.415  0.00  0.00    +0.000 OA
ATOM      9  C   UNL     1       2.275   5.031  20.622  0.00  0.00    +0.000 A 
ATOM     10  N   UNL     1       1.873   6.323  20.821  0.00  0.00    +0.000 N 
ATOM     11  C   UNL     1       2.099   7.343  19.928  0.00  0.00    +0.000 A 
ATOM     12  N   UNL     1       2.773   7.182  18.832  0.00  0.00    +0.000 NA
ATOM     13  C   UNL     1       3.252   5.885  18.539  0.00  0.00    +0.000 A 
ATOM     14  C   UNL     1       3.962   5.670  17.353  0.00  0.00    +0.000 A 
ATOM     15  C   UNL     1       4.409   4.389  17.006  0.00  0.00    +0.000 A 
ATOM     16  C   UNL     1       4.160   3.306  17.848  0.00  0.00    +0.000 A 
ATOM     17  C   UNL     1       3.471   3.504  19.044  0.00  0.00    +0.000 A 
ATOM     18  C   UNL     1       3.025   4.788  19.376  0.00  0.00    +0.000 A 
ATOM     19  H   UNL     1       1.317   6.525  21.644  0.00  0.00    +0.000 HD
ENDBRANCH   7  11
ENDBRANCH   1   7
BRANCH   4  20
ATOM     20  C   UNL     1      -0.996  12.830  19.201  0.00  0.00    +0.000 C 
BRANCH  20  21
ATOM     21  C   UNL     1      -2.449  12.738  19.658  0.00  0.00    +0.000 A 
ATOM     22  C   UNL     1      -2.846  13.458  20.803  0.00  0.00    +0.000 A 
ATOM     23  C   UNL     1      -4.165  13.424  21.273  0.00  0.00    +0.000 A 
ATOM     24  C   UNL     1      -5.132  12.686  20.599  0.00  0.00    +0.000 A 
ATOM     25  C   UNL     1      -4.778  11.983  19.448  0.00  0.00    +0.000 A 
ATOM     26  C   UNL     1      -3.432  11.977  18.996  0.00  0.00    +0.000 A 
ATOM     27  C   UNL     1      -3.213  11.148  17.753  0.00  0.00    +0.000 C 
ATOM     28  C   UNL     1      -4.288  11.559  16.740  0.00  0.00    +0.000 C 
ATOM     29  N   UNL     1      -5.673  11.373  17.201  0.00  0.00    +0.000 NA
ATOM     30  C   UNL     1      -5.797  11.191  18.657  0.00  0.00    +0.000 C 
ATOM     31  H   UNL     1      -6.088  10.570  16.735  0.00  0.00    +0.000 HD
ENDBRANCH  20  21
ENDBRANCH   4  20
TORSDOF 4
ENDMDL
MODEL 8
REMARK VINA RESULT:      -7.6      3.315      4.561
REMARK  Name = 
REMARK  4 active torsions:
REMARK  status: ('A' for Active; 'I' for Inactive)
REMARK    1  A    between atoms: C_4  and  C_5
REMARK    2  A    between atoms: C_5  and  N_6
REMARK    3  A    between atoms: N_9  and  C_10
REMARK    4  A    between atoms: C_10  and  C_11
REMARK                            x       y       z     vdW  Elec       q    Type
REMARK                         _______ _______ _______ _____ _____    ______ ____
ROOT
ATOM      1  N   UNL     1       1.211   9.225  18.278  0.00  0.00    +0.000 NA
ATOM      2  C   UNL     1       1.647  10.638  18.193  0.00  0.00    +0.000 C 
ATOM      3  C   UNL     1       1.329  11.498  19.437  0.00  0.00    +0.000 C 
ATOM      4  N   UNL     1      -0.089  11.513  19.844  0.00  0.00    +0.000 NA
ATOM      5  C   UNL     1      -0.630  10.136  19.843  0.00  0.00    +0.000 C 
ATOM      6  C   UNL     1      -0.223   9.222  18.653  0.00  0.00    +0.000 C 
ENDROOT
BRANCH   1   7
ATOM      7  C   UNL     1       2.020   8.435  19.243  0.00  0.00    +0.000 C 
BRANCH   7  11
ATOM      8  O   UNL     1       2.602   3.750  18.974  0.00  0.00    +0.000 OA
ATOM      9  C   UNL     1       2.936   4.850  18.551  0.00  0.00    +0.000 A 
ATOM     10  N   UNL     1       2.417   6.016  19.044  0.00  0.00    +0.000 N 
ATOM     11  C   UNL     1       2.734   7.262  18.560  0.00  0.00    +0.000 A 
ATOM     12  N   UNL     1       3.607   7.450  17.619  0.00  0.00    +0.000 NA
ATOM     13  C   UNL     1       4.220   6.310  17.053  0.00  0.00    +0.000 A 
ATOM     14  C   UNL     1       5.149   6.475  16.021  0.00  0.00    +0.000 A 
ATOM     15  C   UNL     1       5.739   5.365  15.402  0.00  0.00    +0.000 A 
ATOM     16  C   UNL     1       5.414   4.074  15.816  0.00  0.00    +0.000 A 
ATOM     17  C   UNL     1       4.505   3.891  16.857  0.00  0.00    +0.000 A 
ATOM     18  C   UNL     1       3.918   5.008  17.463  0.00  0.00    +0.000 A 
ATOM     19  H   UNL     1       1.707   5.951  19.764  0.00  0.00    +0.000 HD
ENDBRANCH   7  11
ENDBRANCH   1   7
BRANCH   4  20
ATOM     20  C   UNL     1      -0.925  12.434  19.048  0.00  0.00    +0.000 C 
BRANCH  20  21
ATOM     21  C   UNL     1      -2.388  12.492  19.476  0.00  0.00    +0.000 A 
ATOM     22  C   UNL     1      -2.729  13.247  20.617  0.00  0.00    +0.000 A 
ATOM     23  C   UNL     1      -4.053  13.349  21.063  0.00  0.00    +0.000 A 
ATOM     24  C   UNL     1      -5.079  12.718  20.367  0.00  0.00    +0.000 A 
ATOM     25  C   UNL     1      -4.778  11.985  19.220  0.00  0.00    +0.000 A 
ATOM     26  C   UNL     1      -3.432  11.840  18.793  0.00  0.00    +0.000 A 
ATOM     27  C   UNL     1      -3.277  10.997  17.550  0.00  0.00    +0.000 C 
ATOM     28  C   UNL     1      -4.284  11.520  16.519  0.00  0.00    +0.000 C 
ATOM     29  N   UNL     1      -5.689  11.479  16.953  0.00  0.00    +0.000 NA
ATOM     30  C   UNL     1      -5.859  11.306  18.405  0.00  0.00    +0.000 C 
ATOM     31  H   UNL     1      -6.177  10.725  16.475  0.00  0.00    +0.000 HD
ENDBRANCH  20  21
ENDBRANCH   4  20
TORSDOF 4
ENDMDL
MODEL 9
REMARK VINA RESULT:      -7.6      1.032      1.333
REMARK  Name = 
REMARK  4 active torsions:
REMARK  status: ('A' for Active; 'I' for Inactive)
REMARK    1  A    between atoms: C_4  and  C_5
REMARK    2  A    between atoms: C_5  and  N_6
REMARK    3  A    between atoms: N_9  and  C_10
REMARK    4  A    between atoms: C_10  and  C_11
REMARK                            x       y       z     vdW  Elec       q    Type
REMARK                         _______ _______ _______ _____ _____    ______ ____
ROOT
ATOM      1  N   UNL     1       0.381   9.206  20.443  0.00  0.00    +0.000 NA
ATOM      2  C   UNL     1       0.697  10.513  19.821  0.00  0.00    +0.000 C 
ATOM      3  C   UNL     1       1.068  11.638  20.814  0.00  0.00    +0.000 C 
ATOM      4  N   UNL     1       0.072  11.897  21.870  0.00  0.00    +0.000 NA
ATOM      5  C   UNL     1      -0.378  10.620  22.466  0.00  0.00    +0.000 C 
ATOM      6  C   UNL     1      -0.645   9.444  21.485  0.00  0.00    +0.000 C 
ENDROOT
BRANCH   1   7
ATOM      7  C   UNL     1       1.582   8.541  21.013  0.00  0.00    +0.000 C 
BRANCH   7  11
ATOM      8  O   UNL     1       3.610   6.192  17.445  0.00  0.00    +0.000 OA
ATOM      9  C   UNL     1       2.926   6.124  18.460  0.00  0.00    +0.000 A 
ATOM     10  N   UNL     1       2.573   7.230  19.183  0.00  0.00    +0.000 N 
ATOM     11  C   UNL     1       1.849   7.184  20.351  0.00  0.00    +0.000 A 
ATOM     12  N   UNL     1       1.380   6.081  20.845  0.00  0.00    +0.000 NA
ATOM     13  C   UNL     1       1.671   4.878  20.161  0.00  0.00    +0.000 A 
ATOM     14  C   UNL     1       1.201   3.667  20.679  0.00  0.00    +0.000 A 
ATOM     15  C   UNL     1       1.512   2.451  20.056  0.00  0.00    +0.000 A 
ATOM     16  C   UNL     1       2.290   2.433  18.899  0.00  0.00    +0.000 A 
ATOM     17  C   UNL     1       2.750   3.633  18.357  0.00  0.00    +0.000 A 
ATOM     18  C   UNL     1       2.437   4.840  18.992  0.00  0.00    +0.000 A 
ATOM     19  H   UNL     1       2.924   8.130  18.876  0.00  0.00    +0.000 HD
ENDBRANCH   7  11
ENDBRANCH   1   7
BRANCH   4  20
ATOM     20  C   UNL     1      -1.065  12.727  21.423  0.00  0.00    +0.000 C 
BRANCH  20  21
ATOM     21  C   UNL     1      -1.826  13.420  22.549  0.00  0.00    +0.000 A 
ATOM     22  C   UNL     1      -1.096  14.139  23.517  0.00  0.00    +0.000 A 
ATOM     23  C   UNL     1      -1.731  14.804  24.574  0.00  0.00    +0.000 A 
ATOM     24  C   UNL     1      -3.117  14.789  24.681  0.00  0.00    +0.000 A 
ATOM     25  C   UNL     1      -3.871  14.108  23.725  0.00  0.00    +0.000 A 
ATOM     26  C   UNL     1      -3.228  13.393  22.680  0.00  0.00    +0.000 A 
ATOM     27  C   UNL     1      -4.185  12.692  21.746  0.00  0.00    +0.000 C 
ATOM     28  C   UNL     1      -5.252  13.715  21.339  0.00  0.00    +0.000 C 
ATOM     29  N   UNL     1      -6.012  14.292  22.459  0.00  0.00    +0.000 NA
ATOM     30  C   UNL     1      -5.383  14.087  23.774  0.00  0.00    +0.000 C 
ATOM     31  H   UNL     1      -6.950  13.898  22.480  0.00  0.00    +0.000 HD
ENDBRANCH  20  21
ENDBRANCH   4  20
TORSDOF 4
ENDMDL
