MODEL 1
REMARK VINA RESULT:      -8.8      0.000      0.000
REMARK  Name = 
REMARK  5 active torsions:
REMARK  status: ('A' for Active; 'I' for Inactive)
REMARK    1  A    between atoms: C_2  and  C_11
REMARK    2  A    between atoms: N_3  and  C_4
REMARK    3  A    between atoms: C_14  and  N_15
REMARK    4  A    between atoms: N_15  and  S_16
REMARK    5  A    between atoms: S_16  and  C_19
REMARK                            x       y       z     vdW  Elec       q    Type
REMARK                         _______ _______ _______ _____ _____    ______ ____
ROOT
ATOM      1  C   UNL     1       7.905   7.671  18.137  0.00  0.00    +0.000 A 
ATOM      2  C   UNL     1       7.134   7.303  17.020  0.00  0.00    +0.000 A 
ATOM      3  C   UNL     1       6.539   6.044  16.952  0.00  0.00    +0.000 A 
ATOM      4  C   UNL     1       6.699   5.154  18.011  0.00  0.00    +0.000 A 
ATOM      5  C   UNL     1       7.468   5.510  19.123  0.00  0.00    +0.000 A 
ATOM      6  C   UNL     1       8.080   6.763  19.190  0.00  0.00    +0.000 A 
ENDROOT
BRANCH   1   8
ATOM      7  O   UNL     1       8.111   9.786  17.248  0.00  0.00    +0.000 OA
ATOM      8  C   UNL     1       8.416   9.064  18.191  0.00  0.00    +0.000 C 
ATOM      9  N   UNL     1       9.212   9.407  19.271  0.00  0.00    +0.000 N 
ATOM     10  H   UNL     1       9.547   8.670  19.884  0.00  0.00    +0.000 HD
BRANCH   9  11
ATOM     11  C   UNL     1       9.796  10.689  19.468  0.00  0.00    +0.000 A 
ATOM     12  C   UNL     1      10.531  11.346  18.477  0.00  0.00    +0.000 A 
ATOM     13  C   UNL     1      11.118  12.591  18.725  0.00  0.00    +0.000 A 
ATOM     14  C   UNL     1      10.966  13.203  19.966  0.00  0.00    +0.000 A 
ATOM     15  C   UNL     1      10.217  12.570  20.957  0.00  0.00    +0.000 A 
ATOM     16  C   UNL     1       9.633  11.328  20.700  0.00  0.00    +0.000 A 
ATOM     17  F   UNL     1       8.928  10.730  21.675  0.00  0.00    +0.000 F 
ENDBRANCH   9  11
ENDBRANCH   1   8
BRANCH   4  18
ATOM     18  N   UNL     1       6.092   3.870  17.988  0.00  0.00    +0.000 N 
ATOM     19  H   UNL     1       6.181   3.295  18.826  0.00  0.00    +0.000 HD
BRANCH  18  20
ATOM     20  S   UNL     1       4.541   3.724  17.332  0.00  0.00    +0.000 S 
ATOM     21  O   UNL     1       4.639   4.219  15.979  0.00  0.00    +0.000 OA
ATOM     22  O   UNL     1       4.035   2.394  17.600  0.00  0.00    +0.000 OA
BRANCH  20  23
ATOM     23  C   UNL     1       3.578   4.895  18.261  0.00  0.00    +0.000 A 
ATOM     24  C   UNL     1       3.452   4.762  19.647  0.00  0.00    +0.000 A 
ATOM     25  C   UNL     1       2.808   5.767  20.374  0.00  0.00    +0.000 A 
ATOM     26  C   UNL     1       2.300   6.897  19.724  0.00  0.00    +0.000 A 
ATOM     27  C   UNL     1       2.383   6.995  18.337  0.00  0.00    +0.000 A 
ATOM     28  C   UNL     1       3.033   6.004  17.602  0.00  0.00    +0.000 A 
ATOM     29  O   UNL     1       1.831   8.022  17.627  0.00  0.00    +0.000 OA
ATOM     30  C   UNL     1       1.714   9.205  18.413  0.00  0.00    +0.000 C 
ATOM     31  C   UNL     1       1.191   8.968  19.825  0.00  0.00    +0.000 C 
ATOM     32  O   UNL     1       1.775   7.869  20.524  0.00  0.00    +0.000 OA
ENDBRANCH  20  23
ENDBRANCH  18  20
ENDBRANCH   4  18
TORSDOF 5
ENDMDL
MODEL 2
REMARK VINA RESULT:      -8.7      0.891      1.250
REMARK  Name = 
REMARK  5 active torsions:
REMARK  status: ('A' for Active; 'I' for Inactive)
REMARK    1  A    between atoms: C_2  and  C_11
REMARK    2  A    between atoms: N_3  and  C_4
REMARK    3  A    between atoms: C_14  and  N_15
REMARK    4  A    between atoms: N_15  and  S_16
REMARK    5  A    between atoms: S_16  and  C_19
REMARK                            x       y       z     vdW  Elec       q    Type
REMARK                         _______ _______ _______ _____ _____    ______ ____
ROOT
ATOM      1  C   UNL     1       7.916   7.921  18.148  0.00  0.00    +0.000 A 
ATOM      2  C   UNL     1       7.046   7.639  17.079  0.00  0.00    +0.000 A 
ATOM      3  C   UNL     1       6.492   6.367  16.932  0.00  0.00    +0.000 A 
ATOM      4  C   UNL     1       6.793   5.379  17.865  0.00  0.00    +0.000 A 
ATOM      5  C   UNL     1       7.661   5.649  18.927  0.00  0.00    +0.000 A 
ATOM      6  C   UNL     1       8.231   6.916  19.071  0.00  0.00    +0.000 A 
ENDROOT
BRANCH   1   8
ATOM      7  O   UNL     1       7.917  10.135  17.509  0.00  0.00    +0.000 OA
ATOM      8  C   UNL     1       8.380   9.323  18.304  0.00  0.00    +0.000 C 
ATOM      9  N   UNL     1       9.310   9.577  19.297  0.00  0.00    +0.000 N 
ATOM     10  H   UNL     1       9.755   8.790  19.761  0.00  0.00    +0.000 HD
BRANCH   9  11
ATOM     11  C   UNL     1       9.871  10.855  19.570  0.00  0.00    +0.000 A 
ATOM     12  C   UNL     1       9.691  11.516  20.788  0.00  0.00    +0.000 A 
ATOM     13  C   UNL     1      10.231  12.788  21.002  0.00  0.00    +0.000 A 
ATOM     14  C   UNL     1      10.974  13.411  20.002  0.00  0.00    +0.000 A 
ATOM     15  C   UNL     1      11.181  12.755  18.790  0.00  0.00    +0.000 A 
ATOM     16  C   UNL     1      10.639  11.485  18.586  0.00  0.00    +0.000 A 
ATOM     17  F   UNL     1      10.839  10.878  17.405  0.00  0.00    +0.000 F 
ENDBRANCH   9  11
ENDBRANCH   1   8
BRANCH   4  18
ATOM     18  N   UNL     1       6.233   4.077  17.761  0.00  0.00    +0.000 N 
ATOM     19  H   UNL     1       6.350   3.452  18.559  0.00  0.00    +0.000 HD
BRANCH  18  20
ATOM     20  S   UNL     1       4.683   3.917  17.106  0.00  0.00    +0.000 S 
ATOM     21  O   UNL     1       4.759   4.477  15.777  0.00  0.00    +0.000 OA
ATOM     22  O   UNL     1       4.216   2.563  17.315  0.00  0.00    +0.000 OA
BRANCH  20  23
ATOM     23  C   UNL     1       3.692   5.018  18.092  0.00  0.00    +0.000 A 
ATOM     24  C   UNL     1       3.539   4.789  19.463  0.00  0.00    +0.000 A 
ATOM     25  C   UNL     1       2.873   5.740  20.243  0.00  0.00    +0.000 A 
ATOM     26  C   UNL     1       2.371   6.908  19.661  0.00  0.00    +0.000 A 
ATOM     27  C   UNL     1       2.482   7.100  18.286  0.00  0.00    +0.000 A 
ATOM     28  C   UNL     1       3.154   6.165  17.499  0.00  0.00    +0.000 A 
ATOM     29  O   UNL     1       1.937   8.171  17.636  0.00  0.00    +0.000 OA
ATOM     30  C   UNL     1       1.796   9.297  18.498  0.00  0.00    +0.000 C 
ATOM     31  C   UNL     1       1.246   8.961  19.879  0.00  0.00    +0.000 C 
ATOM     32  O   UNL     1       1.823   7.820  20.514  0.00  0.00    +0.000 OA
ENDBRANCH  20  23
ENDBRANCH  18  20
ENDBRANCH   4  18
TORSDOF 5
ENDMDL
MODEL 3
REMARK VINA RESULT:      -8.7      4.751      7.064
REMARK  Name = 
REMARK  5 active torsions:
REMARK  status: ('A' for Active; 'I' for Inactive)
REMARK    1  A    between atoms: C_2  and  C_11
REMARK    2  A    between atoms: N_3  and  C_4
REMARK    3  A    between atoms: C_14  and  N_15
REMARK    4  A    between atoms: N_15  and  S_16
REMARK    5  A    between atoms: S_16  and  C_19
REMARK                            x       y       z     vdW  Elec       q    Type
REMARK                         _______ _______ _______ _____ _____    ______ ____
ROOT
ATOM      1  C   UNL     1       1.773   7.873  19.649  0.00  0.00    +0.000 A 
ATOM      2  C   UNL     1       2.252   7.505  18.379  0.00  0.00    +0.000 A 
ATOM      3  C   UNL     1       2.514   6.168  18.079  0.00  0.00    +0.000 A 
ATOM      4  C   UNL     1       2.279   5.193  19.045  0.00  0.00    +0.000 A 
ATOM      5  C   UNL     1       1.808   5.551  20.312  0.00  0.00    +0.000 A 
ATOM      6  C   UNL     1       1.560   6.889  20.623  0.00  0.00    +0.000 A 
ENDROOT
BRANCH   1   8
ATOM      7  O   UNL     1       1.156   9.622  21.016  0.00  0.00    +0.000 OA
ATOM      8  C   UNL     1       1.413   9.298  19.861  0.00  0.00    +0.000 C 
ATOM      9  N   UNL     1       1.363  10.113  18.744  0.00  0.00    +0.000 N 
ATOM     10  H   UNL     1       1.410   9.684  17.824  0.00  0.00    +0.000 HD
BRANCH   9  11
ATOM     11  C   UNL     1       1.019  11.494  18.767  0.00  0.00    +0.000 A 
ATOM     12  C   UNL     1       1.976  12.512  18.757  0.00  0.00    +0.000 A 
ATOM     13  C   UNL     1       1.594  13.856  18.816  0.00  0.00    +0.000 A 
ATOM     14  C   UNL     1       0.246  14.201  18.870  0.00  0.00    +0.000 A 
ATOM     15  C   UNL     1      -0.721  13.196  18.857  0.00  0.00    +0.000 A 
ATOM     16  C   UNL     1      -0.331  11.857  18.797  0.00  0.00    +0.000 A 
ATOM     17  F   UNL     1      -1.279  10.906  18.800  0.00  0.00    +0.000 F 
ENDBRANCH   9  11
ENDBRANCH   1   8
BRANCH   4  18
ATOM     18  N   UNL     1       2.515   3.818  18.771  0.00  0.00    +0.000 N 
ATOM     19  H   UNL     1       2.148   3.446  17.895  0.00  0.00    +0.000 HD
BRANCH  18  20
ATOM     20  S   UNL     1       4.049   3.185  19.089  0.00  0.00    +0.000 S 
ATOM     21  O   UNL     1       4.442   3.728  20.368  0.00  0.00    +0.000 OA
ATOM     22  O   UNL     1       4.028   1.755  18.865  0.00  0.00    +0.000 OA
BRANCH  20  23
ATOM     23  C   UNL     1       5.080   3.938  17.850  0.00  0.00    +0.000 A 
ATOM     24  C   UNL     1       6.225   4.648  18.223  0.00  0.00    +0.000 A 
ATOM     25  C   UNL     1       7.094   5.113  17.231  0.00  0.00    +0.000 A 
ATOM     26  C   UNL     1       6.825   4.865  15.881  0.00  0.00    +0.000 A 
ATOM     27  C   UNL     1       5.654   4.204  15.517  0.00  0.00    +0.000 A 
ATOM     28  C   UNL     1       4.785   3.725  16.498  0.00  0.00    +0.000 A 
ATOM     29  O   UNL     1       5.282   4.007  14.219  0.00  0.00    +0.000 OA
ATOM     30  C   UNL     1       6.406   3.987  13.343  0.00  0.00    +0.000 C 
ATOM     31  C   UNL     1       7.433   5.078  13.620  0.00  0.00    +0.000 C 
ATOM     32  O   UNL     1       7.776   5.271  14.992  0.00  0.00    +0.000 OA
ENDBRANCH  20  23
ENDBRANCH  18  20
ENDBRANCH   4  18
TORSDOF 5
ENDMDL
MODEL 4
REMARK VINA RESULT:      -8.6      4.751      7.450
REMARK  Name = 
REMARK  5 active torsions:
REMARK  status: ('A' for Active; 'I' for Inactive)
REMARK    1  A    between atoms: C_2  and  C_11
REMARK    2  A    between atoms: N_3  and  C_4
REMARK    3  A    between atoms: C_14  and  N_15
REMARK    4  A    between atoms: N_15  and  S_16
REMARK    5  A    between atoms: S_16  and  C_19
REMARK                            x       y       z     vdW  Elec       q    Type
REMARK                         _______ _______ _______ _____ _____    ______ ____
ROOT
ATOM      1  C   UNL     1       1.749   7.711  20.327  0.00  0.00    +0.000 A 
ATOM      2  C   UNL     1       2.242   7.869  19.019  0.00  0.00    +0.000 A 
ATOM      3  C   UNL     1       2.503   6.756  18.219  0.00  0.00    +0.000 A 
ATOM      4  C   UNL     1       2.252   5.481  18.720  0.00  0.00    +0.000 A 
ATOM      5  C   UNL     1       1.767   5.315  20.021  0.00  0.00    +0.000 A 
ATOM      6  C   UNL     1       1.519   6.425  20.831  0.00  0.00    +0.000 A 
ENDROOT
BRANCH   1   8
ATOM      7  O   UNL     1       1.805   9.005  22.232  0.00  0.00    +0.000 OA
ATOM      8  C   UNL     1       1.391   8.940  21.080  0.00  0.00    +0.000 C 
ATOM      9  N   UNL     1       0.599   9.873  20.433  0.00  0.00    +0.000 N 
ATOM     10  H   UNL     1       0.165   9.617  19.551  0.00  0.00    +0.000 HD
BRANCH   9  11
ATOM     11  C   UNL     1       0.152  11.093  21.012  0.00  0.00    +0.000 A 
ATOM     12  C   UNL     1      -0.864  11.146  21.971  0.00  0.00    +0.000 A 
ATOM     13  C   UNL     1      -1.298  12.371  22.489  0.00  0.00    +0.000 A 
ATOM     14  C   UNL     1      -0.710  13.560  22.065  0.00  0.00    +0.000 A 
ATOM     15  C   UNL     1       0.320  13.520  21.127  0.00  0.00    +0.000 A 
ATOM     16  C   UNL     1       0.748  12.293  20.615  0.00  0.00    +0.000 A 
ATOM     17  F   UNL     1       1.731  12.280  19.702  0.00  0.00    +0.000 F 
ENDBRANCH   9  11
ENDBRANCH   1   8
BRANCH   4  18
ATOM     18  N   UNL     1       2.485   4.324  17.929  0.00  0.00    +0.000 N 
ATOM     19  H   UNL     1       2.264   4.384  16.936  0.00  0.00    +0.000 HD
BRANCH  18  20
ATOM     20  S   UNL     1       3.921   3.464  18.165  0.00  0.00    +0.000 S 
ATOM     21  O   UNL     1       4.403   3.853  19.470  0.00  0.00    +0.000 OA
ATOM     22  O   UNL     1       3.697   2.070  17.843  0.00  0.00    +0.000 OA
BRANCH  20  23
ATOM     23  C   UNL     1       5.030   4.154  16.958  0.00  0.00    +0.000 A 
ATOM     24  C   UNL     1       6.123   4.925  17.366  0.00  0.00    +0.000 A 
ATOM     25  C   UNL     1       7.058   5.341  16.414  0.00  0.00    +0.000 A 
ATOM     26  C   UNL     1       6.906   4.986  15.069  0.00  0.00    +0.000 A 
ATOM     27  C   UNL     1       5.785   4.265  14.665  0.00  0.00    +0.000 A 
ATOM     28  C   UNL     1       4.851   3.834  15.607  0.00  0.00    +0.000 A 
ATOM     29  O   UNL     1       5.523   3.961  13.360  0.00  0.00    +0.000 OA
ATOM     30  C   UNL     1       6.715   3.912  12.579  0.00  0.00    +0.000 C 
ATOM     31  C   UNL     1       7.689   5.052  12.853  0.00  0.00    +0.000 C 
ATOM     32  O   UNL     1       7.915   5.355  14.230  0.00  0.00    +0.000 OA
ENDBRANCH  20  23
ENDBRANCH  18  20
ENDBRANCH   4  18
TORSDOF 5
ENDMDL
MODEL 5
REMARK VINA RESULT:      -8.6      2.324      2.993
REMARK  Name = 
REMARK  5 active torsions:
REMARK  status: ('A' for Active; 'I' for Inactive)
REMARK    1  A    between atoms: C_2  and  C_11
REMARK    2  A    between atoms: N_3  and  C_4
REMARK    3  A    between atoms: C_14  and  N_15
REMARK    4  A    between atoms: N_15  and  S_16
REMARK    5  A    between atoms: S_16  and  C_19
REMARK                            x       y       z     vdW  Elec       q    Type
REMARK                         _______ _______ _______ _____ _____    ______ ____
ROOT
ATOM      1  C   UNL     1       8.277   8.293  18.294  0.00  0.00    +0.000 A 
ATOM      2  C   UNL     1       7.649   8.029  17.063  0.00  0.00    +0.000 A 
ATOM      3  C   UNL     1       7.177   6.750  16.767  0.00  0.00    +0.000 A 
ATOM      4  C   UNL     1       7.315   5.736  17.712  0.00  0.00    +0.000 A 
ATOM      5  C   UNL     1       7.942   5.989  18.935  0.00  0.00    +0.000 A 
ATOM      6  C   UNL     1       8.432   7.262  19.230  0.00  0.00    +0.000 A 
ENDROOT
BRANCH   1   8
ATOM      7  O   UNL     1       8.360  10.525  17.727  0.00  0.00    +0.000 OA
ATOM      8  C   UNL     1       8.656   9.699  18.584  0.00  0.00    +0.000 C 
ATOM      9  N   UNL     1       9.334   9.943  19.766  0.00  0.00    +0.000 N 
ATOM     10  H   UNL     1       9.686   9.153  20.299  0.00  0.00    +0.000 HD
BRANCH   9  11
ATOM     11  C   UNL     1       9.785  11.224  20.189  0.00  0.00    +0.000 A 
ATOM     12  C   UNL     1       9.121  11.976  21.162  0.00  0.00    +0.000 A 
ATOM     13  C   UNL     1       9.579  13.247  21.523  0.00  0.00    +0.000 A 
ATOM     14  C   UNL     1      10.719  13.778  20.924  0.00  0.00    +0.000 A 
ATOM     15  C   UNL     1      11.404  13.031  19.968  0.00  0.00    +0.000 A 
ATOM     16  C   UNL     1      10.941  11.762  19.615  0.00  0.00    +0.000 A 
ATOM     17  F   UNL     1      11.608  11.065  18.681  0.00  0.00    +0.000 F 
ENDBRANCH   9  11
ENDBRANCH   1   8
BRANCH   4  18
ATOM     18  N   UNL     1       6.828   4.425  17.456  0.00  0.00    +0.000 N 
ATOM     19  H   UNL     1       6.727   3.800  18.255  0.00  0.00    +0.000 HD
BRANCH  18  20
ATOM     20  S   UNL     1       5.528   4.243  16.391  0.00  0.00    +0.000 S 
ATOM     21  O   UNL     1       5.202   5.574  15.937  0.00  0.00    +0.000 OA
ATOM     22  O   UNL     1       5.834   3.190  15.445  0.00  0.00    +0.000 OA
BRANCH  20  23
ATOM     23  C   UNL     1       4.198   3.696  17.439  0.00  0.00    +0.000 A 
ATOM     24  C   UNL     1       3.453   2.564  17.097  0.00  0.00    +0.000 A 
ATOM     25  C   UNL     1       2.506   2.072  18.000  0.00  0.00    +0.000 A 
ATOM     26  C   UNL     1       2.311   2.700  19.235  0.00  0.00    +0.000 A 
ATOM     27  C   UNL     1       3.021   3.858  19.543  0.00  0.00    +0.000 A 
ATOM     28  C   UNL     1       3.976   4.353  18.655  0.00  0.00    +0.000 A 
ATOM     29  O   UNL     1       2.818   4.575  20.687  0.00  0.00    +0.000 OA
ATOM     30  C   UNL     1       2.304   3.760  21.738  0.00  0.00    +0.000 C 
ATOM     31  C   UNL     1       1.199   2.805  21.304  0.00  0.00    +0.000 C 
ATOM     32  O   UNL     1       1.437   2.094  20.089  0.00  0.00    +0.000 OA
ENDBRANCH  20  23
ENDBRANCH  18  20
ENDBRANCH   4  18
TORSDOF 5
ENDMDL
MODEL 6
REMARK VINA RESULT:      -8.6      4.653      6.927
REMARK  Name = 
REMARK  5 active torsions:
REMARK  status: ('A' for Active; 'I' for Inactive)
REMARK    1  A    between atoms: C_2  and  C_11
REMARK    2  A    between atoms: N_3  and  C_4
REMARK    3  A    between atoms: C_14  and  N_15
REMARK    4  A    between atoms: N_15  and  S_16
REMARK    5  A    between atoms: S_16  and  C_19
REMARK                            x       y       z     vdW  Elec       q    Type
REMARK                         _______ _______ _______ _____ _____    ______ ____
ROOT
ATOM      1  C   UNL     1       1.751   7.342  19.888  0.00  0.00    +0.000 A 
ATOM      2  C   UNL     1       2.131   7.009  18.575  0.00  0.00    +0.000 A 
ATOM      3  C   UNL     1       2.304   5.676  18.202  0.00  0.00    +0.000 A 
ATOM      4  C   UNL     1       2.078   4.670  19.138  0.00  0.00    +0.000 A 
ATOM      5  C   UNL     1       1.706   4.993  20.447  0.00  0.00    +0.000 A 
ATOM      6  C   UNL     1       1.547   6.325  20.830  0.00  0.00    +0.000 A 
ENDROOT
BRANCH   1   8
ATOM      7  O   UNL     1       1.575   9.105  21.360  0.00  0.00    +0.000 OA
ATOM      8  C   UNL     1       1.479   8.772  20.184  0.00  0.00    +0.000 C 
ATOM      9  N   UNL     1       1.111   9.580  19.123  0.00  0.00    +0.000 N 
ATOM     10  H   UNL     1       0.883   9.145  18.234  0.00  0.00    +0.000 HD
BRANCH   9  11
ATOM     11  C   UNL     1       0.799  10.964  19.233  0.00  0.00    +0.000 A 
ATOM     12  C   UNL     1      -0.345  11.432  19.887  0.00  0.00    +0.000 A 
ATOM     13  C   UNL     1      -0.631  12.799  19.941  0.00  0.00    +0.000 A 
ATOM     14  C   UNL     1       0.232  13.721  19.353  0.00  0.00    +0.000 A 
ATOM     15  C   UNL     1       1.388  13.271  18.717  0.00  0.00    +0.000 A 
ATOM     16  C   UNL     1       1.666  11.903  18.669  0.00  0.00    +0.000 A 
ATOM     17  F   UNL     1       2.778  11.491  18.038  0.00  0.00    +0.000 F 
ENDBRANCH   9  11
ENDBRANCH   1   8
BRANCH   4  18
ATOM     18  N   UNL     1       2.224   3.300  18.792  0.00  0.00    +0.000 N 
ATOM     19  H   UNL     1       1.783   2.987  17.927  0.00  0.00    +0.000 HD
BRANCH  18  20
ATOM     20  S   UNL     1       3.741   2.579  18.977  0.00  0.00    +0.000 S 
ATOM     21  O   UNL     1       4.135   2.838  20.343  0.00  0.00    +0.000 OA
ATOM     22  O   UNL     1       3.690   1.227  18.464  0.00  0.00    +0.000 OA
BRANCH  20  23
ATOM     23  C   UNL     1       4.800   3.547  17.924  0.00  0.00    +0.000 A 
ATOM     24  C   UNL     1       5.826   4.319  18.476  0.00  0.00    +0.000 A 
ATOM     25  C   UNL     1       6.731   4.961  17.625  0.00  0.00    +0.000 A 
ATOM     26  C   UNL     1       6.615   4.827  16.237  0.00  0.00    +0.000 A 
ATOM     27  C   UNL     1       5.557   4.099  15.697  0.00  0.00    +0.000 A 
ATOM     28  C   UNL     1       4.655   3.445  16.536  0.00  0.00    +0.000 A 
ATOM     29  O   UNL     1       5.328   4.001  14.354  0.00  0.00    +0.000 OA
ATOM     30  C   UNL     1       6.524   4.175  13.599  0.00  0.00    +0.000 C 
ATOM     31  C   UNL     1       7.403   5.324  14.078  0.00  0.00    +0.000 C 
ATOM     32  O   UNL     1       7.597   5.408  15.491  0.00  0.00    +0.000 OA
ENDBRANCH  20  23
ENDBRANCH  18  20
ENDBRANCH   4  18
TORSDOF 5
ENDMDL
MODEL 7
REMARK VINA RESULT:      -8.5      4.831      6.908
REMARK  Name = 
REMARK  5 active torsions:
REMARK  status: ('A' for Active; 'I' for Inactive)
REMARK    1  A    between atoms: C_2  and  C_11
REMARK    2  A    between atoms: N_3  and  C_4
REMARK    3  A    between atoms: C_14  and  N_15
REMARK    4  A    between atoms: N_15  and  S_16
REMARK    5  A    between atoms: S_16  and  C_19
REMARK                            x       y       z     vdW  Elec       q    Type
REMARK                         _______ _______ _______ _____ _____    ______ ____
ROOT
ATOM      1  C   UNL     1       2.041   7.376  18.654  0.00  0.00    +0.000 A 
ATOM      2  C   UNL     1       1.902   6.436  17.616  0.00  0.00    +0.000 A 
ATOM      3  C   UNL     1       1.982   5.069  17.881  0.00  0.00    +0.000 A 
ATOM      4  C   UNL     1       2.181   4.637  19.190  0.00  0.00    +0.000 A 
ATOM      5  C   UNL     1       2.325   5.564  20.226  0.00  0.00    +0.000 A 
ATOM      6  C   UNL     1       2.263   6.934  19.965  0.00  0.00    +0.000 A 
ENDROOT
BRANCH   1   8
ATOM      7  O   UNL     1       2.456   9.225  17.344  0.00  0.00    +0.000 OA
ATOM      8  C   UNL     1       1.836   8.807  18.317  0.00  0.00    +0.000 C 
ATOM      9  N   UNL     1       1.003   9.541  19.144  0.00  0.00    +0.000 N 
ATOM     10  H   UNL     1       0.702   9.130  20.022  0.00  0.00    +0.000 HD
BRANCH   9  11
ATOM     11  C   UNL     1       0.713  10.924  18.976  0.00  0.00    +0.000 A 
ATOM     12  C   UNL     1       1.646  11.930  19.243  0.00  0.00    +0.000 A 
ATOM     13  C   UNL     1       1.308  13.279  19.097  0.00  0.00    +0.000 A 
ATOM     14  C   UNL     1       0.033  13.640  18.668  0.00  0.00    +0.000 A 
ATOM     15  C   UNL     1      -0.901  12.647  18.376  0.00  0.00    +0.000 A 
ATOM     16  C   UNL     1      -0.554  11.303  18.523  0.00  0.00    +0.000 A 
ATOM     17  F   UNL     1      -1.473  10.363  18.250  0.00  0.00    +0.000 F 
ENDBRANCH   9  11
ENDBRANCH   1   8
BRANCH   4  18
ATOM     18  N   UNL     1       2.247   3.253  19.503  0.00  0.00    +0.000 N 
ATOM     19  H   UNL     1       1.503   2.655  19.142  0.00  0.00    +0.000 HD
BRANCH  18  20
ATOM     20  S   UNL     1       3.742   2.472  19.391  0.00  0.00    +0.000 S 
ATOM     21  O   UNL     1       4.324   2.547  20.710  0.00  0.00    +0.000 OA
ATOM     22  O   UNL     1       3.563   1.197  18.730  0.00  0.00    +0.000 OA
BRANCH  20  23
ATOM     23  C   UNL     1       4.693   3.534  18.327  0.00  0.00    +0.000 A 
ATOM     24  C   UNL     1       5.579   4.468  18.873  0.00  0.00    +0.000 A 
ATOM     25  C   UNL     1       6.416   5.194  18.021  0.00  0.00    +0.000 A 
ATOM     26  C   UNL     1       6.374   4.985  16.638  0.00  0.00    +0.000 A 
ATOM     27  C   UNL     1       5.450   4.092  16.100  0.00  0.00    +0.000 A 
ATOM     28  C   UNL     1       4.617   3.353  16.941  0.00  0.00    +0.000 A 
ATOM     29  O   UNL     1       5.289   3.904  14.758  0.00  0.00    +0.000 OA
ATOM     30  C   UNL     1       6.477   4.214  14.034  0.00  0.00    +0.000 C 
ATOM     31  C   UNL     1       7.167   5.496  14.485  0.00  0.00    +0.000 C 
ATOM     32  O   UNL     1       7.292   5.667  15.897  0.00  0.00    +0.000 OA
ENDBRANCH  20  23
ENDBRANCH  18  20
ENDBRANCH   4  18
TORSDOF 5
ENDMDL
MODEL 8
REMARK VINA RESULT:      -8.5      4.729      7.140
REMARK  Name = 
REMARK  5 active torsions:
REMARK  status: ('A' for Active; 'I' for Inactive)
REMARK    1  A    between atoms: C_2  and  C_11
REMARK    2  A    between atoms: N_3  and  C_4
REMARK    3  A    between atoms: C_14  and  N_15
REMARK    4  A    between atoms: N_15  and  S_16
REMARK    5  A    between atoms: S_16  and  C_19
REMARK                            x       y       z     vdW  Elec       q    Type
REMARK                         _______ _______ _______ _____ _____    ______ ____
ROOT
ATOM      1  C   UNL     1       1.047   9.178  19.644  0.00  0.00    +0.000 A 
ATOM      2  C   UNL     1       0.586   8.756  20.905  0.00  0.00    +0.000 A 
ATOM      3  C   UNL     1       1.004   7.539  21.443  0.00  0.00    +0.000 A 
ATOM      4  C   UNL     1       1.901   6.749  20.728  0.00  0.00    +0.000 A 
ATOM      5  C   UNL     1       2.360   7.158  19.473  0.00  0.00    +0.000 A 
ATOM      6  C   UNL     1       1.932   8.367  18.922  0.00  0.00    +0.000 A 
ENDROOT
BRANCH   1   8
ATOM      7  O   UNL     1      -0.057  10.572  18.180  0.00  0.00    +0.000 OA
ATOM      8  C   UNL     1       0.647  10.532  19.184  0.00  0.00    +0.000 C 
ATOM      9  N   UNL     1       1.129  11.614  19.899  0.00  0.00    +0.000 N 
ATOM     10  H   UNL     1       1.854  11.456  20.593  0.00  0.00    +0.000 HD
BRANCH   9  11
ATOM     11  C   UNL     1       0.858  12.975  19.585  0.00  0.00    +0.000 A 
ATOM     12  C   UNL     1      -0.351  13.598  19.904  0.00  0.00    +0.000 A 
ATOM     13  C   UNL     1      -0.589  14.929  19.545  0.00  0.00    +0.000 A 
ATOM     14  C   UNL     1       0.388  15.660  18.873  0.00  0.00    +0.000 A 
ATOM     15  C   UNL     1       1.608  15.058  18.568  0.00  0.00    +0.000 A 
ATOM     16  C   UNL     1       1.837  13.729  18.931  0.00  0.00    +0.000 A 
ATOM     17  F   UNL     1       3.014  13.165  18.615  0.00  0.00    +0.000 F 
ENDBRANCH   9  11
ENDBRANCH   1   8
BRANCH   4  18
ATOM     18  N   UNL     1       2.367   5.513  21.252  0.00  0.00    +0.000 N 
ATOM     19  H   UNL     1       2.340   5.393  22.265  0.00  0.00    +0.000 HD
BRANCH  18  20
ATOM     20  S   UNL     1       1.906   4.084  20.475  0.00  0.00    +0.000 S 
ATOM     21  O   UNL     1       2.198   3.019  21.405  0.00  0.00    +0.000 OA
ATOM     22  O   UNL     1       0.575   4.249  19.929  0.00  0.00    +0.000 OA
BRANCH  20  23
ATOM     23  C   UNL     1       3.059   3.947  19.127  0.00  0.00    +0.000 A 
ATOM     24  C   UNL     1       2.599   3.703  17.829  0.00  0.00    +0.000 A 
ATOM     25  C   UNL     1       3.507   3.736  16.766  0.00  0.00    +0.000 A 
ATOM     26  C   UNL     1       4.858   4.015  16.997  0.00  0.00    +0.000 A 
ATOM     27  C   UNL     1       5.315   4.203  18.299  0.00  0.00    +0.000 A 
ATOM     28  C   UNL     1       4.418   4.184  19.367  0.00  0.00    +0.000 A 
ATOM     29  O   UNL     1       6.632   4.390  18.608  0.00  0.00    +0.000 OA
ATOM     30  C   UNL     1       7.357   4.950  17.517  0.00  0.00    +0.000 C 
ATOM     31  C   UNL     1       7.036   4.324  16.166  0.00  0.00    +0.000 C 
ATOM     32  O   UNL     1       5.650   4.121  15.891  0.00  0.00    +0.000 OA
ENDBRANCH  20  23
ENDBRANCH  18  20
ENDBRANCH   4  18
TORSDOF 5
ENDMDL
MODEL 9
REMARK VINA RESULT:      -8.5      4.700      7.330
REMARK  Name = 
REMARK  5 active torsions:
REMARK  status: ('A' for Active; 'I' for Inactive)
REMARK    1  A    between atoms: C_2  and  C_11
REMARK    2  A    between atoms: N_3  and  C_4
REMARK    3  A    between atoms: C_14  and  N_15
REMARK    4  A    between atoms: N_15  and  S_16
REMARK    5  A    between atoms: S_16  and  C_19
REMARK                            x       y       z     vdW  Elec       q    Type
REMARK                         _______ _______ _______ _____ _____    ______ ____
ROOT
ATOM      1  C   UNL     1       1.522   8.716  18.983  0.00  0.00    +0.000 A 
ATOM      2  C   UNL     1       1.365   8.059  20.217  0.00  0.00    +0.000 A 
ATOM      3  C   UNL     1       2.095   6.907  20.507  0.00  0.00    +0.000 A 
ATOM      4  C   UNL     1       3.000   6.418  19.568  0.00  0.00    +0.000 A 
ATOM      5  C   UNL     1       3.159   7.062  18.337  0.00  0.00    +0.000 A 
ATOM      6  C   UNL     1       2.419   8.206  18.035  0.00  0.00    +0.000 A 
ENDROOT
BRANCH   1   8
ATOM      7  O   UNL     1      -0.071   9.995  17.919  0.00  0.00    +0.000 OA
ATOM      8  C   UNL     1       0.795   9.996  18.787  0.00  0.00    +0.000 C 
ATOM      9  N   UNL     1       1.182  11.071  19.568  0.00  0.00    +0.000 N 
ATOM     10  H   UNL     1       2.036  10.996  20.113  0.00  0.00    +0.000 HD
BRANCH   9  11
ATOM     11  C   UNL     1       0.605  12.370  19.496  0.00  0.00    +0.000 A 
ATOM     12  C   UNL     1       1.176  13.411  18.759  0.00  0.00    +0.000 A 
ATOM     13  C   UNL     1       0.594  14.683  18.744  0.00  0.00    +0.000 A 
ATOM     14  C   UNL     1      -0.577  14.926  19.457  0.00  0.00    +0.000 A 
ATOM     15  C   UNL     1      -1.170  13.891  20.179  0.00  0.00    +0.000 A 
ATOM     16  C   UNL     1      -0.583  12.624  20.187  0.00  0.00    +0.000 A 
ATOM     17  F   UNL     1      -1.163  11.646  20.900  0.00  0.00    +0.000 F 
ENDBRANCH   9  11
ENDBRANCH   1   8
BRANCH   4  18
ATOM     18  N   UNL     1       3.778   5.259  19.834  0.00  0.00    +0.000 N 
ATOM     19  H   UNL     1       3.768   4.898  20.788  0.00  0.00    +0.000 HD
BRANCH  18  20
ATOM     20  S   UNL     1       3.738   3.989  18.719  0.00  0.00    +0.000 S 
ATOM     21  O   UNL     1       4.302   2.849  19.401  0.00  0.00    +0.000 OA
ATOM     22  O   UNL     1       2.419   3.921  18.125  0.00  0.00    +0.000 OA
BRANCH  20  23
ATOM     23  C   UNL     1       4.898   4.491  17.467  0.00  0.00    +0.000 A 
ATOM     24  C   UNL     1       6.098   5.112  17.827  0.00  0.00    +0.000 A 
ATOM     25  C   UNL     1       7.055   5.372  16.841  0.00  0.00    +0.000 A 
ATOM     26  C   UNL     1       6.818   5.009  15.511  0.00  0.00    +0.000 A 
ATOM     27  C   UNL     1       5.598   4.440  15.154  0.00  0.00    +0.000 A 
ATOM     28  C   UNL     1       4.640   4.165  16.130  0.00  0.00    +0.000 A 
ATOM     29  O   UNL     1       5.262   4.144  13.864  0.00  0.00    +0.000 OA
ATOM     30  C   UNL     1       6.413   3.911  13.057  0.00  0.00    +0.000 C 
ATOM     31  C   UNL     1       7.542   4.912  13.276  0.00  0.00    +0.000 C 
ATOM     32  O   UNL     1       7.846   5.214  14.638  0.00  0.00    +0.000 OA
ENDBRANCH  20  23
ENDBRANCH  18  20
ENDBRANCH   4  18
TORSDOF 5
ENDMDL
