MODEL 1
REMARK VINA RESULT:      -8.6      0.000      0.000
REMARK  Name = 
REMARK  3 active torsions:
REMARK  status: ('A' for Active; 'I' for Inactive)
REMARK    1  A    between atoms: C_1  and  C_2
REMARK    2  A    between atoms: C_7  and  C_8
REMARK    3  A    between atoms: C_13  and  C_14
REMARK                            x       y       z     vdW  Elec       q    Type
REMARK                         _______ _______ _______ _____ _____    ______ ____
ROOT
ATOM      1  C   UNL     1       1.874   6.249  20.297  0.00  0.00    +0.000 C 
ATOM      2  O   UNL     1       1.491   5.527  21.220  0.00  0.00    +0.000 OA
ATOM      3  N   UNL     1       1.581   7.612  20.257  0.00  0.00    +0.000 N 
ATOM      4  C   UNL     1       1.094   8.257  21.475  0.00  0.00    +0.000 C 
ATOM      5  C   UNL     1      -0.140   9.113  21.193  0.00  0.00    +0.000 C 
ATOM      6  C   UNL     1       0.096  10.127  20.070  0.00  0.00    +0.000 C 
ATOM      7  C   UNL     1       0.683   9.434  18.839  0.00  0.00    +0.000 C 
ATOM      8  C   UNL     1       1.868   8.530  19.153  0.00  0.00    +0.000 C 
ENDROOT
BRANCH   1  15
ATOM      9  C   UNL     1       6.942   4.535  14.426  0.00  0.00    +0.000 C 
ATOM     10  C   UNL     1       6.115   4.978  15.596  0.00  0.00    +0.000 A 
ATOM     11  C   UNL     1       6.533   6.045  16.403  0.00  0.00    +0.000 A 
ATOM     12  C   UNL     1       5.793   6.410  17.527  0.00  0.00    +0.000 A 
ATOM     13  C   UNL     1       4.627   5.716  17.841  0.00  0.00    +0.000 A 
ATOM     14  O   UNL     1       3.980   6.078  18.988  0.00  0.00    +0.000 OA
ATOM     15  C   UNL     1       2.683   5.641  19.179  0.00  0.00    +0.000 A 
ATOM     16  C   UNL     1       2.121   4.657  18.461  0.00  0.00    +0.000 A 
ATOM     17  C   UNL     1       2.885   4.056  17.350  0.00  0.00    +0.000 A 
ATOM     18  O   UNL     1       2.447   3.111  16.713  0.00  0.00    +0.000 OA
ATOM     19  C   UNL     1       4.172   4.694  17.019  0.00  0.00    +0.000 A 
ATOM     20  C   UNL     1       4.916   4.312  15.901  0.00  0.00    +0.000 A 
ENDBRANCH   1  15
BRANCH   6  21
ATOM     21  C   UNL     1       0.997  11.301  20.478  0.00  0.00    +0.000 C 
ATOM     22  O   UNL     1       1.729  11.216  21.466  0.00  0.00    +0.000 OA
ATOM     23  N   UNL     1       0.996  12.438  19.676  0.00  0.00    +0.000 N 
ATOM     24  C   UNL     1       2.098  13.383  19.849  0.00  0.00    +0.000 C 
ATOM     25  C   UNL     1       1.737  14.519  20.798  0.00  0.00    +0.000 C 
ATOM     26  C   UNL     1       0.824  15.576  20.176  0.00  0.00    +0.000 C 
ATOM     27  C   UNL     1      -0.481  15.034  19.591  0.00  0.00    +0.000 C 
ATOM     28  C   UNL     1      -0.267  14.181  18.342  0.00  0.00    +0.000 C 
ATOM     29  C   UNL     1      -0.000  12.706  18.643  0.00  0.00    +0.000 C 
ENDBRANCH   6  21
TORSDOF 2
ENDMDL
MODEL 2
REMARK VINA RESULT:      -8.4      1.112      1.252
REMARK  Name = 
REMARK  3 active torsions:
REMARK  status: ('A' for Active; 'I' for Inactive)
REMARK    1  A    between atoms: C_1  and  C_2
REMARK    2  A    between atoms: C_7  and  C_8
REMARK    3  A    between atoms: C_13  and  C_14
REMARK                            x       y       z     vdW  Elec       q    Type
REMARK                         _______ _______ _______ _____ _____    ______ ____
ROOT
ATOM      1  C   UNL     1       1.888   6.899  20.048  0.00  0.00    +0.000 C 
ATOM      2  O   UNL     1       1.592   6.376  21.125  0.00  0.00    +0.000 OA
ATOM      3  N   UNL     1       1.536   8.216  19.748  0.00  0.00    +0.000 N 
ATOM      4  C   UNL     1       1.096   9.086  20.837  0.00  0.00    +0.000 C 
ATOM      5  C   UNL     1      -0.188   9.828  20.469  0.00  0.00    +0.000 C 
ATOM      6  C   UNL     1      -0.064  10.592  19.147  0.00  0.00    +0.000 C 
ATOM      7  C   UNL     1       0.476   9.674  18.049  0.00  0.00    +0.000 C 
ATOM      8  C   UNL     1       1.716   8.891  18.462  0.00  0.00    +0.000 C 
ENDROOT
BRANCH   1  15
ATOM      9  C   UNL     1       6.755   4.114  14.424  0.00  0.00    +0.000 C 
ATOM     10  C   UNL     1       5.970   4.764  15.523  0.00  0.00    +0.000 A 
ATOM     11  C   UNL     1       6.432   5.939  16.132  0.00  0.00    +0.000 A 
ATOM     12  C   UNL     1       5.731   6.504  17.197  0.00  0.00    +0.000 A 
ATOM     13  C   UNL     1       4.561   5.899  17.650  0.00  0.00    +0.000 A 
ATOM     14  O   UNL     1       3.953   6.463  18.736  0.00  0.00    +0.000 OA
ATOM     15  C   UNL     1       2.653   6.095  19.028  0.00  0.00    +0.000 A 
ATOM     16  C   UNL     1       2.051   5.020  18.497  0.00  0.00    +0.000 A 
ATOM     17  C   UNL     1       2.772   4.225  17.483  0.00  0.00    +0.000 A 
ATOM     18  O   UNL     1       2.297   3.199  17.022  0.00  0.00    +0.000 OA
ATOM     19  C   UNL     1       4.062   4.768  17.020  0.00  0.00    +0.000 A 
ATOM     20  C   UNL     1       4.767   4.187  15.963  0.00  0.00    +0.000 A 
ENDBRANCH   1  15
BRANCH   6  21
ATOM     21  C   UNL     1       0.810  11.851  19.241  0.00  0.00    +0.000 C 
ATOM     22  O   UNL     1       1.986  11.827  18.874  0.00  0.00    +0.000 OA
ATOM     23  N   UNL     1       0.223  13.023  19.706  0.00  0.00    +0.000 N 
ATOM     24  C   UNL     1       0.932  14.276  19.453  0.00  0.00    +0.000 C 
ATOM     25  C   UNL     1       1.799  14.695  20.634  0.00  0.00    +0.000 C 
ATOM     26  C   UNL     1       1.008  15.287  21.800  0.00  0.00    +0.000 C 
ATOM     27  C   UNL     1      -0.105  14.390  22.343  0.00  0.00    +0.000 C 
ATOM     28  C   UNL     1      -1.267  14.222  21.366  0.00  0.00    +0.000 C 
ATOM     29  C   UNL     1      -1.075  13.076  20.373  0.00  0.00    +0.000 C 
ENDBRANCH   6  21
TORSDOF 2
ENDMDL
MODEL 3
REMARK VINA RESULT:      -7.2      2.394      3.557
REMARK  Name = 
REMARK  3 active torsions:
REMARK  status: ('A' for Active; 'I' for Inactive)
REMARK    1  A    between atoms: C_1  and  C_2
REMARK    2  A    between atoms: C_7  and  C_8
REMARK    3  A    between atoms: C_13  and  C_14
REMARK                            x       y       z     vdW  Elec       q    Type
REMARK                         _______ _______ _______ _____ _____    ______ ____
ROOT
ATOM      1  C   UNL     1       1.166   8.801  21.303  0.00  0.00    +0.000 C 
ATOM      2  O   UNL     1       1.275   8.728  22.528  0.00  0.00    +0.000 OA
ATOM      3  N   UNL     1       0.659   9.939  20.674  0.00  0.00    +0.000 N 
ATOM      4  C   UNL     1       0.557  11.175  21.447  0.00  0.00    +0.000 C 
ATOM      5  C   UNL     1      -0.817  11.822  21.278  0.00  0.00    +0.000 C 
ATOM      6  C   UNL     1      -1.183  12.041  19.807  0.00  0.00    +0.000 C 
ATOM      7  C   UNL     1      -0.986  10.750  19.010  0.00  0.00    +0.000 C 
ATOM      8  C   UNL     1       0.363  10.084  19.248  0.00  0.00    +0.000 C 
ENDROOT
BRANCH   1  15
ATOM      9  C   UNL     1       3.211   1.741  18.292  0.00  0.00    +0.000 C 
ATOM     10  C   UNL     1       2.724   2.979  18.985  0.00  0.00    +0.000 A 
ATOM     11  C   UNL     1       1.992   2.889  20.177  0.00  0.00    +0.000 A 
ATOM     12  C   UNL     1       1.487   4.038  20.782  0.00  0.00    +0.000 A 
ATOM     13  C   UNL     1       1.721   5.283  20.202  0.00  0.00    +0.000 A 
ATOM     14  O   UNL     1       1.148   6.366  20.807  0.00  0.00    +0.000 OA
ATOM     15  C   UNL     1       1.594   7.627  20.458  0.00  0.00    +0.000 A 
ATOM     16  C   UNL     1       2.339   7.874  19.370  0.00  0.00    +0.000 A 
ATOM     17  C   UNL     1       2.784   6.740  18.536  0.00  0.00    +0.000 A 
ATOM     18  O   UNL     1       3.403   6.918  17.499  0.00  0.00    +0.000 OA
ATOM     19  C   UNL     1       2.492   5.391  19.054  0.00  0.00    +0.000 A 
ATOM     20  C   UNL     1       2.988   4.243  18.432  0.00  0.00    +0.000 A 
ENDBRANCH   1  15
BRANCH   6  21
ATOM     21  C   UNL     1      -0.402  13.181  19.139  0.00  0.00    +0.000 C 
ATOM     22  O   UNL     1       0.458  12.939  18.289  0.00  0.00    +0.000 OA
ATOM     23  N   UNL     1      -0.725  14.489  19.485  0.00  0.00    +0.000 N 
ATOM     24  C   UNL     1      -0.254  15.555  18.603  0.00  0.00    +0.000 C 
ATOM     25  C   UNL     1       1.060  16.159  19.082  0.00  0.00    +0.000 C 
ATOM     26  C   UNL     1       0.905  17.106  20.272  0.00  0.00    +0.000 C 
ATOM     27  C   UNL     1       0.207  16.499  21.490  0.00  0.00    +0.000 C 
ATOM     28  C   UNL     1      -1.276  16.219  21.251  0.00  0.00    +0.000 C 
ATOM     29  C   UNL     1      -1.551  14.847  20.635  0.00  0.00    +0.000 C 
ENDBRANCH   6  21
TORSDOF 2
ENDMDL
MODEL 4
REMARK VINA RESULT:      -7.1      2.656      8.950
REMARK  Name = 
REMARK  3 active torsions:
REMARK  status: ('A' for Active; 'I' for Inactive)
REMARK    1  A    between atoms: C_1  and  C_2
REMARK    2  A    between atoms: C_7  and  C_8
REMARK    3  A    between atoms: C_13  and  C_14
REMARK                            x       y       z     vdW  Elec       q    Type
REMARK                         _______ _______ _______ _____ _____    ______ ____
ROOT
ATOM      1  C   UNL     1       1.216   9.660  19.005  0.00  0.00    +0.000 C 
ATOM      2  O   UNL     1       1.281  10.402  18.023  0.00  0.00    +0.000 OA
ATOM      3  N   UNL     1       1.882   8.435  19.049  0.00  0.00    +0.000 N 
ATOM      4  C   UNL     1       2.926   8.173  18.059  0.00  0.00    +0.000 C 
ATOM      5  C   UNL     1       2.749   6.797  17.419  0.00  0.00    +0.000 C 
ATOM      6  C   UNL     1       2.659   5.676  18.459  0.00  0.00    +0.000 C 
ATOM      7  C   UNL     1       1.617   6.019  19.525  0.00  0.00    +0.000 C 
ATOM      8  C   UNL     1       1.769   7.422  20.099  0.00  0.00    +0.000 C 
ENDROOT
BRANCH   1  15
ATOM      9  C   UNL     1      -3.624  13.169  24.235  0.00  0.00    +0.000 C 
ATOM     10  C   UNL     1      -2.818  12.581  23.116  0.00  0.00    +0.000 A 
ATOM     11  C   UNL     1      -3.078  12.938  21.785  0.00  0.00    +0.000 A 
ATOM     12  C   UNL     1      -2.369  12.340  20.744  0.00  0.00    +0.000 A 
ATOM     13  C   UNL     1      -1.391  11.390  21.031  0.00  0.00    +0.000 A 
ATOM     14  O   UNL     1      -0.775  10.794  19.967  0.00  0.00    +0.000 OA
ATOM     15  C   UNL     1       0.391  10.088  20.193  0.00  0.00    +0.000 A 
ATOM     16  C   UNL     1       0.801   9.707  21.412  0.00  0.00    +0.000 A 
ATOM     17  C   UNL     1       0.021  10.127  22.593  0.00  0.00    +0.000 A 
ATOM     18  O   UNL     1       0.312   9.748  23.716  0.00  0.00    +0.000 OA
ATOM     19  C   UNL     1      -1.085  11.070  22.346  0.00  0.00    +0.000 A 
ATOM     20  C   UNL     1      -1.802  11.652  23.394  0.00  0.00    +0.000 A 
ENDBRANCH   1  15
BRANCH   6  21
ATOM     21  C   UNL     1       3.998   5.351  19.134  0.00  0.00    +0.000 C 
ATOM     22  O   UNL     1       4.048   5.096  20.339  0.00  0.00    +0.000 OA
ATOM     23  N   UNL     1       5.140   5.307  18.341  0.00  0.00    +0.000 N 
ATOM     24  C   UNL     1       6.322   4.652  18.898  0.00  0.00    +0.000 C 
ATOM     25  C   UNL     1       7.277   5.646  19.548  0.00  0.00    +0.000 C 
ATOM     26  C   UNL     1       8.101   6.454  18.546  0.00  0.00    +0.000 C 
ATOM     27  C   UNL     1       7.280   7.219  17.507  0.00  0.00    +0.000 C 
ATOM     28  C   UNL     1       6.577   6.301  16.508  0.00  0.00    +0.000 C 
ATOM     29  C   UNL     1       5.203   5.821  16.975  0.00  0.00    +0.000 C 
ENDBRANCH   6  21
TORSDOF 2
ENDMDL
MODEL 5
REMARK VINA RESULT:      -7.0      6.474     10.338
REMARK  Name = 
REMARK  3 active torsions:
REMARK  status: ('A' for Active; 'I' for Inactive)
REMARK    1  A    between atoms: C_1  and  C_2
REMARK    2  A    between atoms: C_7  and  C_8
REMARK    3  A    between atoms: C_13  and  C_14
REMARK                            x       y       z     vdW  Elec       q    Type
REMARK                         _______ _______ _______ _____ _____    ______ ____
ROOT
ATOM      1  C   UNL     1       4.179  16.919  19.783  0.00  0.00    +0.000 C 
ATOM      2  O   UNL     1       4.154  18.105  20.120  0.00  0.00    +0.000 OA
ATOM      3  N   UNL     1       5.378  16.220  19.636  0.00  0.00    +0.000 N 
ATOM      4  C   UNL     1       6.597  16.802  20.196  0.00  0.00    +0.000 C 
ATOM      5  C   UNL     1       7.741  16.773  19.182  0.00  0.00    +0.000 C 
ATOM      6  C   UNL     1       7.987  15.370  18.619  0.00  0.00    +0.000 C 
ATOM      7  C   UNL     1       6.679  14.758  18.117  0.00  0.00    +0.000 C 
ATOM      8  C   UNL     1       5.533  14.861  19.117  0.00  0.00    +0.000 C 
ENDROOT
BRANCH   1  15
ATOM      9  C   UNL     1      -1.713  11.753  18.488  0.00  0.00    +0.000 C 
ATOM     10  C   UNL     1      -0.514  12.590  18.822  0.00  0.00    +0.000 A 
ATOM     11  C   UNL     1       0.621  12.010  19.407  0.00  0.00    +0.000 A 
ATOM     12  C   UNL     1       1.707  12.803  19.774  0.00  0.00    +0.000 A 
ATOM     13  C   UNL     1       1.665  14.177  19.549  0.00  0.00    +0.000 A 
ATOM     14  O   UNL     1       2.733  14.909  19.987  0.00  0.00    +0.000 OA
ATOM     15  C   UNL     1       2.878  16.203  19.524  0.00  0.00    +0.000 A 
ATOM     16  C   UNL     1       1.900  16.882  18.906  0.00  0.00    +0.000 A 
ATOM     17  C   UNL     1       0.622  16.198  18.625  0.00  0.00    +0.000 A 
ATOM     18  O   UNL     1      -0.322  16.793  18.130  0.00  0.00    +0.000 OA
ATOM     19  C   UNL     1       0.572  14.755  18.920  0.00  0.00    +0.000 A 
ATOM     20  C   UNL     1      -0.527  13.970  18.564  0.00  0.00    +0.000 A 
ENDBRANCH   1  15
BRANCH   6  21
ATOM     21  C   UNL     1       8.654  14.413  19.617  0.00  0.00    +0.000 C 
ATOM     22  O   UNL     1       8.646  14.660  20.824  0.00  0.00    +0.000 OA
ATOM     23  N   UNL     1       9.221  13.242  19.124  0.00  0.00    +0.000 N 
ATOM     24  C   UNL     1       9.519  12.183  20.086  0.00  0.00    +0.000 C 
ATOM     25  C   UNL     1      10.965  12.230  20.563  0.00  0.00    +0.000 C 
ATOM     26  C   UNL     1      11.969  11.693  19.543  0.00  0.00    +0.000 C 
ATOM     27  C   UNL     1      11.916  12.368  18.172  0.00  0.00    +0.000 C 
ATOM     28  C   UNL     1      10.638  12.049  17.397  0.00  0.00    +0.000 C 
ATOM     29  C   UNL     1       9.478  12.994  17.708  0.00  0.00    +0.000 C 
ENDBRANCH   6  21
TORSDOF 2
ENDMDL
MODEL 6
REMARK VINA RESULT:      -6.9      3.210      4.517
REMARK  Name = 
REMARK  3 active torsions:
REMARK  status: ('A' for Active; 'I' for Inactive)
REMARK    1  A    between atoms: C_1  and  C_2
REMARK    2  A    between atoms: C_7  and  C_8
REMARK    3  A    between atoms: C_13  and  C_14
REMARK                            x       y       z     vdW  Elec       q    Type
REMARK                         _______ _______ _______ _____ _____    ______ ____
ROOT
ATOM      1  C   UNL     1      -0.146   9.164  21.634  0.00  0.00    +0.000 C 
ATOM      2  O   UNL     1      -0.637   8.337  22.405  0.00  0.00    +0.000 OA
ATOM      3  N   UNL     1      -0.385  10.532  21.772  0.00  0.00    +0.000 N 
ATOM      4  C   UNL     1      -0.958  11.017  23.027  0.00  0.00    +0.000 C 
ATOM      5  C   UNL     1      -2.130  11.964  22.771  0.00  0.00    +0.000 C 
ATOM      6  C   UNL     1      -1.757  13.117  21.834  0.00  0.00    +0.000 C 
ATOM      7  C   UNL     1      -1.086  12.581  20.569  0.00  0.00    +0.000 C 
ATOM      8  C   UNL     1       0.034  11.585  20.845  0.00  0.00    +0.000 C 
ENDROOT
BRANCH   1  15
ATOM      9  C   UNL     1       5.200   5.659  16.921  0.00  0.00    +0.000 C 
ATOM     10  C   UNL     1       4.200   6.168  17.916  0.00  0.00    +0.000 A 
ATOM     11  C   UNL     1       3.947   5.459  19.099  0.00  0.00    +0.000 A 
ATOM     12  C   UNL     1       2.970   5.902  19.990  0.00  0.00    +0.000 A 
ATOM     13  C   UNL     1       2.250   7.060  19.704  0.00  0.00    +0.000 A 
ATOM     14  O   UNL     1       1.263   7.409  20.583  0.00  0.00    +0.000 OA
ATOM     15  C   UNL     1       0.739   8.685  20.512  0.00  0.00    +0.000 A 
ATOM     16  C   UNL     1       0.925   9.504  19.465  0.00  0.00    +0.000 A 
ATOM     17  C   UNL     1       1.801   9.066  18.360  0.00  0.00    +0.000 A 
ATOM     18  O   UNL     1       1.945   9.743  17.355  0.00  0.00    +0.000 OA
ATOM     19  C   UNL     1       2.530   7.801  18.565  0.00  0.00    +0.000 A 
ATOM     20  C   UNL     1       3.495   7.355  17.660  0.00  0.00    +0.000 A 
ENDBRANCH   1  15
BRANCH   6  21
ATOM     21  C   UNL     1      -0.855  14.175  22.486  0.00  0.00    +0.000 C 
ATOM     22  O   UNL     1       0.351  13.968  22.630  0.00  0.00    +0.000 OA
ATOM     23  N   UNL     1      -1.430  15.384  22.863  0.00  0.00    +0.000 N 
ATOM     24  C   UNL     1      -0.527  16.501  23.135  0.00  0.00    +0.000 C 
ATOM     25  C   UNL     1      -0.204  16.631  24.618  0.00  0.00    +0.000 C 
ATOM     26  C   UNL     1      -1.336  17.243  25.444  0.00  0.00    +0.000 C 
ATOM     27  C   UNL     1      -2.679  16.521  25.328  0.00  0.00    +0.000 C 
ATOM     28  C   UNL     1      -3.321  16.671  23.949  0.00  0.00    +0.000 C 
ATOM     29  C   UNL     1      -2.870  15.613  22.943  0.00  0.00    +0.000 C 
ENDBRANCH   6  21
TORSDOF 2
ENDMDL
MODEL 7
REMARK VINA RESULT:      -6.8      1.821      2.849
REMARK  Name = 
REMARK  3 active torsions:
REMARK  status: ('A' for Active; 'I' for Inactive)
REMARK    1  A    between atoms: C_1  and  C_2
REMARK    2  A    between atoms: C_7  and  C_8
REMARK    3  A    between atoms: C_13  and  C_14
REMARK                            x       y       z     vdW  Elec       q    Type
REMARK                         _______ _______ _______ _____ _____    ______ ____
ROOT
ATOM      1  C   UNL     1       0.143   8.604  21.229  0.00  0.00    +0.000 C 
ATOM      2  O   UNL     1      -0.719   8.135  21.975  0.00  0.00    +0.000 OA
ATOM      3  N   UNL     1       0.212   9.970  20.950  0.00  0.00    +0.000 N 
ATOM      4  C   UNL     1      -0.539  10.893  21.799  0.00  0.00    +0.000 C 
ATOM      5  C   UNL     1      -1.338  11.890  20.960  0.00  0.00    +0.000 C 
ATOM      6  C   UNL     1      -0.464  12.634  19.946  0.00  0.00    +0.000 C 
ATOM      7  C   UNL     1       0.370  11.644  19.131  0.00  0.00    +0.000 C 
ATOM      8  C   UNL     1       1.102  10.615  19.983  0.00  0.00    +0.000 C 
ENDROOT
BRANCH   1  15
ATOM      9  C   UNL     1       5.250   4.709  16.557  0.00  0.00    +0.000 C 
ATOM     10  C   UNL     1       4.322   5.594  17.334  0.00  0.00    +0.000 A 
ATOM     11  C   UNL     1       4.046   6.897  16.898  0.00  0.00    +0.000 A 
ATOM     12  C   UNL     1       3.234   7.737  17.658  0.00  0.00    +0.000 A 
ATOM     13  C   UNL     1       2.689   7.274  18.853  0.00  0.00    +0.000 A 
ATOM     14  O   UNL     1       1.954   8.163  19.585  0.00  0.00    +0.000 OA
ATOM     15  C   UNL     1       1.152   7.677  20.600  0.00  0.00    +0.000 A 
ATOM     16  C   UNL     1       1.264   6.437  21.102  0.00  0.00    +0.000 A 
ATOM     17  C   UNL     1       2.232   5.504  20.493  0.00  0.00    +0.000 A 
ATOM     18  O   UNL     1       2.421   4.391  20.956  0.00  0.00    +0.000 OA
ATOM     19  C   UNL     1       2.908   5.968  19.268  0.00  0.00    +0.000 A 
ATOM     20  C   UNL     1       3.733   5.125  18.520  0.00  0.00    +0.000 A 
ENDBRANCH   1  15
BRANCH   6  21
ATOM     21  C   UNL     1       0.459  13.684  20.579  0.00  0.00    +0.000 C 
ATOM     22  O   UNL     1       1.039  13.451  21.642  0.00  0.00    +0.000 OA
ATOM     23  N   UNL     1       0.657  14.881  19.898  0.00  0.00    +0.000 N 
ATOM     24  C   UNL     1       1.793  15.706  20.303  0.00  0.00    +0.000 C 
ATOM     25  C   UNL     1       1.393  16.784  21.302  0.00  0.00    +0.000 C 
ATOM     26  C   UNL     1       0.659  17.968  20.671  0.00  0.00    +0.000 C 
ATOM     27  C   UNL     1      -0.590  17.596  19.870  0.00  0.00    +0.000 C 
ATOM     28  C   UNL     1      -0.271  16.836  18.583  0.00  0.00    +0.000 C 
ATOM     29  C   UNL     1      -0.163  15.324  18.773  0.00  0.00    +0.000 C 
ENDBRANCH   6  21
TORSDOF 2
ENDMDL
MODEL 8
REMARK VINA RESULT:      -6.8      5.397      8.946
REMARK  Name = 
REMARK  3 active torsions:
REMARK  status: ('A' for Active; 'I' for Inactive)
REMARK    1  A    between atoms: C_1  and  C_2
REMARK    2  A    between atoms: C_7  and  C_8
REMARK    3  A    between atoms: C_13  and  C_14
REMARK                            x       y       z     vdW  Elec       q    Type
REMARK                         _______ _______ _______ _____ _____    ______ ____
ROOT
ATOM      1  C   UNL     1       3.010  14.269  21.154  0.00  0.00    +0.000 C 
ATOM      2  O   UNL     1       3.064  14.548  22.354  0.00  0.00    +0.000 OA
ATOM      3  N   UNL     1       4.082  14.506  20.293  0.00  0.00    +0.000 N 
ATOM      4  C   UNL     1       5.393  14.787  20.874  0.00  0.00    +0.000 C 
ATOM      5  C   UNL     1       6.036  16.012  20.223  0.00  0.00    +0.000 C 
ATOM      6  C   UNL     1       6.104  15.895  18.697  0.00  0.00    +0.000 C 
ATOM      7  C   UNL     1       4.735  15.519  18.129  0.00  0.00    +0.000 C 
ATOM      8  C   UNL     1       4.080  14.340  18.839  0.00  0.00    +0.000 C 
ENDROOT
BRANCH   1  15
ATOM      9  C   UNL     1      -2.558   9.994  17.439  0.00  0.00    +0.000 C 
ATOM     10  C   UNL     1      -1.399  10.651  18.127  0.00  0.00    +0.000 A 
ATOM     11  C   UNL     1      -0.155  10.008  18.200  0.00  0.00    +0.000 A 
ATOM     12  C   UNL     1       0.901  10.593  18.897  0.00  0.00    +0.000 A 
ATOM     13  C   UNL     1       0.719  11.828  19.515  0.00  0.00    +0.000 A 
ATOM     14  O   UNL     1       1.770  12.322  20.235  0.00  0.00    +0.000 OA
ATOM     15  C   UNL     1       1.749  13.654  20.602  0.00  0.00    +0.000 A 
ATOM     16  C   UNL     1       0.647  14.418  20.551  0.00  0.00    +0.000 A 
ATOM     17  C   UNL     1      -0.596  13.845  19.998  0.00  0.00    +0.000 A 
ATOM     18  O   UNL     1      -1.641  14.476  19.996  0.00  0.00    +0.000 OA
ATOM     19  C   UNL     1      -0.490  12.501  19.402  0.00  0.00    +0.000 A 
ATOM     20  C   UNL     1      -1.557  11.914  18.720  0.00  0.00    +0.000 A 
ENDBRANCH   1  15
BRANCH   6  21
ATOM     21  C   UNL     1       7.158  14.895  18.201  0.00  0.00    +0.000 C 
ATOM     22  O   UNL     1       6.841  13.966  17.455  0.00  0.00    +0.000 OA
ATOM     23  N   UNL     1       8.482  15.097  18.577  0.00  0.00    +0.000 N 
ATOM     24  C   UNL     1       9.512  14.383  17.825  0.00  0.00    +0.000 C 
ATOM     25  C   UNL     1       9.919  13.080  18.501  0.00  0.00    +0.000 C 
ATOM     26  C   UNL     1      10.829  13.273  19.714  0.00  0.00    +0.000 C 
ATOM     27  C   UNL     1      10.270  14.198  20.797  0.00  0.00    +0.000 C 
ATOM     28  C   UNL     1      10.196  15.659  20.355  0.00  0.00    +0.000 C 
ATOM     29  C   UNL     1       8.898  16.018  19.632  0.00  0.00    +0.000 C 
ENDBRANCH   6  21
TORSDOF 2
ENDMDL
MODEL 9
REMARK VINA RESULT:      -6.7      2.681      4.005
REMARK  Name = 
REMARK  3 active torsions:
REMARK  status: ('A' for Active; 'I' for Inactive)
REMARK    1  A    between atoms: C_1  and  C_2
REMARK    2  A    between atoms: C_7  and  C_8
REMARK    3  A    between atoms: C_13  and  C_14
REMARK                            x       y       z     vdW  Elec       q    Type
REMARK                         _______ _______ _______ _____ _____    ______ ____
ROOT
ATOM      1  C   UNL     1       2.063   9.138  18.284  0.00  0.00    +0.000 C 
ATOM      2  O   UNL     1       2.554   9.596  17.250  0.00  0.00    +0.000 OA
ATOM      3  N   UNL     1       1.258   9.909  19.123  0.00  0.00    +0.000 N 
ATOM      4  C   UNL     1       0.727  11.172  18.611  0.00  0.00    +0.000 C 
ATOM      5  C   UNL     1       0.943  12.308  19.610  0.00  0.00    +0.000 C 
ATOM      6  C   UNL     1       0.388  11.980  20.999  0.00  0.00    +0.000 C 
ATOM      7  C   UNL     1       0.897  10.616  21.469  0.00  0.00    +0.000 C 
ATOM      8  C   UNL     1       0.736   9.512  20.431  0.00  0.00    +0.000 C 
ENDROOT
BRANCH   1  15
ATOM      9  C   UNL     1       3.752   1.382  18.556  0.00  0.00    +0.000 C 
ATOM     10  C   UNL     1       3.534   2.851  18.348  0.00  0.00    +0.000 A 
ATOM     11  C   UNL     1       3.965   3.477  17.170  0.00  0.00    +0.000 A 
ATOM     12  C   UNL     1       3.818   4.854  17.010  0.00  0.00    +0.000 A 
ATOM     13  C   UNL     1       3.231   5.607  18.023  0.00  0.00    +0.000 A 
ATOM     14  O   UNL     1       3.172   6.960  17.835  0.00  0.00    +0.000 OA
ATOM     15  C   UNL     1       2.340   7.702  18.652  0.00  0.00    +0.000 A 
ATOM     16  C   UNL     1       1.813   7.233  19.793  0.00  0.00    +0.000 A 
ATOM     17  C   UNL     1       2.055   5.826  20.168  0.00  0.00    +0.000 A 
ATOM     18  O   UNL     1       1.656   5.372  21.229  0.00  0.00    +0.000 OA
ATOM     19  C   UNL     1       2.749   4.992  19.170  0.00  0.00    +0.000 A 
ATOM     20  C   UNL     1       2.907   3.616  19.345  0.00  0.00    +0.000 A 
ENDBRANCH   1  15
BRANCH   6  21
ATOM     21  C   UNL     1      -1.145  12.010  21.074  0.00  0.00    +0.000 C 
ATOM     22  O   UNL     1      -1.827  11.514  20.175  0.00  0.00    +0.000 OA
ATOM     23  N   UNL     1      -1.736  12.568  22.203  0.00  0.00    +0.000 N 
ATOM     24  C   UNL     1      -3.148  12.272  22.439  0.00  0.00    +0.000 C 
ATOM     25  C   UNL     1      -4.063  13.360  21.892  0.00  0.00    +0.000 C 
ATOM     26  C   UNL     1      -4.103  14.622  22.753  0.00  0.00    +0.000 C 
ATOM     27  C   UNL     1      -2.740  15.261  23.022  0.00  0.00    +0.000 C 
ATOM     28  C   UNL     1      -1.852  14.414  23.933  0.00  0.00    +0.000 C 
ATOM     29  C   UNL     1      -1.017  13.376  23.184  0.00  0.00    +0.000 C 
ENDBRANCH   6  21
TORSDOF 2
ENDMDL
