MODEL 1
REMARK VINA RESULT:      -9.7      0.000      0.000
REMARK  Name = 
REMARK  4 active torsions:
REMARK  status: ('A' for Active; 'I' for Inactive)
REMARK    1  A    between atoms: C_1  and  C_2
REMARK    2  A    between atoms: C_4  and  C_5
REMARK    3  A    between atoms: C_5  and  N_6
REMARK    4  A    between atoms: C_13  and  C_14
REMARK                            x       y       z     vdW  Elec       q    Type
REMARK                         _______ _______ _______ _____ _____    ______ ____
ROOT
ATOM      1  N   UNL     1       5.322   5.268  17.462  0.00  0.00    +0.000 N 
ATOM      2  C   UNL     1       4.530   6.276  17.932  0.00  0.00    +0.000 C 
ATOM      3  O   UNL     1       4.887   7.448  17.963  0.00  0.00    +0.000 OA
ATOM      4  N   UNL     1       3.308   5.859  18.399  0.00  0.00    +0.000 N 
ATOM      5  C   UNL     1       2.433   6.813  18.963  0.00  0.00    +0.000 A 
ATOM      6  C   UNL     1       2.230   8.051  18.372  0.00  0.00    +0.000 A 
ATOM      7  C   UNL     1       1.513   9.029  19.057  0.00  0.00    +0.000 A 
ATOM      8  C   UNL     1       1.005   8.744  20.316  0.00  0.00    +0.000 A 
ATOM      9  N   UNL     1       1.142   7.493  20.821  0.00  0.00    +0.000 NA
ATOM     10  N   UNL     1       1.845   6.514  20.134  0.00  0.00    +0.000 NA
ATOM     11  H   UNL     1       4.861   4.416  17.159  0.00  0.00    +0.000 HD
ATOM     12  H   UNL     1       3.310   4.979  18.894  0.00  0.00    +0.000 HD
ENDROOT
BRANCH   8  13
ATOM     13  C   UNL     1       0.299   9.738  21.152  0.00  0.00    +0.000 A 
ATOM     14  C   UNL     1      -0.168   9.399  22.435  0.00  0.00    +0.000 A 
ATOM     15  C   UNL     1      -0.861  10.317  23.230  0.00  0.00    +0.000 A 
ATOM     16  C   UNL     1      -1.099  11.607  22.760  0.00  0.00    +0.000 A 
ATOM     17  C   UNL     1      -0.632  11.980  21.507  0.00  0.00    +0.000 A 
ATOM     18  C   UNL     1       0.062  11.058  20.717  0.00  0.00    +0.000 A 
ENDBRANCH   8  13
BRANCH   1  19
ATOM     19  C   UNL     1       6.722   5.430  16.990  0.00  0.00    +0.000 C 
ATOM     20  C   UNL     1       7.273   6.863  17.168  0.00  0.00    +0.000 C 
ATOM     21  C   UNL     1       8.056   6.891  18.483  0.00  0.00    +0.000 C 
ATOM     22  C   UNL     1       8.238   5.446  18.934  0.00  0.00    +0.000 C 
ATOM     23  C   UNL     1       7.710   4.567  17.806  0.00  0.00    +0.000 C 
BRANCH  19  27
ATOM     24  C   UNL     1       5.721   3.338  12.561  0.00  0.00    +0.000 C 
ATOM     25  C   UNL     1       6.244   4.099  13.709  0.00  0.00    +0.000 A 
ATOM     26  N   UNL     1       5.846   4.138  14.963  0.00  0.00    +0.000 NA
ATOM     27  C   UNL     1       6.747   5.025  15.521  0.00  0.00    +0.000 A 
ATOM     28  N   UNL     1       7.648   5.516  14.654  0.00  0.00    +0.000 NA
ATOM     29  O   UNL     1       7.316   4.900  13.452  0.00  0.00    +0.000 OA
ENDBRANCH  19  27
ENDBRANCH   1  19
TORSDOF 3
ENDMDL
MODEL 2
REMARK VINA RESULT:      -9.1      1.084      1.692
REMARK  Name = 
REMARK  4 active torsions:
REMARK  status: ('A' for Active; 'I' for Inactive)
REMARK    1  A    between atoms: C_1  and  C_2
REMARK    2  A    between atoms: C_4  and  C_5
REMARK    3  A    between atoms: C_5  and  N_6
REMARK    4  A    between atoms: C_13  and  C_14
REMARK                            x       y       z     vdW  Elec       q    Type
REMARK                         _______ _______ _______ _____ _____    ______ ____
ROOT
ATOM      1  N   UNL     1       5.210   5.501  17.795  0.00  0.00    +0.000 N 
ATOM      2  C   UNL     1       4.399   6.592  17.908  0.00  0.00    +0.000 C 
ATOM      3  O   UNL     1       4.712   7.703  17.499  0.00  0.00    +0.000 OA
ATOM      4  N   UNL     1       3.211   6.345  18.551  0.00  0.00    +0.000 N 
ATOM      5  C   UNL     1       2.322   7.419  18.776  0.00  0.00    +0.000 A 
ATOM      6  C   UNL     1       2.051   8.356  17.790  0.00  0.00    +0.000 A 
ATOM      7  C   UNL     1       1.323   9.498  18.111  0.00  0.00    +0.000 A 
ATOM      8  C   UNL     1       0.872   9.675  19.411  0.00  0.00    +0.000 A 
ATOM      9  N   UNL     1       1.075   8.694  20.324  0.00  0.00    +0.000 NA
ATOM     10  N   UNL     1       1.789   7.549  20.002  0.00  0.00    +0.000 NA
ATOM     11  H   UNL     1       4.771   4.587  17.840  0.00  0.00    +0.000 HD
ATOM     12  H   UNL     1       3.264   5.702  19.328  0.00  0.00    +0.000 HD
ENDROOT
BRANCH   8  13
ATOM     13  C   UNL     1       0.160  10.889  19.867  0.00  0.00    +0.000 A 
ATOM     14  C   UNL     1      -0.462  11.748  18.944  0.00  0.00    +0.000 A 
ATOM     15  C   UNL     1      -1.116  12.914  19.354  0.00  0.00    +0.000 A 
ATOM     16  C   UNL     1      -1.169  13.246  20.706  0.00  0.00    +0.000 A 
ATOM     17  C   UNL     1      -0.583  12.407  21.644  0.00  0.00    +0.000 A 
ATOM     18  C   UNL     1       0.068  11.241  21.228  0.00  0.00    +0.000 A 
ENDBRANCH   8  13
BRANCH   1  19
ATOM     19  C   UNL     1       6.586   5.511  17.230  0.00  0.00    +0.000 C 
ATOM     20  C   UNL     1       7.244   6.910  17.233  0.00  0.00    +0.000 C 
ATOM     21  C   UNL     1       8.108   7.006  18.492  0.00  0.00    +0.000 C 
ATOM     22  C   UNL     1       8.219   5.600  19.074  0.00  0.00    +0.000 C 
ATOM     23  C   UNL     1       7.562   4.660  18.071  0.00  0.00    +0.000 C 
BRANCH  19  27
ATOM     24  C   UNL     1       7.356   4.565  12.383  0.00  0.00    +0.000 C 
ATOM     25  C   UNL     1       6.897   4.637  13.780  0.00  0.00    +0.000 A 
ATOM     26  N   UNL     1       7.349   5.344  14.794  0.00  0.00    +0.000 NA
ATOM     27  C   UNL     1       6.490   4.968  15.810  0.00  0.00    +0.000 A 
ATOM     28  N   UNL     1       5.563   4.067  15.444  0.00  0.00    +0.000 NA
ATOM     29  O   UNL     1       5.831   3.849  14.097  0.00  0.00    +0.000 OA
ENDBRANCH  19  27
ENDBRANCH   1  19
TORSDOF 3
ENDMDL
MODEL 3
REMARK VINA RESULT:      -9.1      1.737      3.194
REMARK  Name = 
REMARK  4 active torsions:
REMARK  status: ('A' for Active; 'I' for Inactive)
REMARK    1  A    between atoms: C_1  and  C_2
REMARK    2  A    between atoms: C_4  and  C_5
REMARK    3  A    between atoms: C_5  and  N_6
REMARK    4  A    between atoms: C_13  and  C_14
REMARK                            x       y       z     vdW  Elec       q    Type
REMARK                         _______ _______ _______ _____ _____    ______ ____
ROOT
ATOM      1  N   UNL     1       4.793   5.441  17.477  0.00  0.00    +0.000 N 
ATOM      2  C   UNL     1       4.021   6.489  17.886  0.00  0.00    +0.000 C 
ATOM      3  O   UNL     1       4.248   7.650  17.568  0.00  0.00    +0.000 OA
ATOM      4  N   UNL     1       2.985   6.134  18.714  0.00  0.00    +0.000 N 
ATOM      5  C   UNL     1       2.159   7.149  19.244  0.00  0.00    +0.000 A 
ATOM      6  C   UNL     1       1.698   8.195  18.459  0.00  0.00    +0.000 A 
ATOM      7  C   UNL     1       1.049   9.270  19.060  0.00  0.00    +0.000 A 
ATOM      8  C   UNL     1       0.865   9.272  20.434  0.00  0.00    +0.000 A 
ATOM      9  N   UNL     1       1.244   8.190  21.158  0.00  0.00    +0.000 NA
ATOM     10  N   UNL     1       1.880   7.112  20.558  0.00  0.00    +0.000 NA
ATOM     11  H   UNL     1       4.371   4.518  17.491  0.00  0.00    +0.000 HD
ATOM     12  H   UNL     1       3.191   5.401  19.377  0.00  0.00    +0.000 HD
ENDROOT
BRANCH   8  13
ATOM     13  C   UNL     1       0.259  10.401  21.173  0.00  0.00    +0.000 A 
ATOM     14  C   UNL     1      -0.501  10.177  22.335  0.00  0.00    +0.000 A 
ATOM     15  C   UNL     1      -1.104  11.229  23.031  0.00  0.00    +0.000 A 
ATOM     16  C   UNL     1      -0.955  12.539  22.582  0.00  0.00    +0.000 A 
ATOM     17  C   UNL     1      -0.194  12.796  21.450  0.00  0.00    +0.000 A 
ATOM     18  C   UNL     1       0.409  11.740  20.758  0.00  0.00    +0.000 A 
ENDBRANCH   8  13
BRANCH   1  19
ATOM     19  C   UNL     1       6.029   5.556  16.658  0.00  0.00    +0.000 C 
ATOM     20  C   UNL     1       6.726   4.201  16.399  0.00  0.00    +0.000 C 
ATOM     21  C   UNL     1       6.255   3.699  15.032  0.00  0.00    +0.000 C 
ATOM     22  C   UNL     1       5.538   4.856  14.346  0.00  0.00    +0.000 C 
ATOM     23  C   UNL     1       5.732   6.079  15.236  0.00  0.00    +0.000 C 
BRANCH  19  27
ATOM     24  C   UNL     1       8.654   9.558  18.099  0.00  0.00    +0.000 C 
ATOM     25  C   UNL     1       8.018   8.242  17.919  0.00  0.00    +0.000 A 
ATOM     26  N   UNL     1       7.152   7.825  17.020  0.00  0.00    +0.000 NA
ATOM     27  C   UNL     1       6.965   6.508  17.393  0.00  0.00    +0.000 A 
ATOM     28  N   UNL     1       7.671   6.134  18.472  0.00  0.00    +0.000 NA
ATOM     29  O   UNL     1       8.372   7.283  18.820  0.00  0.00    +0.000 OA
ENDBRANCH  19  27
ENDBRANCH   1  19
TORSDOF 3
ENDMDL
MODEL 4
REMARK VINA RESULT:      -8.8      1.821      3.409
REMARK  Name = 
REMARK  4 active torsions:
REMARK  status: ('A' for Active; 'I' for Inactive)
REMARK    1  A    between atoms: C_1  and  C_2
REMARK    2  A    between atoms: C_4  and  C_5
REMARK    3  A    between atoms: C_5  and  N_6
REMARK    4  A    between atoms: C_13  and  C_14
REMARK                            x       y       z     vdW  Elec       q    Type
REMARK                         _______ _______ _______ _____ _____    ______ ____
ROOT
ATOM      1  N   UNL     1       4.837   5.583  17.620  0.00  0.00    +0.000 N 
ATOM      2  C   UNL     1       4.022   6.647  17.879  0.00  0.00    +0.000 C 
ATOM      3  O   UNL     1       4.212   7.763  17.411  0.00  0.00    +0.000 OA
ATOM      4  N   UNL     1       2.988   6.369  18.738  0.00  0.00    +0.000 N 
ATOM      5  C   UNL     1       2.120   7.414  19.121  0.00  0.00    +0.000 A 
ATOM      6  C   UNL     1       1.633   8.328  18.199  0.00  0.00    +0.000 A 
ATOM      7  C   UNL     1       0.939   9.450  18.645  0.00  0.00    +0.000 A 
ATOM      8  C   UNL     1       0.737   9.628  20.006  0.00  0.00    +0.000 A 
ATOM      9  N   UNL     1       1.145   8.666  20.870  0.00  0.00    +0.000 NA
ATOM     10  N   UNL     1       1.826   7.542  20.426  0.00  0.00    +0.000 NA
ATOM     11  H   UNL     1       4.447   4.655  17.754  0.00  0.00    +0.000 HD
ATOM     12  H   UNL     1       3.211   5.738  19.495  0.00  0.00    +0.000 HD
ENDROOT
BRANCH   8  13
ATOM     13  C   UNL     1       0.082  10.822  20.581  0.00  0.00    +0.000 A 
ATOM     14  C   UNL     1      -0.267  11.915  19.767  0.00  0.00    +0.000 A 
ATOM     15  C   UNL     1      -0.862  13.064  20.297  0.00  0.00    +0.000 A 
ATOM     16  C   UNL     1      -1.130  13.145  21.662  0.00  0.00    +0.000 A 
ATOM     17  C   UNL     1      -0.818  12.075  22.490  0.00  0.00    +0.000 A 
ATOM     18  C   UNL     1      -0.224  10.927  21.953  0.00  0.00    +0.000 A 
ENDBRANCH   8  13
BRANCH   1  19
ATOM     19  C   UNL     1       6.078   5.633  16.804  0.00  0.00    +0.000 C 
ATOM     20  C   UNL     1       6.756   4.255  16.625  0.00  0.00    +0.000 C 
ATOM     21  C   UNL     1       6.285   3.684  15.286  0.00  0.00    +0.000 C 
ATOM     22  C   UNL     1       5.588   4.811  14.531  0.00  0.00    +0.000 C 
ATOM     23  C   UNL     1       5.797   6.079  15.352  0.00  0.00    +0.000 C 
BRANCH  19  27
ATOM     24  C   UNL     1       8.706   9.692  18.071  0.00  0.00    +0.000 C 
ATOM     25  C   UNL     1       8.077   8.367  17.942  0.00  0.00    +0.000 A 
ATOM     26  N   UNL     1       7.191   7.920  17.076  0.00  0.00    +0.000 NA
ATOM     27  C   UNL     1       7.024   6.611  17.489  0.00  0.00    +0.000 A 
ATOM     28  N   UNL     1       7.761   6.272  18.559  0.00  0.00    +0.000 NA
ATOM     29  O   UNL     1       8.461   7.434  18.859  0.00  0.00    +0.000 OA
ENDBRANCH  19  27
ENDBRANCH   1  19
TORSDOF 3
ENDMDL
MODEL 5
REMARK VINA RESULT:      -8.8      4.967      8.171
REMARK  Name = 
REMARK  4 active torsions:
REMARK  status: ('A' for Active; 'I' for Inactive)
REMARK    1  A    between atoms: C_1  and  C_2
REMARK    2  A    between atoms: C_4  and  C_5
REMARK    3  A    between atoms: C_5  and  N_6
REMARK    4  A    between atoms: C_13  and  C_14
REMARK                            x       y       z     vdW  Elec       q    Type
REMARK                         _______ _______ _______ _____ _____    ______ ____
ROOT
ATOM      1  N   UNL     1       9.883  10.140  19.206  0.00  0.00    +0.000 N 
ATOM      2  C   UNL     1       8.815   9.432  18.738  0.00  0.00    +0.000 C 
ATOM      3  O   UNL     1       7.806   9.963  18.288  0.00  0.00    +0.000 OA
ATOM      4  N   UNL     1       8.952   8.070  18.844  0.00  0.00    +0.000 N 
ATOM      5  C   UNL     1       7.880   7.243  18.444  0.00  0.00    +0.000 A 
ATOM      6  C   UNL     1       7.179   7.479  17.271  0.00  0.00    +0.000 A 
ATOM      7  C   UNL     1       6.015   6.762  17.011  0.00  0.00    +0.000 A 
ATOM      8  C   UNL     1       5.580   5.814  17.927  0.00  0.00    +0.000 A 
ATOM      9  N   UNL     1       6.342   5.544  19.016  0.00  0.00    +0.000 NA
ATOM     10  N   UNL     1       7.509   6.250  19.269  0.00  0.00    +0.000 NA
ATOM     11  H   UNL     1      10.778   9.663  19.242  0.00  0.00    +0.000 HD
ATOM     12  H   UNL     1       9.416   7.745  19.681  0.00  0.00    +0.000 HD
ENDROOT
BRANCH   8  13
ATOM     13  C   UNL     1       4.318   5.059  17.778  0.00  0.00    +0.000 A 
ATOM     14  C   UNL     1       3.077   5.674  18.026  0.00  0.00    +0.000 A 
ATOM     15  C   UNL     1       1.875   4.968  17.918  0.00  0.00    +0.000 A 
ATOM     16  C   UNL     1       1.884   3.625  17.550  0.00  0.00    +0.000 A 
ATOM     17  C   UNL     1       3.091   2.994  17.278  0.00  0.00    +0.000 A 
ATOM     18  C   UNL     1       4.291   3.706  17.386  0.00  0.00    +0.000 A 
ENDBRANCH   8  13
BRANCH   1  19
ATOM     19  C   UNL     1       9.954  11.623  19.296  0.00  0.00    +0.000 C 
ATOM     20  C   UNL     1      11.398  12.167  19.386  0.00  0.00    +0.000 C 
ATOM     21  C   UNL     1      11.829  12.556  17.970  0.00  0.00    +0.000 C 
ATOM     22  C   UNL     1      10.580  12.540  17.095  0.00  0.00    +0.000 C 
ATOM     23  C   UNL     1       9.398  12.306  18.027  0.00  0.00    +0.000 C 
BRANCH  19  27
ATOM     24  C   UNL     1       7.657  11.704  23.735  0.00  0.00    +0.000 C 
ATOM     25  C   UNL     1       8.224  11.971  22.402  0.00  0.00    +0.000 A 
ATOM     26  N   UNL     1       8.957  11.212  21.615  0.00  0.00    +0.000 NA
ATOM     27  C   UNL     1       9.149  12.035  20.521  0.00  0.00    +0.000 A 
ATOM     28  N   UNL     1       8.573  13.243  20.633  0.00  0.00    +0.000 NA
ATOM     29  O   UNL     1       7.958  13.201  21.878  0.00  0.00    +0.000 OA
ENDBRANCH  19  27
ENDBRANCH   1  19
TORSDOF 3
ENDMDL
MODEL 6
REMARK VINA RESULT:      -8.8      2.716      4.451
REMARK  Name = 
REMARK  4 active torsions:
REMARK  status: ('A' for Active; 'I' for Inactive)
REMARK    1  A    between atoms: C_1  and  C_2
REMARK    2  A    between atoms: C_4  and  C_5
REMARK    3  A    between atoms: C_5  and  N_6
REMARK    4  A    between atoms: C_13  and  C_14
REMARK                            x       y       z     vdW  Elec       q    Type
REMARK                         _______ _______ _______ _____ _____    ______ ____
ROOT
ATOM      1  N   UNL     1       2.877   5.611  20.156  0.00  0.00    +0.000 N 
ATOM      2  C   UNL     1       2.275   6.817  19.945  0.00  0.00    +0.000 C 
ATOM      3  O   UNL     1       2.175   7.330  18.836  0.00  0.00    +0.000 OA
ATOM      4  N   UNL     1       1.817   7.424  21.087  0.00  0.00    +0.000 N 
ATOM      5  C   UNL     1       1.231   8.705  20.990  0.00  0.00    +0.000 A 
ATOM      6  C   UNL     1       0.323   9.014  19.988  0.00  0.00    +0.000 A 
ATOM      7  C   UNL     1      -0.083  10.334  19.813  0.00  0.00    +0.000 A 
ATOM      8  C   UNL     1       0.419  11.318  20.653  0.00  0.00    +0.000 A 
ATOM      9  N   UNL     1       1.230  10.964  21.681  0.00  0.00    +0.000 NA
ATOM     10  N   UNL     1       1.626   9.647  21.864  0.00  0.00    +0.000 NA
ATOM     11  H   UNL     1       2.631   5.109  21.004  0.00  0.00    +0.000 HD
ATOM     12  H   UNL     1       2.406   7.316  21.901  0.00  0.00    +0.000 HD
ENDROOT
BRANCH   8  13
ATOM     13  C   UNL     1       0.109  12.755  20.499  0.00  0.00    +0.000 A 
ATOM     14  C   UNL     1       0.012  13.338  19.222  0.00  0.00    +0.000 A 
ATOM     15  C   UNL     1      -0.253  14.701  19.057  0.00  0.00    +0.000 A 
ATOM     16  C   UNL     1      -0.435  15.517  20.171  0.00  0.00    +0.000 A 
ATOM     17  C   UNL     1      -0.367  14.968  21.445  0.00  0.00    +0.000 A 
ATOM     18  C   UNL     1      -0.104  13.604  21.604  0.00  0.00    +0.000 A 
ENDBRANCH   8  13
BRANCH   1  19
ATOM     19  C   UNL     1       3.541   4.790  19.108  0.00  0.00    +0.000 C 
ATOM     20  C   UNL     1       3.591   3.282  19.445  0.00  0.00    +0.000 C 
ATOM     21  C   UNL     1       2.399   2.620  18.750  0.00  0.00    +0.000 C 
ATOM     22  C   UNL     1       1.822   3.636  17.771  0.00  0.00    +0.000 C 
ATOM     23  C   UNL     1       2.771   4.829  17.770  0.00  0.00    +0.000 C 
BRANCH  19  27
ATOM     24  C   UNL     1       7.564   7.251  17.452  0.00  0.00    +0.000 C 
ATOM     25  C   UNL     1       6.574   6.422  18.160  0.00  0.00    +0.000 A 
ATOM     26  N   UNL     1       5.296   6.221  17.919  0.00  0.00    +0.000 NA
ATOM     27  C   UNL     1       4.948   5.346  18.931  0.00  0.00    +0.000 A 
ATOM     28  N   UNL     1       5.958   5.032  19.760  0.00  0.00    +0.000 NA
ATOM     29  O   UNL     1       7.037   5.744  19.248  0.00  0.00    +0.000 OA
ENDBRANCH  19  27
ENDBRANCH   1  19
TORSDOF 3
ENDMDL
MODEL 7
REMARK VINA RESULT:      -8.8      4.848      7.448
REMARK  Name = 
REMARK  4 active torsions:
REMARK  status: ('A' for Active; 'I' for Inactive)
REMARK    1  A    between atoms: C_1  and  C_2
REMARK    2  A    between atoms: C_4  and  C_5
REMARK    3  A    between atoms: C_5  and  N_6
REMARK    4  A    between atoms: C_13  and  C_14
REMARK                            x       y       z     vdW  Elec       q    Type
REMARK                         _______ _______ _______ _____ _____    ______ ____
ROOT
ATOM      1  N   UNL     1       4.606   3.361  18.322  0.00  0.00    +0.000 N 
ATOM      2  C   UNL     1       5.411   4.424  18.617  0.00  0.00    +0.000 C 
ATOM      3  O   UNL     1       5.508   4.896  19.743  0.00  0.00    +0.000 OA
ATOM      4  N   UNL     1       6.078   4.941  17.534  0.00  0.00    +0.000 N 
ATOM      5  C   UNL     1       6.891   6.080  17.716  0.00  0.00    +0.000 A 
ATOM      6  C   UNL     1       7.748   6.196  18.801  0.00  0.00    +0.000 A 
ATOM      7  C   UNL     1       8.386   7.409  19.045  0.00  0.00    +0.000 A 
ATOM      8  C   UNL     1       8.162   8.480  18.193  0.00  0.00    +0.000 A 
ATOM      9  N   UNL     1       7.393   8.302  17.090  0.00  0.00    +0.000 NA
ATOM     10  N   UNL     1       6.766   7.090  16.838  0.00  0.00    +0.000 NA
ATOM     11  H   UNL     1       4.824   2.830  17.485  0.00  0.00    +0.000 HD
ATOM     12  H   UNL     1       5.554   4.959  16.670  0.00  0.00    +0.000 HD
ENDROOT
BRANCH   8  13
ATOM     13  C   UNL     1       8.731   9.827  18.412  0.00  0.00    +0.000 A 
ATOM     14  C   UNL     1       9.562  10.087  19.517  0.00  0.00    +0.000 A 
ATOM     15  C   UNL     1      10.087  11.360  19.756  0.00  0.00    +0.000 A 
ATOM     16  C   UNL     1       9.796  12.409  18.886  0.00  0.00    +0.000 A 
ATOM     17  C   UNL     1       8.996  12.181  17.775  0.00  0.00    +0.000 A 
ATOM     18  C   UNL     1       8.475  10.904  17.540  0.00  0.00    +0.000 A 
ENDBRANCH   8  13
BRANCH   1  19
ATOM     19  C   UNL     1       3.704   2.677  19.286  0.00  0.00    +0.000 C 
ATOM     20  C   UNL     1       2.924   3.650  20.200  0.00  0.00    +0.000 C 
ATOM     21  C   UNL     1       1.549   3.869  19.566  0.00  0.00    +0.000 C 
ATOM     22  C   UNL     1       1.383   2.822  18.469  0.00  0.00    +0.000 C 
ATOM     23  C   UNL     1       2.585   1.890  18.571  0.00  0.00    +0.000 C 
BRANCH  19  27
ATOM     24  C   UNL     1       6.375  -1.223  20.913  0.00  0.00    +0.000 C 
ATOM     25  C   UNL     1       5.670   0.054  20.707  0.00  0.00    +0.000 A 
ATOM     26  N   UNL     1       4.953   0.481  19.689  0.00  0.00    +0.000 NA
ATOM     27  C   UNL     1       4.569   1.738  20.118  0.00  0.00    +0.000 A 
ATOM     28  N   UNL     1       5.034   2.072  21.333  0.00  0.00    +0.000 NA
ATOM     29  O   UNL     1       5.763   0.955  21.725  0.00  0.00    +0.000 OA
ENDBRANCH  19  27
ENDBRANCH   1  19
TORSDOF 3
ENDMDL
MODEL 8
REMARK VINA RESULT:      -8.6      2.696      4.421
REMARK  Name = 
REMARK  4 active torsions:
REMARK  status: ('A' for Active; 'I' for Inactive)
REMARK    1  A    between atoms: C_1  and  C_2
REMARK    2  A    between atoms: C_4  and  C_5
REMARK    3  A    between atoms: C_5  and  N_6
REMARK    4  A    between atoms: C_13  and  C_14
REMARK                            x       y       z     vdW  Elec       q    Type
REMARK                         _______ _______ _______ _____ _____    ______ ____
ROOT
ATOM      1  N   UNL     1       2.763   6.548  18.235  0.00  0.00    +0.000 N 
ATOM      2  C   UNL     1       2.103   7.431  19.040  0.00  0.00    +0.000 C 
ATOM      3  O   UNL     1       1.829   7.192  20.211  0.00  0.00    +0.000 OA
ATOM      4  N   UNL     1       1.742   8.599  18.417  0.00  0.00    +0.000 N 
ATOM      5  C   UNL     1       1.001   9.558  19.143  0.00  0.00    +0.000 A 
ATOM      6  C   UNL     1       1.327   9.891  20.449  0.00  0.00    +0.000 A 
ATOM      7  C   UNL     1       0.462  10.693  21.189  0.00  0.00    +0.000 A 
ATOM      8  C   UNL     1      -0.707  11.155  20.603  0.00  0.00    +0.000 A 
ATOM      9  N   UNL     1      -0.945  10.887  19.295  0.00  0.00    +0.000 NA
ATOM     10  N   UNL     1      -0.078  10.099  18.553  0.00  0.00    +0.000 NA
ATOM     11  H   UNL     1       3.239   6.926  17.422  0.00  0.00    +0.000 HD
ATOM     12  H   UNL     1       1.439   8.504  17.459  0.00  0.00    +0.000 HD
ENDROOT
BRANCH   8  13
ATOM     13  C   UNL     1      -1.724  11.945  21.328  0.00  0.00    +0.000 A 
ATOM     14  C   UNL     1      -1.838  11.861  22.728  0.00  0.00    +0.000 A 
ATOM     15  C   UNL     1      -2.811  12.580  23.429  0.00  0.00    +0.000 A 
ATOM     16  C   UNL     1      -3.694  13.411  22.743  0.00  0.00    +0.000 A 
ATOM     17  C   UNL     1      -3.594  13.533  21.364  0.00  0.00    +0.000 A 
ATOM     18  C   UNL     1      -2.617  12.813  20.668  0.00  0.00    +0.000 A 
ENDBRANCH   8  13
BRANCH   1  19
ATOM     19  C   UNL     1       3.181   5.177  18.629  0.00  0.00    +0.000 C 
ATOM     20  C   UNL     1       2.515   4.679  19.933  0.00  0.00    +0.000 C 
ATOM     21  C   UNL     1       1.297   3.844  19.534  0.00  0.00    +0.000 C 
ATOM     22  C   UNL     1       1.396   3.584  18.035  0.00  0.00    +0.000 C 
ATOM     23  C   UNL     1       2.750   4.121  17.588  0.00  0.00    +0.000 C 
BRANCH  19  27
ATOM     24  C   UNL     1       8.003   6.489  18.536  0.00  0.00    +0.000 C 
ATOM     25  C   UNL     1       6.690   5.841  18.695  0.00  0.00    +0.000 A 
ATOM     26  N   UNL     1       5.483   6.263  18.383  0.00  0.00    +0.000 NA
ATOM     27  C   UNL     1       4.697   5.196  18.775  0.00  0.00    +0.000 A 
ATOM     28  N   UNL     1       5.383   4.173  19.311  0.00  0.00    +0.000 NA
ATOM     29  O   UNL     1       6.705   4.599  19.256  0.00  0.00    +0.000 OA
ENDBRANCH  19  27
ENDBRANCH   1  19
TORSDOF 3
ENDMDL
MODEL 9
REMARK VINA RESULT:      -8.5      2.733      4.683
REMARK  Name = 
REMARK  4 active torsions:
REMARK  status: ('A' for Active; 'I' for Inactive)
REMARK    1  A    between atoms: C_1  and  C_2
REMARK    2  A    between atoms: C_4  and  C_5
REMARK    3  A    between atoms: C_5  and  N_6
REMARK    4  A    between atoms: C_13  and  C_14
REMARK                            x       y       z     vdW  Elec       q    Type
REMARK                         _______ _______ _______ _____ _____    ______ ____
ROOT
ATOM      1  N   UNL     1       2.528   5.719  20.344  0.00  0.00    +0.000 N 
ATOM      2  C   UNL     1       1.996   6.946  20.074  0.00  0.00    +0.000 C 
ATOM      3  O   UNL     1       1.886   7.391  18.938  0.00  0.00    +0.000 OA
ATOM      4  N   UNL     1       1.626   7.656  21.189  0.00  0.00    +0.000 N 
ATOM      5  C   UNL     1       1.120   8.965  21.026  0.00  0.00    +0.000 A 
ATOM      6  C   UNL     1       0.195   9.268  20.039  0.00  0.00    +0.000 A 
ATOM      7  C   UNL     1      -0.132  10.599  19.790  0.00  0.00    +0.000 A 
ATOM      8  C   UNL     1       0.466  11.599  20.543  0.00  0.00    +0.000 A 
ATOM      9  N   UNL     1       1.294  11.259  21.562  0.00  0.00    +0.000 NA
ATOM     10  N   UNL     1       1.610   9.933  21.819  0.00  0.00    +0.000 NA
ATOM     11  H   UNL     1       2.285   5.291  21.232  0.00  0.00    +0.000 HD
ATOM     12  H   UNL     1       2.239   7.562  21.986  0.00  0.00    +0.000 HD
ENDROOT
BRANCH   8  13
ATOM     13  C   UNL     1       0.244  13.040  20.303  0.00  0.00    +0.000 A 
ATOM     14  C   UNL     1       0.178  13.947  21.377  0.00  0.00    +0.000 A 
ATOM     15  C   UNL     1      -0.058  15.310  21.171  0.00  0.00    +0.000 A 
ATOM     16  C   UNL     1      -0.228  15.802  19.879  0.00  0.00    +0.000 A 
ATOM     17  C   UNL     1      -0.147  14.937  18.797  0.00  0.00    +0.000 A 
ATOM     18  C   UNL     1       0.092  13.575  19.008  0.00  0.00    +0.000 A 
ENDBRANCH   8  13
BRANCH   1  19
ATOM     19  C   UNL     1       3.094   4.789  19.331  0.00  0.00    +0.000 C 
ATOM     20  C   UNL     1       3.233   3.335  19.836  0.00  0.00    +0.000 C 
ATOM     21  C   UNL     1       1.992   2.569  19.372  0.00  0.00    +0.000 C 
ATOM     22  C   UNL     1       1.272   3.447  18.353  0.00  0.00    +0.000 C 
ATOM     23  C   UNL     1       2.174   4.648  18.098  0.00  0.00    +0.000 C 
BRANCH  19  27
ATOM     24  C   UNL     1       7.951   5.952  19.137  0.00  0.00    +0.000 C 
ATOM     25  C   UNL     1       6.504   5.775  18.929  0.00  0.00    +0.000 A 
ATOM     26  N   UNL     1       5.612   5.119  19.640  0.00  0.00    +0.000 NA
ATOM     27  C   UNL     1       4.452   5.346  18.923  0.00  0.00    +0.000 A 
ATOM     28  N   UNL     1       4.623   6.095  17.821  0.00  0.00    +0.000 NA
ATOM     29  O   UNL     1       5.983   6.381  17.826  0.00  0.00    +0.000 OA
ENDBRANCH  19  27
ENDBRANCH   1  19
TORSDOF 3
ENDMDL
