MODEL 1
REMARK VINA RESULT:      -9.7      0.000      0.000
REMARK  Name = 
REMARK  5 active torsions:
REMARK  status: ('A' for Active; 'I' for Inactive)
REMARK    1  A    between atoms: C_1  and  C_2
REMARK    2  A    between atoms: C_6  and  C_7
REMARK    3  A    between atoms: C_10  and  N_11
REMARK    4  A    between atoms: C_12  and  C_14
REMARK    5  A    between atoms: C_24  and  C_25
REMARK                            x       y       z     vdW  Elec       q    Type
REMARK                         _______ _______ _______ _____ _____    ______ ____
ROOT
ATOM      1  N   UNL     1       3.167   5.972  18.966  0.00  0.00    +0.000 N 
ATOM      2  C   UNL     1       2.682   4.890  18.190  0.00  0.00    +0.000 C 
ATOM      3  O   UNL     1       1.561   4.869  17.682  0.00  0.00    +0.000 OA
ATOM      4  H   UNL     1       3.921   5.784  19.609  0.00  0.00    +0.000 HD
ENDROOT
BRANCH   2   5
ATOM      5  C   UNL     1       3.507   3.583  18.075  0.00  0.00    +0.000 A 
ATOM      6  C   UNL     1       4.304   3.438  16.951  0.00  0.00    +0.000 A 
ATOM      7  C   UNL     1       5.507   4.131  16.959  0.00  0.00    +0.000 A 
ATOM      8  C   UNL     1       6.111   4.560  15.770  0.00  0.00    +0.000 A 
ATOM      9  C   UNL     1       6.968   5.651  15.821  0.00  0.00    +0.000 A 
ATOM     10  C   UNL     1       7.231   6.238  17.054  0.00  0.00    +0.000 A 
ATOM     11  F   UNL     1       7.847   7.425  17.092  0.00  0.00    +0.000 F 
ATOM     12  C   UNL     1       6.803   5.666  18.249  0.00  0.00    +0.000 A 
ATOM     13  C   UNL     1       5.959   4.581  18.220  0.00  0.00    +0.000 A 
ATOM     14  N   UNL     1       5.456   4.054  19.348  0.00  0.00    +0.000 NA
ATOM     15  C   UNL     1       4.245   3.458  19.242  0.00  0.00    +0.000 A 
ATOM     16  C   UNL     1       3.902   2.374  20.224  0.00  0.00    +0.000 C 
ENDBRANCH   2   5
BRANCH   1  20
ATOM     17  C   UNL     1       0.814   9.508  19.781  0.00  0.00    +0.000 A 
ATOM     18  C   UNL     1       1.085   8.524  20.746  0.00  0.00    +0.000 A 
ATOM     19  C   UNL     1       1.890   7.392  20.492  0.00  0.00    +0.000 A 
ATOM     20  C   UNL     1       2.438   7.177  19.223  0.00  0.00    +0.000 A 
ATOM     21  C   UNL     1       2.233   8.177  18.266  0.00  0.00    +0.000 A 
ATOM     22  C   UNL     1       1.451   9.324  18.547  0.00  0.00    +0.000 A 
BRANCH  17  28
ATOM     23  C   UNL     1      -1.904  12.110  22.942  0.00  0.00    +0.000 C 
ATOM     24  C   UNL     1      -1.399  11.877  21.542  0.00  0.00    +0.000 A 
ATOM     25  C   UNL     1      -1.680  12.814  20.563  0.00  0.00    +0.000 A 
ATOM     26  C   UNL     1      -1.155  12.555  19.326  0.00  0.00    +0.000 A 
ATOM     27  N   UNL     1      -0.396  11.483  19.036  0.00  0.00    +0.000 NA
ATOM     28  C   UNL     1      -0.128  10.632  20.053  0.00  0.00    +0.000 A 
ATOM     29  N   UNL     1      -0.610  10.799  21.308  0.00  0.00    +0.000 NA
ENDBRANCH  17  28
ENDBRANCH   1  20
TORSDOF 3
ENDMDL
MODEL 2
REMARK VINA RESULT:      -9.7      0.752      1.183
REMARK  Name = 
REMARK  5 active torsions:
REMARK  status: ('A' for Active; 'I' for Inactive)
REMARK    1  A    between atoms: C_1  and  C_2
REMARK    2  A    between atoms: C_6  and  C_7
REMARK    3  A    between atoms: C_10  and  N_11
REMARK    4  A    between atoms: C_12  and  C_14
REMARK    5  A    between atoms: C_24  and  C_25
REMARK                            x       y       z     vdW  Elec       q    Type
REMARK                         _______ _______ _______ _____ _____    ______ ____
ROOT
ATOM      1  N   UNL     1       3.123   6.050  18.836  0.00  0.00    +0.000 N 
ATOM      2  C   UNL     1       2.618   4.916  18.152  0.00  0.00    +0.000 C 
ATOM      3  O   UNL     1       1.492   4.868  17.660  0.00  0.00    +0.000 OA
ATOM      4  H   UNL     1       3.884   5.904  19.483  0.00  0.00    +0.000 HD
ENDROOT
BRANCH   2   5
ATOM      5  C   UNL     1       3.430   3.596  18.129  0.00  0.00    +0.000 A 
ATOM      6  C   UNL     1       4.251   3.380  17.033  0.00  0.00    +0.000 A 
ATOM      7  C   UNL     1       5.462   4.059  17.032  0.00  0.00    +0.000 A 
ATOM      8  C   UNL     1       6.098   4.415  15.836  0.00  0.00    +0.000 A 
ATOM      9  C   UNL     1       6.968   5.497  15.847  0.00  0.00    +0.000 A 
ATOM     10  C   UNL     1       7.210   6.148  17.053  0.00  0.00    +0.000 A 
ATOM     11  F   UNL     1       7.839   7.329  17.040  0.00  0.00    +0.000 F 
ATOM     12  C   UNL     1       6.747   5.648  18.266  0.00  0.00    +0.000 A 
ATOM     13  C   UNL     1       5.890   4.573  18.277  0.00  0.00    +0.000 A 
ATOM     14  N   UNL     1       5.354   4.115  19.420  0.00  0.00    +0.000 NA
ATOM     15  C   UNL     1       4.139   3.527  19.318  0.00  0.00    +0.000 A 
ATOM     16  C   UNL     1       3.760   2.502  20.349  0.00  0.00    +0.000 C 
ENDBRANCH   2   5
BRANCH   1  20
ATOM     17  C   UNL     1       0.815   9.663  19.404  0.00  0.00    +0.000 A 
ATOM     18  C   UNL     1       1.084   8.750  20.437  0.00  0.00    +0.000 A 
ATOM     19  C   UNL     1       1.875   7.594  20.262  0.00  0.00    +0.000 A 
ATOM     20  C   UNL     1       2.409   7.278  19.008  0.00  0.00    +0.000 A 
ATOM     21  C   UNL     1       2.206   8.206  17.981  0.00  0.00    +0.000 A 
ATOM     22  C   UNL     1       1.439   9.379  18.181  0.00  0.00    +0.000 A 
BRANCH  17  28
ATOM     23  C   UNL     1      -3.550  11.785  18.637  0.00  0.00    +0.000 C 
ATOM     24  C   UNL     1      -2.178  11.815  19.257  0.00  0.00    +0.000 A 
ATOM     25  C   UNL     1      -1.862  12.833  20.140  0.00  0.00    +0.000 A 
ATOM     26  C   UNL     1      -0.612  12.773  20.692  0.00  0.00    +0.000 A 
ATOM     27  N   UNL     1       0.281  11.799  20.439  0.00  0.00    +0.000 NA
ATOM     28  C   UNL     1      -0.113  10.814  19.598  0.00  0.00    +0.000 A 
ATOM     29  N   UNL     1      -1.326  10.793  18.995  0.00  0.00    +0.000 NA
ENDBRANCH  17  28
ENDBRANCH   1  20
TORSDOF 3
ENDMDL
MODEL 3
REMARK VINA RESULT:      -9.5      0.991      1.811
REMARK  Name = 
REMARK  5 active torsions:
REMARK  status: ('A' for Active; 'I' for Inactive)
REMARK    1  A    between atoms: C_1  and  C_2
REMARK    2  A    between atoms: C_6  and  C_7
REMARK    3  A    between atoms: C_10  and  N_11
REMARK    4  A    between atoms: C_12  and  C_14
REMARK    5  A    between atoms: C_24  and  C_25
REMARK                            x       y       z     vdW  Elec       q    Type
REMARK                         _______ _______ _______ _____ _____    ______ ____
ROOT
ATOM      1  N   UNL     1       3.143   6.043  18.750  0.00  0.00    +0.000 N 
ATOM      2  C   UNL     1       2.639   4.884  18.109  0.00  0.00    +0.000 C 
ATOM      3  O   UNL     1       1.505   4.809  17.637  0.00  0.00    +0.000 OA
ATOM      4  H   UNL     1       3.915   5.925  19.388  0.00  0.00    +0.000 HD
ENDROOT
BRANCH   2   5
ATOM      5  C   UNL     1       3.464   3.572  18.114  0.00  0.00    +0.000 A 
ATOM      6  C   UNL     1       4.298   3.348  17.029  0.00  0.00    +0.000 A 
ATOM      7  C   UNL     1       5.502   4.040  17.030  0.00  0.00    +0.000 A 
ATOM      8  C   UNL     1       6.147   4.384  15.836  0.00  0.00    +0.000 A 
ATOM      9  C   UNL     1       7.006   5.475  15.840  0.00  0.00    +0.000 A 
ATOM     10  C   UNL     1       7.229   6.146  17.038  0.00  0.00    +0.000 A 
ATOM     11  F   UNL     1       7.846   7.333  17.014  0.00  0.00    +0.000 F 
ATOM     12  C   UNL     1       6.759   5.659  18.254  0.00  0.00    +0.000 A 
ATOM     13  C   UNL     1       5.913   4.575  18.272  0.00  0.00    +0.000 A 
ATOM     14  N   UNL     1       5.370   4.128  19.416  0.00  0.00    +0.000 NA
ATOM     15  C   UNL     1       4.161   3.527  19.311  0.00  0.00    +0.000 A 
ATOM     16  C   UNL     1       3.782   2.514  20.353  0.00  0.00    +0.000 C 
ENDBRANCH   2   5
BRANCH   1  20
ATOM     17  C   UNL     1       1.109   9.839  19.142  0.00  0.00    +0.000 A 
ATOM     18  C   UNL     1       1.645   9.374  17.930  0.00  0.00    +0.000 A 
ATOM     19  C   UNL     1       2.270   8.116  17.792  0.00  0.00    +0.000 A 
ATOM     20  C   UNL     1       2.419   7.269  18.896  0.00  0.00    +0.000 A 
ATOM     21  C   UNL     1       1.836   7.685  20.097  0.00  0.00    +0.000 A 
ATOM     22  C   UNL     1       1.182   8.936  20.211  0.00  0.00    +0.000 A 
BRANCH  17  28
ATOM     23  C   UNL     1       1.679  14.707  18.788  0.00  0.00    +0.000 C 
ATOM     24  C   UNL     1       0.809  13.516  19.093  0.00  0.00    +0.000 A 
ATOM     25  C   UNL     1      -0.541  13.713  19.323  0.00  0.00    +0.000 A 
ATOM     26  C   UNL     1      -1.275  12.581  19.554  0.00  0.00    +0.000 A 
ATOM     27  N   UNL     1      -0.766  11.336  19.550  0.00  0.00    +0.000 NA
ATOM     28  C   UNL     1       0.554  11.218  19.275  0.00  0.00    +0.000 A 
ATOM     29  N   UNL     1       1.362  12.280  19.044  0.00  0.00    +0.000 NA
ENDBRANCH  17  28
ENDBRANCH   1  20
TORSDOF 3
ENDMDL
MODEL 4
REMARK VINA RESULT:      -9.5      0.609      1.083
REMARK  Name = 
REMARK  5 active torsions:
REMARK  status: ('A' for Active; 'I' for Inactive)
REMARK    1  A    between atoms: C_1  and  C_2
REMARK    2  A    between atoms: C_6  and  C_7
REMARK    3  A    between atoms: C_10  and  N_11
REMARK    4  A    between atoms: C_12  and  C_14
REMARK    5  A    between atoms: C_24  and  C_25
REMARK                            x       y       z     vdW  Elec       q    Type
REMARK                         _______ _______ _______ _____ _____    ______ ____
ROOT
ATOM      1  N   UNL     1       3.148   5.776  19.218  0.00  0.00    +0.000 N 
ATOM      2  C   UNL     1       2.758   4.789  18.279  0.00  0.00    +0.000 C 
ATOM      3  O   UNL     1       1.681   4.808  17.683  0.00  0.00    +0.000 OA
ATOM      4  H   UNL     1       3.856   5.524  19.892  0.00  0.00    +0.000 HD
ENDROOT
BRANCH   2   5
ATOM      5  C   UNL     1       3.629   3.524  18.071  0.00  0.00    +0.000 A 
ATOM      6  C   UNL     1       4.401   3.472  16.921  0.00  0.00    +0.000 A 
ATOM      7  C   UNL     1       5.576   4.211  16.938  0.00  0.00    +0.000 A 
ATOM      8  C   UNL     1       6.131   4.726  15.761  0.00  0.00    +0.000 A 
ATOM      9  C   UNL     1       6.947   5.846  15.851  0.00  0.00    +0.000 A 
ATOM     10  C   UNL     1       7.221   6.375  17.108  0.00  0.00    +0.000 A 
ATOM     11  F   UNL     1       7.791   7.582  17.196  0.00  0.00    +0.000 F 
ATOM     12  C   UNL     1       6.847   5.722  18.279  0.00  0.00    +0.000 A 
ATOM     13  C   UNL     1       6.044   4.608  18.211  0.00  0.00    +0.000 A 
ATOM     14  N   UNL     1       5.592   4.001  19.320  0.00  0.00    +0.000 NA
ATOM     15  C   UNL     1       4.402   3.364  19.211  0.00  0.00    +0.000 A 
ATOM     16  C   UNL     1       4.127   2.215  20.139  0.00  0.00    +0.000 C 
ENDBRANCH   2   5
BRANCH   1  20
ATOM     17  C   UNL     1       0.934   9.348  20.237  0.00  0.00    +0.000 A 
ATOM     18  C   UNL     1       1.552   9.153  18.990  0.00  0.00    +0.000 A 
ATOM     19  C   UNL     1       2.237   7.970  18.642  0.00  0.00    +0.000 A 
ATOM     20  C   UNL     1       2.365   6.923  19.562  0.00  0.00    +0.000 A 
ATOM     21  C   UNL     1       1.703   7.070  20.785  0.00  0.00    +0.000 A 
ATOM     22  C   UNL     1       0.991   8.251  21.107  0.00  0.00    +0.000 A 
BRANCH  17  28
ATOM     23  C   UNL     1      -2.125  11.951  23.067  0.00  0.00    +0.000 C 
ATOM     24  C   UNL     1      -1.114  11.892  21.952  0.00  0.00    +0.000 A 
ATOM     25  C   UNL     1      -0.649  13.075  21.405  0.00  0.00    +0.000 A 
ATOM     26  C   UNL     1       0.296  12.943  20.424  0.00  0.00    +0.000 A 
ATOM     27  N   UNL     1       0.785  11.765  19.997  0.00  0.00    +0.000 NA
ATOM     28  C   UNL     1       0.314  10.653  20.608  0.00  0.00    +0.000 A 
ATOM     29  N   UNL     1      -0.629  10.682  21.581  0.00  0.00    +0.000 NA
ENDBRANCH  17  28
ENDBRANCH   1  20
TORSDOF 3
ENDMDL
MODEL 5
REMARK VINA RESULT:      -9.4      0.802      1.340
REMARK  Name = 
REMARK  5 active torsions:
REMARK  status: ('A' for Active; 'I' for Inactive)
REMARK    1  A    between atoms: C_1  and  C_2
REMARK    2  A    between atoms: C_6  and  C_7
REMARK    3  A    between atoms: C_10  and  N_11
REMARK    4  A    between atoms: C_12  and  C_14
REMARK    5  A    between atoms: C_24  and  C_25
REMARK                            x       y       z     vdW  Elec       q    Type
REMARK                         _______ _______ _______ _____ _____    ______ ____
ROOT
ATOM      1  N   UNL     1       3.139   6.031  18.792  0.00  0.00    +0.000 N 
ATOM      2  C   UNL     1       2.648   4.884  18.120  0.00  0.00    +0.000 C 
ATOM      3  O   UNL     1       1.521   4.815  17.631  0.00  0.00    +0.000 OA
ATOM      4  H   UNL     1       3.904   5.902  19.437  0.00  0.00    +0.000 HD
ENDROOT
BRANCH   2   5
ATOM      5  C   UNL     1       3.478   3.575  18.107  0.00  0.00    +0.000 A 
ATOM      6  C   UNL     1       4.308   3.365  17.017  0.00  0.00    +0.000 A 
ATOM      7  C   UNL     1       5.510   4.061  17.019  0.00  0.00    +0.000 A 
ATOM      8  C   UNL     1       6.148   4.420  15.825  0.00  0.00    +0.000 A 
ATOM      9  C   UNL     1       7.002   5.514  15.836  0.00  0.00    +0.000 A 
ATOM     10  C   UNL     1       7.228   6.174  17.041  0.00  0.00    +0.000 A 
ATOM     11  F   UNL     1       7.841   7.363  17.026  0.00  0.00    +0.000 F 
ATOM     12  C   UNL     1       6.766   5.672  18.254  0.00  0.00    +0.000 A 
ATOM     13  C   UNL     1       5.924   4.586  18.264  0.00  0.00    +0.000 A 
ATOM     14  N   UNL     1       5.388   4.125  19.407  0.00  0.00    +0.000 NA
ATOM     15  C   UNL     1       4.181   3.520  19.300  0.00  0.00    +0.000 A 
ATOM     16  C   UNL     1       3.811   2.495  20.334  0.00  0.00    +0.000 C 
ENDBRANCH   2   5
BRANCH   1  20
ATOM     17  C   UNL     1       1.086   9.810  19.237  0.00  0.00    +0.000 A 
ATOM     18  C   UNL     1       1.635   9.371  18.022  0.00  0.00    +0.000 A 
ATOM     19  C   UNL     1       2.266   8.118  17.866  0.00  0.00    +0.000 A 
ATOM     20  C   UNL     1       2.409   7.251  18.954  0.00  0.00    +0.000 A 
ATOM     21  C   UNL     1       1.813   7.642  20.158  0.00  0.00    +0.000 A 
ATOM     22  C   UNL     1       1.153   8.888  20.290  0.00  0.00    +0.000 A 
BRANCH  17  28
ATOM     23  C   UNL     1      -2.671  12.765  20.378  0.00  0.00    +0.000 C 
ATOM     24  C   UNL     1      -1.240  12.586  19.946  0.00  0.00    +0.000 A 
ATOM     25  C   UNL     1      -0.418  13.696  19.866  0.00  0.00    +0.000 A 
ATOM     26  C   UNL     1       0.879  13.451  19.505  0.00  0.00    +0.000 A 
ATOM     27  N   UNL     1       1.374  12.226  19.252  0.00  0.00    +0.000 NA
ATOM     28  C   UNL     1       0.523  11.183  19.391  0.00  0.00    +0.000 A 
ATOM     29  N   UNL     1      -0.779  11.328  19.734  0.00  0.00    +0.000 NA
ENDBRANCH  17  28
ENDBRANCH   1  20
TORSDOF 3
ENDMDL
MODEL 6
REMARK VINA RESULT:      -9.4      0.978      1.241
REMARK  Name = 
REMARK  5 active torsions:
REMARK  status: ('A' for Active; 'I' for Inactive)
REMARK    1  A    between atoms: C_1  and  C_2
REMARK    2  A    between atoms: C_6  and  C_7
REMARK    3  A    between atoms: C_10  and  N_11
REMARK    4  A    between atoms: C_12  and  C_14
REMARK    5  A    between atoms: C_24  and  C_25
REMARK                            x       y       z     vdW  Elec       q    Type
REMARK                         _______ _______ _______ _____ _____    ______ ____
ROOT
ATOM      1  N   UNL     1       3.160   6.056  18.746  0.00  0.00    +0.000 N 
ATOM      2  C   UNL     1       2.597   4.921  18.111  0.00  0.00    +0.000 C 
ATOM      3  O   UNL     1       1.454   4.897  17.656  0.00  0.00    +0.000 OA
ATOM      4  H   UNL     1       3.936   5.903  19.373  0.00  0.00    +0.000 HD
ENDROOT
BRANCH   2   5
ATOM      5  C   UNL     1       3.363   3.575  18.101  0.00  0.00    +0.000 A 
ATOM      6  C   UNL     1       4.166   3.315  17.002  0.00  0.00    +0.000 A 
ATOM      7  C   UNL     1       5.400   3.953  16.979  0.00  0.00    +0.000 A 
ATOM      8  C   UNL     1       6.036   4.268  15.773  0.00  0.00    +0.000 A 
ATOM      9  C   UNL     1       6.942   5.321  15.760  0.00  0.00    +0.000 A 
ATOM     10  C   UNL     1       7.216   5.982  16.953  0.00  0.00    +0.000 A 
ATOM     11  F   UNL     1       7.885   7.140  16.917  0.00  0.00    +0.000 F 
ATOM     12  C   UNL     1       6.748   5.515  18.178  0.00  0.00    +0.000 A 
ATOM     13  C   UNL     1       5.856   4.470  18.212  0.00  0.00    +0.000 A 
ATOM     14  N   UNL     1       5.316   4.047  19.367  0.00  0.00    +0.000 NA
ATOM     15  C   UNL     1       4.081   3.499  19.285  0.00  0.00    +0.000 A 
ATOM     16  C   UNL     1       3.677   2.503  20.334  0.00  0.00    +0.000 C 
ENDBRANCH   2   5
BRANCH   1  20
ATOM     17  C   UNL     1       0.986   9.759  19.264  0.00  0.00    +0.000 A 
ATOM     18  C   UNL     1       1.167   8.820  20.294  0.00  0.00    +0.000 A 
ATOM     19  C   UNL     1       1.914   7.633  20.137  0.00  0.00    +0.000 A 
ATOM     20  C   UNL     1       2.493   7.312  18.905  0.00  0.00    +0.000 A 
ATOM     21  C   UNL     1       2.379   8.263  17.885  0.00  0.00    +0.000 A 
ATOM     22  C   UNL     1       1.655   9.466  18.068  0.00  0.00    +0.000 A 
BRANCH  17  28
ATOM     23  C   UNL     1       0.427  14.626  19.642  0.00  0.00    +0.000 C 
ATOM     24  C   UNL     1      -0.173  13.245  19.595  0.00  0.00    +0.000 A 
ATOM     25  C   UNL     1      -1.550  13.113  19.536  0.00  0.00    +0.000 A 
ATOM     26  C   UNL     1      -2.020  11.830  19.456  0.00  0.00    +0.000 A 
ATOM     27  N   UNL     1      -1.235  10.738  19.415  0.00  0.00    +0.000 NA
ATOM     28  C   UNL     1       0.101  10.947  19.434  0.00  0.00    +0.000 A 
ATOM     29  N   UNL     1       0.660  12.178  19.523  0.00  0.00    +0.000 NA
ENDBRANCH  17  28
ENDBRANCH   1  20
TORSDOF 3
ENDMDL
MODEL 7
REMARK VINA RESULT:      -9.4      0.606      1.644
REMARK  Name = 
REMARK  5 active torsions:
REMARK  status: ('A' for Active; 'I' for Inactive)
REMARK    1  A    between atoms: C_1  and  C_2
REMARK    2  A    between atoms: C_6  and  C_7
REMARK    3  A    between atoms: C_10  and  N_11
REMARK    4  A    between atoms: C_12  and  C_14
REMARK    5  A    between atoms: C_24  and  C_25
REMARK                            x       y       z     vdW  Elec       q    Type
REMARK                         _______ _______ _______ _____ _____    ______ ____
ROOT
ATOM      1  N   UNL     1       3.084   5.827  19.229  0.00  0.00    +0.000 N 
ATOM      2  C   UNL     1       2.652   4.846  18.302  0.00  0.00    +0.000 C 
ATOM      3  O   UNL     1       1.587   4.914  17.690  0.00  0.00    +0.000 OA
ATOM      4  H   UNL     1       3.767   5.550  19.917  0.00  0.00    +0.000 HD
ENDROOT
BRANCH   2   5
ATOM      5  C   UNL     1       3.454   3.531  18.130  0.00  0.00    +0.000 A 
ATOM      6  C   UNL     1       4.204   3.397  16.972  0.00  0.00    +0.000 A 
ATOM      7  C   UNL     1       5.416   4.074  16.945  0.00  0.00    +0.000 A 
ATOM      8  C   UNL     1       5.978   4.517  15.741  0.00  0.00    +0.000 A 
ATOM      9  C   UNL     1       6.851   5.596  15.777  0.00  0.00    +0.000 A 
ATOM     10  C   UNL     1       7.172   6.155  17.010  0.00  0.00    +0.000 A 
ATOM     11  F   UNL     1       7.804   7.334  17.045  0.00  0.00    +0.000 F 
ATOM     12  C   UNL     1       6.783   5.567  18.210  0.00  0.00    +0.000 A 
ATOM     13  C   UNL     1       5.924   4.494  18.195  0.00  0.00    +0.000 A 
ATOM     14  N   UNL     1       5.458   3.952  19.333  0.00  0.00    +0.000 NA
ATOM     15  C   UNL     1       4.236   3.374  19.264  0.00  0.00    +0.000 A 
ATOM     16  C   UNL     1       3.917   2.276  20.238  0.00  0.00    +0.000 C 
ENDBRANCH   2   5
BRANCH   1  20
ATOM     17  C   UNL     1       1.058   9.537  20.144  0.00  0.00    +0.000 A 
ATOM     18  C   UNL     1       1.646   9.267  18.898  0.00  0.00    +0.000 A 
ATOM     19  C   UNL     1       2.268   8.040  18.584  0.00  0.00    +0.000 A 
ATOM     20  C   UNL     1       2.362   7.023  19.540  0.00  0.00    +0.000 A 
ATOM     21  C   UNL     1       1.727   7.247  20.767  0.00  0.00    +0.000 A 
ATOM     22  C   UNL     1       1.077   8.471  21.054  0.00  0.00    +0.000 A 
BRANCH  17  28
ATOM     23  C   UNL     1      -0.424  13.997  18.709  0.00  0.00    +0.000 C 
ATOM     24  C   UNL     1      -0.213  12.983  19.803  0.00  0.00    +0.000 A 
ATOM     25  C   UNL     1      -0.695  13.254  21.072  0.00  0.00    +0.000 A 
ATOM     26  C   UNL     1      -0.501  12.271  22.003  0.00  0.00    +0.000 A 
ATOM     27  N   UNL     1       0.098  11.094  21.748  0.00  0.00    +0.000 NA
ATOM     28  C   UNL     1       0.506  10.882  20.475  0.00  0.00    +0.000 A 
ATOM     29  N   UNL     1       0.367  11.799  19.487  0.00  0.00    +0.000 NA
ENDBRANCH  17  28
ENDBRANCH   1  20
TORSDOF 3
ENDMDL
MODEL 8
REMARK VINA RESULT:      -9.0      2.380      3.824
REMARK  Name = 
REMARK  5 active torsions:
REMARK  status: ('A' for Active; 'I' for Inactive)
REMARK    1  A    between atoms: C_1  and  C_2
REMARK    2  A    between atoms: C_6  and  C_7
REMARK    3  A    between atoms: C_10  and  N_11
REMARK    4  A    between atoms: C_12  and  C_14
REMARK    5  A    between atoms: C_24  and  C_25
REMARK                            x       y       z     vdW  Elec       q    Type
REMARK                         _______ _______ _______ _____ _____    ______ ____
ROOT
ATOM      1  N   UNL     1       3.357   6.365  18.943  0.00  0.00    +0.000 N 
ATOM      2  C   UNL     1       4.408   6.234  18.001  0.00  0.00    +0.000 C 
ATOM      3  O   UNL     1       4.639   7.066  17.123  0.00  0.00    +0.000 OA
ATOM      4  H   UNL     1       3.024   5.524  19.390  0.00  0.00    +0.000 HD
ENDROOT
BRANCH   2   5
ATOM      5  C   UNL     1       5.237   4.927  17.936  0.00  0.00    +0.000 A 
ATOM      6  C   UNL     1       5.137   4.063  19.016  0.00  0.00    +0.000 A 
ATOM      7  C   UNL     1       3.997   3.272  19.064  0.00  0.00    +0.000 A 
ATOM      8  C   UNL     1       3.472   2.822  20.282  0.00  0.00    +0.000 A 
ATOM      9  C   UNL     1       2.119   2.515  20.345  0.00  0.00    +0.000 A 
ATOM     10  C   UNL     1       1.356   2.617  19.186  0.00  0.00    +0.000 A 
ATOM     11  F   UNL     1       0.022   2.568  19.279  0.00  0.00    +0.000 F 
ATOM     12  C   UNL     1       1.934   2.848  17.941  0.00  0.00    +0.000 A 
ATOM     13  C   UNL     1       3.273   3.147  17.857  0.00  0.00    +0.000 A 
ATOM     14  N   UNL     1       3.850   3.461  16.685  0.00  0.00    +0.000 NA
ATOM     15  C   UNL     1       4.916   4.293  16.746  0.00  0.00    +0.000 A 
ATOM     16  C   UNL     1       5.938   4.214  15.648  0.00  0.00    +0.000 C 
ENDBRANCH   2   5
BRANCH   1  20
ATOM     17  C   UNL     1       0.531   9.627  19.216  0.00  0.00    +0.000 A 
ATOM     18  C   UNL     1       0.938   8.865  20.324  0.00  0.00    +0.000 A 
ATOM     19  C   UNL     1       1.894   7.830  20.242  0.00  0.00    +0.000 A 
ATOM     20  C   UNL     1       2.466   7.483  19.014  0.00  0.00    +0.000 A 
ATOM     21  C   UNL     1       2.123   8.270  17.910  0.00  0.00    +0.000 A 
ATOM     22  C   UNL     1       1.187   9.329  18.014  0.00  0.00    +0.000 A 
BRANCH  17  28
ATOM     23  C   UNL     1      -3.755  11.439  17.638  0.00  0.00    +0.000 C 
ATOM     24  C   UNL     1      -2.592  11.490  18.593  0.00  0.00    +0.000 A 
ATOM     25  C   UNL     1      -2.638  12.368  19.662  0.00  0.00    +0.000 A 
ATOM     26  C   UNL     1      -1.564  12.331  20.508  0.00  0.00    +0.000 A 
ATOM     27  N   UNL     1      -0.516  11.500  20.364  0.00  0.00    +0.000 NA
ATOM     28  C   UNL     1      -0.559  10.640  19.320  0.00  0.00    +0.000 A 
ATOM     29  N   UNL     1      -1.575  10.610  18.424  0.00  0.00    +0.000 NA
ENDBRANCH  17  28
ENDBRANCH   1  20
TORSDOF 3
ENDMDL
MODEL 9
REMARK VINA RESULT:      -8.9      1.115      1.578
REMARK  Name = 
REMARK  5 active torsions:
REMARK  status: ('A' for Active; 'I' for Inactive)
REMARK    1  A    between atoms: C_1  and  C_2
REMARK    2  A    between atoms: C_6  and  C_7
REMARK    3  A    between atoms: C_10  and  N_11
REMARK    4  A    between atoms: C_12  and  C_14
REMARK    5  A    between atoms: C_24  and  C_25
REMARK                            x       y       z     vdW  Elec       q    Type
REMARK                         _______ _______ _______ _____ _____    ______ ____
ROOT
ATOM      1  N   UNL     1       2.791   6.318  18.047  0.00  0.00    +0.000 N 
ATOM      2  C   UNL     1       2.593   4.944  18.334  0.00  0.00    +0.000 C 
ATOM      3  O   UNL     1       1.947   4.540  19.300  0.00  0.00    +0.000 OA
ATOM      4  H   UNL     1       3.580   6.565  17.469  0.00  0.00    +0.000 HD
ENDROOT
BRANCH   2   5
ATOM      5  C   UNL     1       3.334   3.862  17.508  0.00  0.00    +0.000 A 
ATOM      6  C   UNL     1       4.197   4.306  16.519  0.00  0.00    +0.000 A 
ATOM      7  C   UNL     1       5.441   4.751  16.946  0.00  0.00    +0.000 A 
ATOM      8  C   UNL     1       6.156   5.718  16.229  0.00  0.00    +0.000 A 
ATOM      9  C   UNL     1       7.080   6.498  16.912  0.00  0.00    +0.000 A 
ATOM     10  C   UNL     1       7.294   6.251  18.264  0.00  0.00    +0.000 A 
ATOM     11  F   UNL     1       7.984   7.140  18.987  0.00  0.00    +0.000 F 
ATOM     12  C   UNL     1       6.743   5.146  18.907  0.00  0.00    +0.000 A 
ATOM     13  C   UNL     1       5.831   4.358  18.246  0.00  0.00    +0.000 A 
ATOM     14  N   UNL     1       5.214   3.335  18.859  0.00  0.00    +0.000 NA
ATOM     15  C   UNL     1       3.976   3.025  18.407  0.00  0.00    +0.000 A 
ATOM     16  C   UNL     1       3.491   1.614  18.583  0.00  0.00    +0.000 C 
ENDBRANCH   2   5
BRANCH   1  20
ATOM     17  C   UNL     1       0.993   9.457  20.416  0.00  0.00    +0.000 A 
ATOM     18  C   UNL     1       1.470   8.255  20.965  0.00  0.00    +0.000 A 
ATOM     19  C   UNL     1       2.097   7.250  20.198  0.00  0.00    +0.000 A 
ATOM     20  C   UNL     1       2.242   7.394  18.814  0.00  0.00    +0.000 A 
ATOM     21  C   UNL     1       1.831   8.611  18.258  0.00  0.00    +0.000 A 
ATOM     22  C   UNL     1       1.235   9.624  19.046  0.00  0.00    +0.000 A 
BRANCH  17  28
ATOM     23  C   UNL     1      -0.832  13.981  21.010  0.00  0.00    +0.000 C 
ATOM     24  C   UNL     1      -0.641  12.576  21.518  0.00  0.00    +0.000 A 
ATOM     25  C   UNL     1      -1.315  12.177  22.659  0.00  0.00    +0.000 A 
ATOM     26  C   UNL     1      -1.124  10.876  23.038  0.00  0.00    +0.000 A 
ATOM     27  N   UNL     1      -0.355   9.999  22.368  0.00  0.00    +0.000 NA
ATOM     28  C   UNL     1       0.239  10.448  21.239  0.00  0.00    +0.000 A 
ATOM     29  N   UNL     1       0.118  11.721  20.790  0.00  0.00    +0.000 NA
ENDBRANCH  17  28
ENDBRANCH   1  20
TORSDOF 3
ENDMDL
