MODEL 1
REMARK VINA RESULT:      -9.7      0.000      0.000
REMARK  Name = 
REMARK  7 active torsions:
REMARK  status: ('A' for Active; 'I' for Inactive)
REMARK    1  A    between atoms: C_1  and  N_2
REMARK    2  A    between atoms: C_10  and  C_11
REMARK    3  A    between atoms: N_17  and  C_18
REMARK    4  A    between atoms: C_22  and  C_23
REMARK    5  A    between atoms: C_23  and  C_24
REMARK    6  A    between atoms: C_24  and  C_25
REMARK    7  A    between atoms: N_29  and  C_30
REMARK                            x       y       z     vdW  Elec       q    Type
REMARK                         _______ _______ _______ _____ _____    ______ ____
ROOT
ATOM      1  C   UNL     1      -1.947  11.792  22.510  0.00  0.00    +0.000 C 
ATOM      2  N   UNL     1      -1.522  11.908  21.119  0.00  0.00    +0.000 N 
ATOM      3  C   UNL     1      -2.077  12.936  20.384  0.00  0.00    +0.000 C 
ATOM      4  N   UNL     1      -1.916  13.285  19.161  0.00  0.00    +0.000 NA
ATOM      5  C   UNL     1      -0.999  12.463  18.396  0.00  0.00    +0.000 C 
ATOM      6  C   UNL     1      -0.283  11.353  19.134  0.00  0.00    +0.000 A 
ATOM      7  C   UNL     1       0.632  10.612  18.370  0.00  0.00    +0.000 A 
ATOM      8  C   UNL     1       1.238   9.542  18.967  0.00  0.00    +0.000 A 
ATOM      9  C   UNL     1       0.988   9.183  20.282  0.00  0.00    +0.000 A 
ATOM     10  C   UNL     1       0.109   9.932  21.101  0.00  0.00    +0.000 A 
ATOM     11  C   UNL     1      -0.568  11.052  20.513  0.00  0.00    +0.000 A 
ATOM     12  C   UNL     1       1.731   7.902  20.563  0.00  0.00    +0.000 C 
ATOM     13  N   UNL     1       2.271   7.518  19.267  0.00  0.00    +0.000 N 
ATOM     14  C   UNL     1       2.089   8.534  18.332  0.00  0.00    +0.000 C 
ATOM     15  O   UNL     1       2.468   8.650  17.181  0.00  0.00    +0.000 OA
ENDROOT
BRANCH  13  16
ATOM     16  C   UNL     1       2.647   6.180  18.969  0.00  0.00    +0.000 A 
ATOM     17  C   UNL     1       2.415   5.150  19.892  0.00  0.00    +0.000 A 
ATOM     18  C   UNL     1       2.902   3.860  19.677  0.00  0.00    +0.000 A 
ATOM     19  C   UNL     1       3.636   3.574  18.533  0.00  0.00    +0.000 A 
ATOM     20  C   UNL     1       3.884   4.574  17.588  0.00  0.00    +0.000 A 
ATOM     21  C   UNL     1       3.359   5.865  17.798  0.00  0.00    +0.000 A 
BRANCH  20  22
ATOM     22  C   UNL     1       4.769   4.274  16.399  0.00  0.00    +0.000 C 
BRANCH  22  23
ATOM     23  C   UNL     1       6.246   4.111  16.762  0.00  0.00    +0.000 C 
BRANCH  23  24
ATOM     24  C   UNL     1       6.912   5.430  16.984  0.00  0.00    +0.000 A 
ATOM     25  N   UNL     1       7.372   6.258  16.068  0.00  0.00    +0.000 NA
ATOM     26  N   UNL     1       7.893   7.361  16.701  0.00  0.00    +0.000 NA
ATOM     27  C   UNL     1       7.743   7.184  17.992  0.00  0.00    +0.000 A 
ATOM     28  N   UNL     1       7.139   5.988  18.218  0.00  0.00    +0.000 N 
ATOM     29  C   UNL     1       6.814   5.430  19.501  0.00  0.00    +0.000 C 
ENDBRANCH  23  24
ENDBRANCH  22  23
ENDBRANCH  20  22
ENDBRANCH  13  16
BRANCH  10  30
ATOM     30  C   UNL     1      -0.052   9.455  22.527  0.00  0.00    +0.000 C 
ATOM     31  F   UNL     1      -0.349  10.446  23.420  0.00  0.00    +0.000 F 
ATOM     32  F   UNL     1      -1.063   8.559  22.685  0.00  0.00    +0.000 F 
ATOM     33  F   UNL     1       1.072   8.878  23.030  0.00  0.00    +0.000 F 
ENDBRANCH  10  30
TORSDOF 5
ENDMDL
MODEL 2
REMARK VINA RESULT:      -9.3      1.226      2.012
REMARK  Name = 
REMARK  7 active torsions:
REMARK  status: ('A' for Active; 'I' for Inactive)
REMARK    1  A    between atoms: C_1  and  N_2
REMARK    2  A    between atoms: C_10  and  C_11
REMARK    3  A    between atoms: N_17  and  C_18
REMARK    4  A    between atoms: C_22  and  C_23
REMARK    5  A    between atoms: C_23  and  C_24
REMARK    6  A    between atoms: C_24  and  C_25
REMARK    7  A    between atoms: N_29  and  C_30
REMARK                            x       y       z     vdW  Elec       q    Type
REMARK                         _______ _______ _______ _____ _____    ______ ____
ROOT
ATOM      1  C   UNL     1      -1.921  11.972  22.601  0.00  0.00    +0.000 C 
ATOM      2  N   UNL     1      -1.513  12.045  21.202  0.00  0.00    +0.000 N 
ATOM      3  C   UNL     1      -2.067  13.059  20.446  0.00  0.00    +0.000 C 
ATOM      4  N   UNL     1      -1.919  13.373  19.213  0.00  0.00    +0.000 NA
ATOM      5  C   UNL     1      -1.021  12.519  18.458  0.00  0.00    +0.000 C 
ATOM      6  C   UNL     1      -0.307  11.422  19.216  0.00  0.00    +0.000 A 
ATOM      7  C   UNL     1       0.589  10.651  18.461  0.00  0.00    +0.000 A 
ATOM      8  C   UNL     1       1.191   9.590  19.079  0.00  0.00    +0.000 A 
ATOM      9  C   UNL     1       0.954   9.269  20.407  0.00  0.00    +0.000 A 
ATOM     10  C   UNL     1       0.095  10.051  21.217  0.00  0.00    +0.000 A 
ATOM     11  C   UNL     1      -0.577  11.162  20.607  0.00  0.00    +0.000 A 
ATOM     12  C   UNL     1       1.688   7.988  20.713  0.00  0.00    +0.000 C 
ATOM     13  N   UNL     1       2.206   7.563  19.421  0.00  0.00    +0.000 N 
ATOM     14  C   UNL     1       2.023   8.555  18.461  0.00  0.00    +0.000 C 
ATOM     15  O   UNL     1       2.387   8.636  17.302  0.00  0.00    +0.000 OA
ENDROOT
BRANCH  13  16
ATOM     16  C   UNL     1       2.563   6.213  19.154  0.00  0.00    +0.000 A 
ATOM     17  C   UNL     1       1.895   5.158  19.793  0.00  0.00    +0.000 A 
ATOM     18  C   UNL     1       2.322   3.838  19.651  0.00  0.00    +0.000 A 
ATOM     19  C   UNL     1       3.433   3.545  18.870  0.00  0.00    +0.000 A 
ATOM     20  C   UNL     1       4.122   4.569  18.215  0.00  0.00    +0.000 A 
ATOM     21  C   UNL     1       3.661   5.896  18.337  0.00  0.00    +0.000 A 
BRANCH  20  22
ATOM     22  C   UNL     1       5.387   4.248  17.451  0.00  0.00    +0.000 C 
BRANCH  22  23
ATOM     23  C   UNL     1       5.144   3.911  15.979  0.00  0.00    +0.000 C 
BRANCH  23  24
ATOM     24  C   UNL     1       6.208   4.478  15.097  0.00  0.00    +0.000 A 
ATOM     25  N   UNL     1       7.204   5.266  15.448  0.00  0.00    +0.000 NA
ATOM     26  N   UNL     1       7.957   5.540  14.332  0.00  0.00    +0.000 NA
ATOM     27  C   UNL     1       7.406   4.914  13.320  0.00  0.00    +0.000 A 
ATOM     28  N   UNL     1       6.306   4.240  13.747  0.00  0.00    +0.000 N 
ATOM     29  C   UNL     1       5.427   3.447  12.935  0.00  0.00    +0.000 C 
ENDBRANCH  23  24
ENDBRANCH  22  23
ENDBRANCH  20  22
ENDBRANCH  13  16
BRANCH  10  30
ATOM     30  C   UNL     1      -0.052   9.614  22.657  0.00  0.00    +0.000 C 
ATOM     31  F   UNL     1       1.106   9.163  23.226  0.00  0.00    +0.000 F 
ATOM     32  F   UNL     1      -0.455  10.614  23.486  0.00  0.00    +0.000 F 
ATOM     33  F   UNL     1      -0.926   8.586  22.820  0.00  0.00    +0.000 F 
ENDBRANCH  10  30
TORSDOF 5
ENDMDL
MODEL 3
REMARK VINA RESULT:      -9.3      0.825      1.194
REMARK  Name = 
REMARK  7 active torsions:
REMARK  status: ('A' for Active; 'I' for Inactive)
REMARK    1  A    between atoms: C_1  and  N_2
REMARK    2  A    between atoms: C_10  and  C_11
REMARK    3  A    between atoms: N_17  and  C_18
REMARK    4  A    between atoms: C_22  and  C_23
REMARK    5  A    between atoms: C_23  and  C_24
REMARK    6  A    between atoms: C_24  and  C_25
REMARK    7  A    between atoms: N_29  and  C_30
REMARK                            x       y       z     vdW  Elec       q    Type
REMARK                         _______ _______ _______ _____ _____    ______ ____
ROOT
ATOM      1  C   UNL     1      -1.848  11.703  23.017  0.00  0.00    +0.000 C 
ATOM      2  N   UNL     1      -1.450  11.996  21.645  0.00  0.00    +0.000 N 
ATOM      3  C   UNL     1      -1.985  13.134  21.073  0.00  0.00    +0.000 C 
ATOM      4  N   UNL     1      -1.838  13.643  19.906  0.00  0.00    +0.000 NA
ATOM      5  C   UNL     1      -0.967  12.905  19.011  0.00  0.00    +0.000 C 
ATOM      6  C   UNL     1      -0.275  11.681  19.570  0.00  0.00    +0.000 A 
ATOM      7  C   UNL     1       0.596  11.025  18.687  0.00  0.00    +0.000 A 
ATOM      8  C   UNL     1       1.177   9.863  19.115  0.00  0.00    +0.000 A 
ATOM      9  C   UNL     1       0.943   9.334  20.375  0.00  0.00    +0.000 A 
ATOM     10  C   UNL     1       0.109   9.991  21.312  0.00  0.00    +0.000 A 
ATOM     11  C   UNL     1      -0.540  11.203  20.902  0.00  0.00    +0.000 A 
ATOM     12  C   UNL     1       1.646   8.003  20.457  0.00  0.00    +0.000 C 
ATOM     13  N   UNL     1       2.144   7.785  19.107  0.00  0.00    +0.000 N 
ATOM     14  C   UNL     1       1.978   8.926  18.325  0.00  0.00    +0.000 C 
ATOM     15  O   UNL     1       2.335   9.188  17.192  0.00  0.00    +0.000 OA
ENDROOT
BRANCH  13  16
ATOM     16  C   UNL     1       2.465   6.490  18.618  0.00  0.00    +0.000 A 
ATOM     17  C   UNL     1       1.923   5.344  19.218  0.00  0.00    +0.000 A 
ATOM     18  C   UNL     1       2.334   4.065  18.843  0.00  0.00    +0.000 A 
ATOM     19  C   UNL     1       3.303   3.905  17.861  0.00  0.00    +0.000 A 
ATOM     20  C   UNL     1       3.865   5.023  17.237  0.00  0.00    +0.000 A 
ATOM     21  C   UNL     1       3.417   6.309  17.599  0.00  0.00    +0.000 A 
BRANCH  20  22
ATOM     22  C   UNL     1       4.990   4.837  16.243  0.00  0.00    +0.000 C 
BRANCH  22  23
ATOM     23  C   UNL     1       6.058   5.929  16.318  0.00  0.00    +0.000 C 
BRANCH  23  24
ATOM     24  C   UNL     1       6.887   5.810  17.555  0.00  0.00    +0.000 A 
ATOM     25  N   UNL     1       7.035   4.748  18.321  0.00  0.00    +0.000 NA
ATOM     26  N   UNL     1       7.894   5.065  19.345  0.00  0.00    +0.000 NA
ATOM     27  C   UNL     1       8.253   6.317  19.186  0.00  0.00    +0.000 A 
ATOM     28  N   UNL     1       7.645   6.827  18.084  0.00  0.00    +0.000 N 
ATOM     29  C   UNL     1       7.774   8.168  17.585  0.00  0.00    +0.000 C 
ENDBRANCH  23  24
ENDBRANCH  22  23
ENDBRANCH  20  22
ENDBRANCH  13  16
BRANCH  10  30
ATOM     30  C   UNL     1      -0.037   9.326  22.663  0.00  0.00    +0.000 C 
ATOM     31  F   UNL     1      -0.409  10.174  23.667  0.00  0.00    +0.000 F 
ATOM     32  F   UNL     1      -0.989   8.355  22.686  0.00  0.00    +0.000 F 
ATOM     33  F   UNL     1       1.116   8.763  23.112  0.00  0.00    +0.000 F 
ENDBRANCH  10  30
TORSDOF 5
ENDMDL
MODEL 4
REMARK VINA RESULT:      -9.3      3.637      9.482
REMARK  Name = 
REMARK  7 active torsions:
REMARK  status: ('A' for Active; 'I' for Inactive)
REMARK    1  A    between atoms: C_1  and  N_2
REMARK    2  A    between atoms: C_10  and  C_11
REMARK    3  A    between atoms: N_17  and  C_18
REMARK    4  A    between atoms: C_22  and  C_23
REMARK    5  A    between atoms: C_23  and  C_24
REMARK    6  A    between atoms: C_24  and  C_25
REMARK    7  A    between atoms: N_29  and  C_30
REMARK                            x       y       z     vdW  Elec       q    Type
REMARK                         _______ _______ _______ _____ _____    ______ ____
ROOT
ATOM      1  C   UNL     1       4.871   3.688  17.752  0.00  0.00    +0.000 C 
ATOM      2  N   UNL     1       3.985   3.801  18.905  0.00  0.00    +0.000 N 
ATOM      3  C   UNL     1       3.829   2.668  19.680  0.00  0.00    +0.000 C 
ATOM      4  N   UNL     1       3.126   2.451  20.730  0.00  0.00    +0.000 NA
ATOM      5  C   UNL     1       2.342   3.580  21.197  0.00  0.00    +0.000 C 
ATOM      6  C   UNL     1       2.501   4.888  20.454  0.00  0.00    +0.000 A 
ATOM      7  C   UNL     1       1.764   5.966  20.967  0.00  0.00    +0.000 A 
ATOM      8  C   UNL     1       1.804   7.147  20.279  0.00  0.00    +0.000 A 
ATOM      9  C   UNL     1       2.546   7.309  19.120  0.00  0.00    +0.000 A 
ATOM     10  C   UNL     1       3.342   6.261  18.597  0.00  0.00    +0.000 A 
ATOM     11  C   UNL     1       3.316   4.995  19.272  0.00  0.00    +0.000 A 
ATOM     12  C   UNL     1       2.263   8.686  18.576  0.00  0.00    +0.000 C 
ATOM     13  N   UNL     1       1.205   9.193  19.436  0.00  0.00    +0.000 N 
ATOM     14  C   UNL     1       0.997   8.345  20.521  0.00  0.00    +0.000 C 
ATOM     15  O   UNL     1       0.283   8.448  21.502  0.00  0.00    +0.000 OA
ENDROOT
BRANCH  13  16
ATOM     16  C   UNL     1       0.333  10.240  19.029  0.00  0.00    +0.000 A 
ATOM     17  C   UNL     1       0.386  11.495  19.652  0.00  0.00    +0.000 A 
ATOM     18  C   UNL     1      -0.552  12.487  19.364  0.00  0.00    +0.000 A 
ATOM     19  C   UNL     1      -1.567  12.242  18.448  0.00  0.00    +0.000 A 
ATOM     20  C   UNL     1      -1.649  11.004  17.804  0.00  0.00    +0.000 A 
ATOM     21  C   UNL     1      -0.677  10.021  18.076  0.00  0.00    +0.000 A 
BRANCH  20  22
ATOM     22  C   UNL     1      -2.817  10.716  16.886  0.00  0.00    +0.000 C 
BRANCH  22  23
ATOM     23  C   UNL     1      -4.051  10.182  17.617  0.00  0.00    +0.000 C 
BRANCH  23  24
ATOM     24  C   UNL     1      -5.188  11.148  17.563  0.00  0.00    +0.000 A 
ATOM     25  N   UNL     1      -5.263  12.259  16.859  0.00  0.00    +0.000 NA
ATOM     26  N   UNL     1      -6.487  12.839  17.088  0.00  0.00    +0.000 NA
ATOM     27  C   UNL     1      -7.136  12.072  17.930  0.00  0.00    +0.000 A 
ATOM     28  N   UNL     1      -6.364  11.004  18.260  0.00  0.00    +0.000 N 
ATOM     29  C   UNL     1      -6.717   9.946  19.165  0.00  0.00    +0.000 C 
ENDBRANCH  23  24
ENDBRANCH  22  23
ENDBRANCH  20  22
ENDBRANCH  13  16
BRANCH  10  30
ATOM     30  C   UNL     1       4.130   6.577  17.345  0.00  0.00    +0.000 C 
ATOM     31  F   UNL     1       3.698   7.688  16.677  0.00  0.00    +0.000 F 
ATOM     32  F   UNL     1       5.445   6.830  17.585  0.00  0.00    +0.000 F 
ATOM     33  F   UNL     1       4.080   5.587  16.415  0.00  0.00    +0.000 F 
ENDBRANCH  10  30
TORSDOF 5
ENDMDL
MODEL 5
REMARK VINA RESULT:      -9.2      1.222      1.808
REMARK  Name = 
REMARK  7 active torsions:
REMARK  status: ('A' for Active; 'I' for Inactive)
REMARK    1  A    between atoms: C_1  and  N_2
REMARK    2  A    between atoms: C_10  and  C_11
REMARK    3  A    between atoms: N_17  and  C_18
REMARK    4  A    between atoms: C_22  and  C_23
REMARK    5  A    between atoms: C_23  and  C_24
REMARK    6  A    between atoms: C_24  and  C_25
REMARK    7  A    between atoms: N_29  and  C_30
REMARK                            x       y       z     vdW  Elec       q    Type
REMARK                         _______ _______ _______ _____ _____    ______ ____
ROOT
ATOM      1  C   UNL     1      -1.530  12.466  22.366  0.00  0.00    +0.000 C 
ATOM      2  N   UNL     1      -0.919  12.361  21.045  0.00  0.00    +0.000 N 
ATOM      3  C   UNL     1      -1.098  13.431  20.192  0.00  0.00    +0.000 C 
ATOM      4  N   UNL     1      -0.701  13.630  18.989  0.00  0.00    +0.000 NA
ATOM      5  C   UNL     1       0.066  12.548  18.401  0.00  0.00    +0.000 C 
ATOM      6  C   UNL     1       0.377  11.360  19.283  0.00  0.00    +0.000 A 
ATOM      7  C   UNL     1       1.162  10.358  18.692  0.00  0.00    +0.000 A 
ATOM      8  C   UNL     1       1.396   9.223  19.419  0.00  0.00    +0.000 A 
ATOM      9  C   UNL     1       0.899   9.044  20.700  0.00  0.00    +0.000 A 
ATOM     10  C   UNL     1       0.145  10.050  21.351  0.00  0.00    +0.000 A 
ATOM     11  C   UNL     1      -0.146  11.251  20.621  0.00  0.00    +0.000 A 
ATOM     12  C   UNL     1       1.252   7.647  21.142  0.00  0.00    +0.000 C 
ATOM     13  N   UNL     1       1.834   7.039  19.956  0.00  0.00    +0.000 N 
ATOM     14  C   UNL     1       2.036   7.989  18.958  0.00  0.00    +0.000 C 
ATOM     15  O   UNL     1       2.572   7.916  17.868  0.00  0.00    +0.000 OA
ENDROOT
BRANCH  13  16
ATOM     16  C   UNL     1       1.892   5.630  19.776  0.00  0.00    +0.000 A 
ATOM     17  C   UNL     1       1.403   4.763  20.765  0.00  0.00    +0.000 A 
ATOM     18  C   UNL     1       1.578   3.382  20.669  0.00  0.00    +0.000 A 
ATOM     19  C   UNL     1       2.250   2.839  19.583  0.00  0.00    +0.000 A 
ATOM     20  C   UNL     1       2.748   3.670  18.575  0.00  0.00    +0.000 A 
ATOM     21  C   UNL     1       2.536   5.061  18.664  0.00  0.00    +0.000 A 
BRANCH  20  22
ATOM     22  C   UNL     1       3.565   3.074  17.451  0.00  0.00    +0.000 C 
BRANCH  22  23
ATOM     23  C   UNL     1       4.371   4.110  16.665  0.00  0.00    +0.000 C 
BRANCH  23  24
ATOM     24  C   UNL     1       5.727   4.321  17.255  0.00  0.00    +0.000 A 
ATOM     25  N   UNL     1       6.053   4.333  18.532  0.00  0.00    +0.000 NA
ATOM     26  N   UNL     1       7.406   4.545  18.634  0.00  0.00    +0.000 NA
ATOM     27  C   UNL     1       7.882   4.660  17.418  0.00  0.00    +0.000 A 
ATOM     28  N   UNL     1       6.869   4.533  16.521  0.00  0.00    +0.000 N 
ATOM     29  C   UNL     1       6.985   4.612  15.091  0.00  0.00    +0.000 C 
ENDBRANCH  23  24
ENDBRANCH  22  23
ENDBRANCH  20  22
ENDBRANCH  13  16
BRANCH  10  30
ATOM     30  C   UNL     1      -0.310   9.743  22.760  0.00  0.00    +0.000 C 
ATOM     31  F   UNL     1      -1.159   8.677  22.854  0.00  0.00    +0.000 F 
ATOM     32  F   UNL     1       0.712   9.422  23.599  0.00  0.00    +0.000 F 
ATOM     33  F   UNL     1      -0.993  10.767  23.339  0.00  0.00    +0.000 F 
ENDBRANCH  10  30
TORSDOF 5
ENDMDL
MODEL 6
REMARK VINA RESULT:      -9.1      3.490      9.518
REMARK  Name = 
REMARK  7 active torsions:
REMARK  status: ('A' for Active; 'I' for Inactive)
REMARK    1  A    between atoms: C_1  and  N_2
REMARK    2  A    between atoms: C_10  and  C_11
REMARK    3  A    between atoms: N_17  and  C_18
REMARK    4  A    between atoms: C_22  and  C_23
REMARK    5  A    between atoms: C_23  and  C_24
REMARK    6  A    between atoms: C_24  and  C_25
REMARK    7  A    between atoms: N_29  and  C_30
REMARK                            x       y       z     vdW  Elec       q    Type
REMARK                         _______ _______ _______ _____ _____    ______ ____
ROOT
ATOM      1  C   UNL     1       5.042   3.759  17.790  0.00  0.00    +0.000 C 
ATOM      2  N   UNL     1       4.125   3.885  18.918  0.00  0.00    +0.000 N 
ATOM      3  C   UNL     1       3.977   2.773  19.725  0.00  0.00    +0.000 C 
ATOM      4  N   UNL     1       3.255   2.572  20.764  0.00  0.00    +0.000 NA
ATOM      5  C   UNL     1       2.433   3.695  21.176  0.00  0.00    +0.000 C 
ATOM      6  C   UNL     1       2.579   4.983  20.397  0.00  0.00    +0.000 A 
ATOM      7  C   UNL     1       1.804   6.058  20.858  0.00  0.00    +0.000 A 
ATOM      8  C   UNL     1       1.833   7.218  20.134  0.00  0.00    +0.000 A 
ATOM      9  C   UNL     1       2.599   7.362  18.988  0.00  0.00    +0.000 A 
ATOM     10  C   UNL     1       3.433   6.318  18.517  0.00  0.00    +0.000 A 
ATOM     11  C   UNL     1       3.420   5.074  19.231  0.00  0.00    +0.000 A 
ATOM     12  C   UNL     1       2.298   8.714  18.395  0.00  0.00    +0.000 C 
ATOM     13  N   UNL     1       1.206   9.221  19.213  0.00  0.00    +0.000 N 
ATOM     14  C   UNL     1       0.992   8.403  20.319  0.00  0.00    +0.000 C 
ATOM     15  O   UNL     1       0.253   8.518  21.279  0.00  0.00    +0.000 OA
ENDROOT
BRANCH  13  16
ATOM     16  C   UNL     1       0.321  10.234  18.753  0.00  0.00    +0.000 A 
ATOM     17  C   UNL     1       0.611  11.589  18.969  0.00  0.00    +0.000 A 
ATOM     18  C   UNL     1      -0.310  12.587  18.651  0.00  0.00    +0.000 A 
ATOM     19  C   UNL     1      -1.545  12.250  18.113  0.00  0.00    +0.000 A 
ATOM     20  C   UNL     1      -1.869  10.911  17.880  0.00  0.00    +0.000 A 
ATOM     21  C   UNL     1      -0.918   9.912  18.172  0.00  0.00    +0.000 A 
BRANCH  20  22
ATOM     22  C   UNL     1      -3.254  10.552  17.389  0.00  0.00    +0.000 C 
BRANCH  22  23
ATOM     23  C   UNL     1      -4.244  11.717  17.446  0.00  0.00    +0.000 C 
BRANCH  23  24
ATOM     24  C   UNL     1      -5.330  11.473  18.443  0.00  0.00    +0.000 A 
ATOM     25  N   UNL     1      -6.370  10.674  18.315  0.00  0.00    +0.000 NA
ATOM     26  N   UNL     1      -7.111  10.735  19.470  0.00  0.00    +0.000 NA
ATOM     27  C   UNL     1      -6.510  11.572  20.281  0.00  0.00    +0.000 A 
ATOM     28  N   UNL     1      -5.395  12.063  19.681  0.00  0.00    +0.000 N 
ATOM     29  C   UNL     1      -4.478  13.016  20.243  0.00  0.00    +0.000 C 
ENDBRANCH  23  24
ENDBRANCH  22  23
ENDBRANCH  20  22
ENDBRANCH  13  16
BRANCH  10  30
ATOM     30  C   UNL     1       4.243   6.614  17.275  0.00  0.00    +0.000 C 
ATOM     31  F   UNL     1       3.803   7.695  16.565  0.00  0.00    +0.000 F 
ATOM     32  F   UNL     1       5.546   6.903  17.538  0.00  0.00    +0.000 F 
ATOM     33  F   UNL     1       4.236   5.596  16.374  0.00  0.00    +0.000 F 
ENDBRANCH  10  30
TORSDOF 5
ENDMDL
MODEL 7
REMARK VINA RESULT:      -9.0      0.800      1.316
REMARK  Name = 
REMARK  7 active torsions:
REMARK  status: ('A' for Active; 'I' for Inactive)
REMARK    1  A    between atoms: C_1  and  N_2
REMARK    2  A    between atoms: C_10  and  C_11
REMARK    3  A    between atoms: N_17  and  C_18
REMARK    4  A    between atoms: C_22  and  C_23
REMARK    5  A    between atoms: C_23  and  C_24
REMARK    6  A    between atoms: C_24  and  C_25
REMARK    7  A    between atoms: N_29  and  C_30
REMARK                            x       y       z     vdW  Elec       q    Type
REMARK                         _______ _______ _______ _____ _____    ______ ____
ROOT
ATOM      1  C   UNL     1      -1.518  12.202  22.499  0.00  0.00    +0.000 C 
ATOM      2  N   UNL     1      -1.003  12.256  21.136  0.00  0.00    +0.000 N 
ATOM      3  C   UNL     1      -1.343  13.366  20.388  0.00  0.00    +0.000 C 
ATOM      4  N   UNL     1      -1.060  13.693  19.181  0.00  0.00    +0.000 NA
ATOM      5  C   UNL     1      -0.246  12.737  18.453  0.00  0.00    +0.000 C 
ATOM      6  C   UNL     1       0.238  11.521  19.211  0.00  0.00    +0.000 A 
ATOM      7  C   UNL     1       1.062  10.647  18.486  0.00  0.00    +0.000 A 
ATOM      8  C   UNL     1       1.453   9.488  19.098  0.00  0.00    +0.000 A 
ATOM      9  C   UNL     1       1.075   9.165  20.391  0.00  0.00    +0.000 A 
ATOM     10  C   UNL     1       0.285  10.042  21.174  0.00  0.00    +0.000 A 
ATOM     11  C   UNL     1      -0.168  11.261  20.568  0.00  0.00    +0.000 A 
ATOM     12  C   UNL     1       1.584   7.779  20.691  0.00  0.00    +0.000 C 
ATOM     13  N   UNL     1       2.126   7.321  19.421  0.00  0.00    +0.000 N 
ATOM     14  C   UNL     1       2.164   8.359  18.493  0.00  0.00    +0.000 C 
ATOM     15  O   UNL     1       2.619   8.420  17.367  0.00  0.00    +0.000 OA
ENDROOT
BRANCH  13  16
ATOM     16  C   UNL     1       2.296   5.942  19.122  0.00  0.00    +0.000 A 
ATOM     17  C   UNL     1       1.744   4.957  19.954  0.00  0.00    +0.000 A 
ATOM     18  C   UNL     1       2.018   3.603  19.756  0.00  0.00    +0.000 A 
ATOM     19  C   UNL     1       2.855   3.206  18.722  0.00  0.00    +0.000 A 
ATOM     20  C   UNL     1       3.421   4.158  17.870  0.00  0.00    +0.000 A 
ATOM     21  C   UNL     1       3.111   5.520  18.057  0.00  0.00    +0.000 A 
BRANCH  20  22
ATOM     22  C   UNL     1       4.410   3.720  16.812  0.00  0.00    +0.000 C 
BRANCH  22  23
ATOM     23  C   UNL     1       5.365   4.830  16.371  0.00  0.00    +0.000 C 
BRANCH  23  24
ATOM     24  C   UNL     1       6.399   5.119  17.410  0.00  0.00    +0.000 A 
ATOM     25  N   UNL     1       7.102   4.247  18.104  0.00  0.00    +0.000 NA
ATOM     26  N   UNL     1       7.949   4.935  18.938  0.00  0.00    +0.000 NA
ATOM     27  C   UNL     1       7.746   6.215  18.739  0.00  0.00    +0.000 A 
ATOM     28  N   UNL     1       6.782   6.380  17.796  0.00  0.00    +0.000 N 
ATOM     29  C   UNL     1       6.270   7.633  17.313  0.00  0.00    +0.000 C 
ENDBRANCH  23  24
ENDBRANCH  22  23
ENDBRANCH  20  22
ENDBRANCH  13  16
BRANCH  10  30
ATOM     30  C   UNL     1      -0.030   9.587  22.582  0.00  0.00    +0.000 C 
ATOM     31  F   UNL     1      -0.784   8.449  22.646  0.00  0.00    +0.000 F 
ATOM     32  F   UNL     1       1.077   9.287  23.312  0.00  0.00    +0.000 F 
ATOM     33  F   UNL     1      -0.742  10.500  23.295  0.00  0.00    +0.000 F 
ENDBRANCH  10  30
TORSDOF 5
ENDMDL
MODEL 8
REMARK VINA RESULT:      -8.9      1.058      1.252
REMARK  Name = 
REMARK  7 active torsions:
REMARK  status: ('A' for Active; 'I' for Inactive)
REMARK    1  A    between atoms: C_1  and  N_2
REMARK    2  A    between atoms: C_10  and  C_11
REMARK    3  A    between atoms: N_17  and  C_18
REMARK    4  A    between atoms: C_22  and  C_23
REMARK    5  A    between atoms: C_23  and  C_24
REMARK    6  A    between atoms: C_24  and  C_25
REMARK    7  A    between atoms: N_29  and  C_30
REMARK                            x       y       z     vdW  Elec       q    Type
REMARK                         _______ _______ _______ _____ _____    ______ ____
ROOT
ATOM      1  C   UNL     1      -1.503  12.682  22.606  0.00  0.00    +0.000 C 
ATOM      2  N   UNL     1      -0.974  12.603  21.248  0.00  0.00    +0.000 N 
ATOM      3  C   UNL     1      -1.232  13.677  20.419  0.00  0.00    +0.000 C 
ATOM      4  N   UNL     1      -0.917  13.896  19.196  0.00  0.00    +0.000 NA
ATOM      5  C   UNL     1      -0.165  12.838  18.549  0.00  0.00    +0.000 C 
ATOM      6  C   UNL     1       0.230  11.649  19.397  0.00  0.00    +0.000 A 
ATOM      7  C   UNL     1       0.999  10.672  18.748  0.00  0.00    +0.000 A 
ATOM      8  C   UNL     1       1.305   9.537  19.446  0.00  0.00    +0.000 A 
ATOM      9  C   UNL     1       0.895   9.334  20.754  0.00  0.00    +0.000 A 
ATOM     10  C   UNL     1       0.160  10.316  21.462  0.00  0.00    +0.000 A 
ATOM     11  C   UNL     1      -0.204  11.516  20.764  0.00  0.00    +0.000 A 
ATOM     12  C   UNL     1       1.307   7.942  21.159  0.00  0.00    +0.000 C 
ATOM     13  N   UNL     1       1.827   7.359  19.932  0.00  0.00    +0.000 N 
ATOM     14  C   UNL     1       1.942   8.322  18.933  0.00  0.00    +0.000 C 
ATOM     15  O   UNL     1       2.410   8.271  17.811  0.00  0.00    +0.000 OA
ENDROOT
BRANCH  13  16
ATOM     16  C   UNL     1       1.905   5.953  19.734  0.00  0.00    +0.000 A 
ATOM     17  C   UNL     1       1.733   5.070  20.810  0.00  0.00    +0.000 A 
ATOM     18  C   UNL     1       1.945   3.699  20.663  0.00  0.00    +0.000 A 
ATOM     19  C   UNL     1       2.339   3.182  19.436  0.00  0.00    +0.000 A 
ATOM     20  C   UNL     1       2.517   4.030  18.339  0.00  0.00    +0.000 A 
ATOM     21  C   UNL     1       2.267   5.409  18.489  0.00  0.00    +0.000 A 
BRANCH  20  22
ATOM     22  C   UNL     1       3.044   3.468  17.038  0.00  0.00    +0.000 C 
BRANCH  22  23
ATOM     23  C   UNL     1       4.566   3.317  17.008  0.00  0.00    +0.000 C 
BRANCH  23  24
ATOM     24  C   UNL     1       5.246   4.613  16.706  0.00  0.00    +0.000 A 
ATOM     25  N   UNL     1       5.351   5.209  15.536  0.00  0.00    +0.000 NA
ATOM     26  N   UNL     1       6.040   6.385  15.706  0.00  0.00    +0.000 NA
ATOM     27  C   UNL     1       6.345   6.484  16.977  0.00  0.00    +0.000 A 
ATOM     28  N   UNL     1       5.874   5.397  17.643  0.00  0.00    +0.000 N 
ATOM     29  C   UNL     1       6.019   5.132  19.047  0.00  0.00    +0.000 C 
ENDBRANCH  23  24
ENDBRANCH  22  23
ENDBRANCH  20  22
ENDBRANCH  13  16
BRANCH  10  30
ATOM     30  C   UNL     1      -0.197   9.986  22.894  0.00  0.00    +0.000 C 
ATOM     31  F   UNL     1      -0.688  11.043  23.607  0.00  0.00    +0.000 F 
ATOM     32  F   UNL     1      -1.168   9.040  23.003  0.00  0.00    +0.000 F 
ATOM     33  F   UNL     1       0.864   9.553  23.625  0.00  0.00    +0.000 F 
ENDBRANCH  10  30
TORSDOF 5
ENDMDL
MODEL 9
REMARK VINA RESULT:      -8.8      1.175      1.755
REMARK  Name = 
REMARK  7 active torsions:
REMARK  status: ('A' for Active; 'I' for Inactive)
REMARK    1  A    between atoms: C_1  and  N_2
REMARK    2  A    between atoms: C_10  and  C_11
REMARK    3  A    between atoms: N_17  and  C_18
REMARK    4  A    between atoms: C_22  and  C_23
REMARK    5  A    between atoms: C_23  and  C_24
REMARK    6  A    between atoms: C_24  and  C_25
REMARK    7  A    between atoms: N_29  and  C_30
REMARK                            x       y       z     vdW  Elec       q    Type
REMARK                         _______ _______ _______ _____ _____    ______ ____
ROOT
ATOM      1  C   UNL     1      -1.694  12.480  22.333  0.00  0.00    +0.000 C 
ATOM      2  N   UNL     1      -1.134  12.353  20.991  0.00  0.00    +0.000 N 
ATOM      3  C   UNL     1      -1.433  13.362  20.096  0.00  0.00    +0.000 C 
ATOM      4  N   UNL     1      -1.106  13.528  18.868  0.00  0.00    +0.000 NA
ATOM      5  C   UNL     1      -0.284  12.477  18.297  0.00  0.00    +0.000 C 
ATOM      6  C   UNL     1       0.157  11.363  19.220  0.00  0.00    +0.000 A 
ATOM      7  C   UNL     1       0.990  10.394  18.641  0.00  0.00    +0.000 A 
ATOM      8  C   UNL     1       1.343   9.319  19.410  0.00  0.00    +0.000 A 
ATOM      9  C   UNL     1       0.919   9.169  20.720  0.00  0.00    +0.000 A 
ATOM     10  C   UNL     1       0.118  10.148  21.357  0.00  0.00    +0.000 A 
ATOM     11  C   UNL     1      -0.297  11.285  20.585  0.00  0.00    +0.000 A 
ATOM     12  C   UNL     1       1.397   7.827  21.213  0.00  0.00    +0.000 C 
ATOM     13  N   UNL     1       1.973   7.204  20.031  0.00  0.00    +0.000 N 
ATOM     14  C   UNL     1       2.056   8.114  18.979  0.00  0.00    +0.000 C 
ATOM     15  O   UNL     1       2.548   8.025  17.870  0.00  0.00    +0.000 OA
ENDROOT
BRANCH  13  16
ATOM     16  C   UNL     1       2.131   5.796  19.917  0.00  0.00    +0.000 A 
ATOM     17  C   UNL     1       1.189   4.923  20.481  0.00  0.00    +0.000 A 
ATOM     18  C   UNL     1       1.399   3.544  20.501  0.00  0.00    +0.000 A 
ATOM     19  C   UNL     1       2.561   3.009  19.961  0.00  0.00    +0.000 A 
ATOM     20  C   UNL     1       3.522   3.847  19.387  0.00  0.00    +0.000 A 
ATOM     21  C   UNL     1       3.283   5.235  19.340  0.00  0.00    +0.000 A 
BRANCH  20  22
ATOM     22  C   UNL     1       4.826   3.260  18.894  0.00  0.00    +0.000 C 
BRANCH  22  23
ATOM     23  C   UNL     1       5.875   4.315  18.538  0.00  0.00    +0.000 C 
BRANCH  23  24
ATOM     24  C   UNL     1       6.059   4.436  17.060  0.00  0.00    +0.000 A 
ATOM     25  N   UNL     1       5.673   3.584  16.132  0.00  0.00    +0.000 NA
ATOM     26  N   UNL     1       6.027   4.087  14.904  0.00  0.00    +0.000 NA
ATOM     27  C   UNL     1       6.624   5.237  15.105  0.00  0.00    +0.000 A 
ATOM     28  N   UNL     1       6.673   5.496  16.438  0.00  0.00    +0.000 N 
ATOM     29  C   UNL     1       7.260   6.651  17.059  0.00  0.00    +0.000 C 
ENDBRANCH  23  24
ENDBRANCH  22  23
ENDBRANCH  20  22
ENDBRANCH  13  16
BRANCH  10  30
ATOM     30  C   UNL     1      -0.250   9.881  22.800  0.00  0.00    +0.000 C 
ATOM     31  F   UNL     1       0.805   9.518  23.588  0.00  0.00    +0.000 F 
ATOM     32  F   UNL     1      -0.772  10.966  23.433  0.00  0.00    +0.000 F 
ATOM     33  F   UNL     1      -1.143   8.867  22.947  0.00  0.00    +0.000 F 
ENDBRANCH  10  30
TORSDOF 5
ENDMDL
