MODEL 1
REMARK VINA RESULT:      -9.3      0.000      0.000
REMARK  Name = 
REMARK  3 active torsions:
REMARK  status: ('A' for Active; 'I' for Inactive)
REMARK    1  A    between atoms: N_16  and  C_17
REMARK    2  A    between atoms: C_17  and  C_18
REMARK    3  A    between atoms: C_20  and  C_21
REMARK                            x       y       z     vdW  Elec       q    Type
REMARK                         _______ _______ _______ _____ _____    ______ ____
ROOT
ATOM      1  O   UNL     1       7.139   5.256  19.127  0.00  0.00    +0.000 OA
ATOM      2  C   UNL     1       6.176   4.610  18.751  0.00  0.00    +0.000 C 
ATOM      3  N   UNL     1       5.522   3.690  19.541  0.00  0.00    +0.000 N 
ATOM      4  C   UNL     1       4.208   3.381  19.017  0.00  0.00    +0.000 C 
ATOM      5  C   UNL     1       3.937   1.886  19.065  0.00  0.00    +0.000 C 
ATOM      6  C   UNL     1       2.473   1.614  18.770  0.00  0.00    +0.000 C 
ATOM      7  O   UNL     1       1.604   2.255  19.704  0.00  0.00    +0.000 OA
ATOM      8  C   UNL     1       1.861   3.581  19.921  0.00  0.00    +0.000 A 
ATOM      9  C   UNL     1       0.795   4.330  20.428  0.00  0.00    +0.000 A 
ATOM     10  C   UNL     1       0.945   5.694  20.676  0.00  0.00    +0.000 A 
ATOM     11  C   UNL     1       2.171   6.308  20.449  0.00  0.00    +0.000 A 
ATOM     12  C   UNL     1       3.244   5.556  19.970  0.00  0.00    +0.000 A 
ATOM     13  C   UNL     1       3.102   4.181  19.686  0.00  0.00    +0.000 A 
ATOM     14  C   UNL     1       4.384   3.940  17.582  0.00  0.00    +0.000 C 
ATOM     15  O   UNL     1       3.586   3.831  16.661  0.00  0.00    +0.000 OA
ATOM     16  N   UNL     1       5.496   4.740  17.582  0.00  0.00    +0.000 N 
ATOM     17  H   UNL     1       5.768   3.619  20.520  0.00  0.00    +0.000 HD
ENDROOT
BRANCH  16  18
ATOM     18  C   UNL     1       5.669   5.845  16.671  0.00  0.00    +0.000 C 
BRANCH  18  19
ATOM     19  C   UNL     1       6.142   5.419  15.342  0.00  0.00    +0.000 A 
ATOM     20  N   UNL     1       5.577   4.643  14.450  0.00  0.00    +0.000 NA
ATOM     21  C   UNL     1       6.604   4.420  13.556  0.00  0.00    +0.000 A 
ATOM     22  N   UNL     1       7.734   5.087  13.845  0.00  0.00    +0.000 NA
ATOM     23  O   UNL     1       7.431   5.745  15.034  0.00  0.00    +0.000 OA
BRANCH  21  24
ATOM     24  C   UNL     1       6.470   3.449  12.481  0.00  0.00    +0.000 A 
ATOM     25  C   UNL     1       5.190   3.026  12.091  0.00  0.00    +0.000 A 
ATOM     26  C   UNL     1       5.032   2.026  11.132  0.00  0.00    +0.000 A 
ATOM     27  C   UNL     1       6.153   1.442  10.549  0.00  0.00    +0.000 A 
ATOM     28  C   UNL     1       7.432   1.868  10.912  0.00  0.00    +0.000 A 
ATOM     29  C   UNL     1       7.591   2.870  11.872  0.00  0.00    +0.000 A 
ENDBRANCH  21  24
ENDBRANCH  18  19
ENDBRANCH  16  18
TORSDOF 3
ENDMDL
MODEL 2
REMARK VINA RESULT:      -8.6      3.670      8.799
REMARK  Name = 
REMARK  3 active torsions:
REMARK  status: ('A' for Active; 'I' for Inactive)
REMARK    1  A    between atoms: N_16  and  C_17
REMARK    2  A    between atoms: C_17  and  C_18
REMARK    3  A    between atoms: C_20  and  C_21
REMARK                            x       y       z     vdW  Elec       q    Type
REMARK                         _______ _______ _______ _____ _____    ______ ____
ROOT
ATOM      1  O   UNL     1       1.718   4.632  18.241  0.00  0.00    +0.000 OA
ATOM      2  C   UNL     1       2.838   5.112  18.258  0.00  0.00    +0.000 C 
ATOM      3  N   UNL     1       3.981   4.371  18.470  0.00  0.00    +0.000 N 
ATOM      4  C   UNL     1       5.164   5.087  18.040  0.00  0.00    +0.000 C 
ATOM      5  C   UNL     1       6.283   4.956  19.062  0.00  0.00    +0.000 C 
ATOM      6  C   UNL     1       7.583   5.477  18.476  0.00  0.00    +0.000 C 
ATOM      7  O   UNL     1       7.969   4.767  17.298  0.00  0.00    +0.000 OA
ATOM      8  C   UNL     1       6.986   4.624  16.358  0.00  0.00    +0.000 A 
ATOM      9  C   UNL     1       7.426   4.376  15.054  0.00  0.00    +0.000 A 
ATOM     10  C   UNL     1       6.508   4.225  14.016  0.00  0.00    +0.000 A 
ATOM     11  C   UNL     1       5.145   4.288  14.282  0.00  0.00    +0.000 A 
ATOM     12  C   UNL     1       4.704   4.507  15.587  0.00  0.00    +0.000 A 
ATOM     13  C   UNL     1       5.619   4.691  16.645  0.00  0.00    +0.000 A 
ATOM     14  C   UNL     1       4.563   6.512  17.947  0.00  0.00    +0.000 C 
ATOM     15  O   UNL     1       5.181   7.545  17.729  0.00  0.00    +0.000 OA
ATOM     16  N   UNL     1       3.199   6.389  17.961  0.00  0.00    +0.000 N 
ATOM     17  H   UNL     1       3.913   3.362  18.500  0.00  0.00    +0.000 HD
ENDROOT
BRANCH  16  18
ATOM     18  C   UNL     1       2.316   7.347  17.341  0.00  0.00    +0.000 C 
BRANCH  18  19
ATOM     19  C   UNL     1       1.960   8.457  18.243  0.00  0.00    +0.000 A 
ATOM     20  N   UNL     1       1.546   8.440  19.486  0.00  0.00    +0.000 NA
ATOM     21  C   UNL     1       1.139   9.743  19.683  0.00  0.00    +0.000 A 
ATOM     22  N   UNL     1       1.356  10.548  18.630  0.00  0.00    +0.000 NA
ATOM     23  O   UNL     1       1.896   9.695  17.671  0.00  0.00    +0.000 OA
BRANCH  21  24
ATOM     24  C   UNL     1       0.431  10.137  20.892  0.00  0.00    +0.000 A 
ATOM     25  C   UNL     1       0.469   9.298  22.016  0.00  0.00    +0.000 A 
ATOM     26  C   UNL     1      -0.276   9.600  23.155  0.00  0.00    +0.000 A 
ATOM     27  C   UNL     1      -1.066  10.747  23.182  0.00  0.00    +0.000 A 
ATOM     28  C   UNL     1      -1.099  11.600  22.079  0.00  0.00    +0.000 A 
ATOM     29  C   UNL     1      -0.351  11.299  20.938  0.00  0.00    +0.000 A 
ENDBRANCH  21  24
ENDBRANCH  18  19
ENDBRANCH  16  18
TORSDOF 3
ENDMDL
MODEL 3
REMARK VINA RESULT:      -8.5      1.518      2.660
REMARK  Name = 
REMARK  3 active torsions:
REMARK  status: ('A' for Active; 'I' for Inactive)
REMARK    1  A    between atoms: N_16  and  C_17
REMARK    2  A    between atoms: C_17  and  C_18
REMARK    3  A    between atoms: C_20  and  C_21
REMARK                            x       y       z     vdW  Elec       q    Type
REMARK                         _______ _______ _______ _____ _____    ______ ____
ROOT
ATOM      1  O   UNL     1       4.768   7.030  15.817  0.00  0.00    +0.000 OA
ATOM      2  C   UNL     1       4.569   6.682  16.968  0.00  0.00    +0.000 C 
ATOM      3  N   UNL     1       3.346   6.788  17.593  0.00  0.00    +0.000 N 
ATOM      4  C   UNL     1       3.279   5.949  18.772  0.00  0.00    +0.000 C 
ATOM      5  C   UNL     1       2.637   6.690  19.934  0.00  0.00    +0.000 C 
ATOM      6  C   UNL     1       2.333   5.721  21.062  0.00  0.00    +0.000 C 
ATOM      7  O   UNL     1       1.448   4.676  20.655  0.00  0.00    +0.000 OA
ATOM      8  C   UNL     1       1.794   4.042  19.494  0.00  0.00    +0.000 A 
ATOM      9  C   UNL     1       1.259   2.762  19.319  0.00  0.00    +0.000 A 
ATOM     10  C   UNL     1       1.556   2.023  18.176  0.00  0.00    +0.000 A 
ATOM     11  C   UNL     1       2.362   2.573  17.186  0.00  0.00    +0.000 A 
ATOM     12  C   UNL     1       2.872   3.861  17.345  0.00  0.00    +0.000 A 
ATOM     13  C   UNL     1       2.606   4.612  18.509  0.00  0.00    +0.000 A 
ATOM     14  C   UNL     1       4.794   5.679  18.961  0.00  0.00    +0.000 C 
ATOM     15  O   UNL     1       5.312   5.099  19.904  0.00  0.00    +0.000 OA
ATOM     16  N   UNL     1       5.426   6.032  17.798  0.00  0.00    +0.000 N 
ATOM     17  H   UNL     1       2.537   7.058  17.049  0.00  0.00    +0.000 HD
ENDROOT
BRANCH  16  18
ATOM     18  C   UNL     1       6.664   5.432  17.364  0.00  0.00    +0.000 C 
BRANCH  18  19
ATOM     19  C   UNL     1       6.713   5.224  15.905  0.00  0.00    +0.000 A 
ATOM     20  N   UNL     1       6.002   4.436  15.137  0.00  0.00    +0.000 NA
ATOM     21  C   UNL     1       6.683   4.495  13.938  0.00  0.00    +0.000 A 
ATOM     22  N   UNL     1       7.729   5.338  13.945  0.00  0.00    +0.000 NA
ATOM     23  O   UNL     1       7.754   5.818  15.252  0.00  0.00    +0.000 OA
BRANCH  21  24
ATOM     24  C   UNL     1       6.337   3.615  12.832  0.00  0.00    +0.000 A 
ATOM     25  C   UNL     1       4.991   3.462  12.468  0.00  0.00    +0.000 A 
ATOM     26  C   UNL     1       4.620   2.554  11.477  0.00  0.00    +0.000 A 
ATOM     27  C   UNL     1       5.593   1.792  10.836  0.00  0.00    +0.000 A 
ATOM     28  C   UNL     1       6.938   1.948  11.174  0.00  0.00    +0.000 A 
ATOM     29  C   UNL     1       7.311   2.859  12.166  0.00  0.00    +0.000 A 
ENDBRANCH  21  24
ENDBRANCH  18  19
ENDBRANCH  16  18
TORSDOF 3
ENDMDL
MODEL 4
REMARK VINA RESULT:      -8.3      3.463      8.818
REMARK  Name = 
REMARK  3 active torsions:
REMARK  status: ('A' for Active; 'I' for Inactive)
REMARK    1  A    between atoms: N_16  and  C_17
REMARK    2  A    between atoms: C_17  and  C_18
REMARK    3  A    between atoms: C_20  and  C_21
REMARK                            x       y       z     vdW  Elec       q    Type
REMARK                         _______ _______ _______ _____ _____    ______ ____
ROOT
ATOM      1  O   UNL     1       3.698   3.662  20.053  0.00  0.00    +0.000 OA
ATOM      2  C   UNL     1       4.289   4.561  19.482  0.00  0.00    +0.000 C 
ATOM      3  N   UNL     1       5.623   4.499  19.141  0.00  0.00    +0.000 N 
ATOM      4  C   UNL     1       5.960   5.487  18.137  0.00  0.00    +0.000 C 
ATOM      5  C   UNL     1       7.272   6.180  18.472  0.00  0.00    +0.000 C 
ATOM      6  C   UNL     1       7.739   7.006  17.287  0.00  0.00    +0.000 C 
ATOM      7  O   UNL     1       7.940   6.211  16.119  0.00  0.00    +0.000 OA
ATOM      8  C   UNL     1       6.908   5.371  15.802  0.00  0.00    +0.000 A 
ATOM      9  C   UNL     1       6.855   4.950  14.470  0.00  0.00    +0.000 A 
ATOM     10  C   UNL     1       5.837   4.101  14.037  0.00  0.00    +0.000 A 
ATOM     11  C   UNL     1       4.887   3.643  14.942  0.00  0.00    +0.000 A 
ATOM     12  C   UNL     1       4.955   4.039  16.278  0.00  0.00    +0.000 A 
ATOM     13  C   UNL     1       5.961   4.920  16.727  0.00  0.00    +0.000 A 
ATOM     14  C   UNL     1       4.716   6.401  18.272  0.00  0.00    +0.000 C 
ATOM     15  O   UNL     1       4.545   7.475  17.714  0.00  0.00    +0.000 OA
ATOM     16  N   UNL     1       3.764   5.706  18.969  0.00  0.00    +0.000 N 
ATOM     17  H   UNL     1       6.121   3.626  19.260  0.00  0.00    +0.000 HD
ENDROOT
BRANCH  16  18
ATOM     18  C   UNL     1       2.349   5.940  18.815  0.00  0.00    +0.000 C 
BRANCH  18  19
ATOM     19  C   UNL     1       1.951   7.302  19.215  0.00  0.00    +0.000 A 
ATOM     20  N   UNL     1       1.624   7.778  20.391  0.00  0.00    +0.000 NA
ATOM     21  C   UNL     1       1.111   9.020  20.077  0.00  0.00    +0.000 A 
ATOM     22  N   UNL     1       1.184   9.326  18.771  0.00  0.00    +0.000 NA
ATOM     23  O   UNL     1       1.735   8.184  18.196  0.00  0.00    +0.000 OA
BRANCH  21  24
ATOM     24  C   UNL     1       0.452   9.839  21.083  0.00  0.00    +0.000 A 
ATOM     25  C   UNL     1      -0.045   9.233  22.247  0.00  0.00    +0.000 A 
ATOM     26  C   UNL     1      -0.766   9.973  23.182  0.00  0.00    +0.000 A 
ATOM     27  C   UNL     1      -0.995  11.330  22.965  0.00  0.00    +0.000 A 
ATOM     28  C   UNL     1      -0.490  11.950  21.822  0.00  0.00    +0.000 A 
ATOM     29  C   UNL     1       0.234  11.209  20.884  0.00  0.00    +0.000 A 
ENDBRANCH  21  24
ENDBRANCH  18  19
ENDBRANCH  16  18
TORSDOF 3
ENDMDL
MODEL 5
REMARK VINA RESULT:      -8.0      3.125      8.230
REMARK  Name = 
REMARK  3 active torsions:
REMARK  status: ('A' for Active; 'I' for Inactive)
REMARK    1  A    between atoms: N_16  and  C_17
REMARK    2  A    between atoms: C_17  and  C_18
REMARK    3  A    between atoms: C_20  and  C_21
REMARK                            x       y       z     vdW  Elec       q    Type
REMARK                         _______ _______ _______ _____ _____    ______ ____
ROOT
ATOM      1  O   UNL     1       4.357   2.812  19.846  0.00  0.00    +0.000 OA
ATOM      2  C   UNL     1       4.752   3.850  19.346  0.00  0.00    +0.000 C 
ATOM      3  N   UNL     1       6.062   4.064  18.974  0.00  0.00    +0.000 N 
ATOM      4  C   UNL     1       6.176   5.179  18.056  0.00  0.00    +0.000 C 
ATOM      5  C   UNL     1       7.350   6.072  18.425  0.00  0.00    +0.000 C 
ATOM      6  C   UNL     1       7.615   7.067  17.310  0.00  0.00    +0.000 C 
ATOM      7  O   UNL     1       7.916   6.424  16.071  0.00  0.00    +0.000 OA
ATOM      8  C   UNL     1       7.043   5.437  15.701  0.00  0.00    +0.000 A 
ATOM      9  C   UNL     1       7.019   5.128  14.338  0.00  0.00    +0.000 A 
ATOM     10  C   UNL     1       6.159   4.145  13.852  0.00  0.00    +0.000 A 
ATOM     11  C   UNL     1       5.342   3.444  14.731  0.00  0.00    +0.000 A 
ATOM     12  C   UNL     1       5.386   3.731  16.095  0.00  0.00    +0.000 A 
ATOM     13  C   UNL     1       6.229   4.743  16.601  0.00  0.00    +0.000 A 
ATOM     14  C   UNL     1       4.791   5.832  18.297  0.00  0.00    +0.000 C 
ATOM     15  O   UNL     1       4.406   6.899  17.841  0.00  0.00    +0.000 OA
ATOM     16  N   UNL     1       4.009   4.916  18.948  0.00  0.00    +0.000 N 
ATOM     17  H   UNL     1       6.715   3.292  19.005  0.00  0.00    +0.000 HD
ENDROOT
BRANCH  16  18
ATOM     18  C   UNL     1       2.570   4.896  18.845  0.00  0.00    +0.000 C 
BRANCH  18  19
ATOM     19  C   UNL     1       1.939   6.074  19.467  0.00  0.00    +0.000 A 
ATOM     20  N   UNL     1       1.687   7.261  18.973  0.00  0.00    +0.000 NA
ATOM     21  C   UNL     1       1.338   7.983  20.095  0.00  0.00    +0.000 A 
ATOM     22  N   UNL     1       1.306   7.256  21.225  0.00  0.00    +0.000 NA
ATOM     23  O   UNL     1       1.711   5.989  20.810  0.00  0.00    +0.000 OA
BRANCH  21  24
ATOM     24  C   UNL     1       1.148   9.424  20.035  0.00  0.00    +0.000 A 
ATOM     25  C   UNL     1       0.746  10.115  21.189  0.00  0.00    +0.000 A 
ATOM     26  C   UNL     1       0.462  11.479  21.139  0.00  0.00    +0.000 A 
ATOM     27  C   UNL     1       0.582  12.168  19.935  0.00  0.00    +0.000 A 
ATOM     28  C   UNL     1       1.001  11.499  18.785  0.00  0.00    +0.000 A 
ATOM     29  C   UNL     1       1.286  10.132  18.833  0.00  0.00    +0.000 A 
ENDBRANCH  21  24
ENDBRANCH  18  19
ENDBRANCH  16  18
TORSDOF 3
ENDMDL
MODEL 6
REMARK VINA RESULT:      -7.9      3.960      6.533
REMARK  Name = 
REMARK  3 active torsions:
REMARK  status: ('A' for Active; 'I' for Inactive)
REMARK    1  A    between atoms: N_16  and  C_17
REMARK    2  A    between atoms: C_17  and  C_18
REMARK    3  A    between atoms: C_20  and  C_21
REMARK                            x       y       z     vdW  Elec       q    Type
REMARK                         _______ _______ _______ _____ _____    ______ ____
ROOT
ATOM      1  O   UNL     1       6.472   3.758  16.243  0.00  0.00    +0.000 OA
ATOM      2  C   UNL     1       5.657   4.339  16.939  0.00  0.00    +0.000 C 
ATOM      3  N   UNL     1       4.315   4.031  16.957  0.00  0.00    +0.000 N 
ATOM      4  C   UNL     1       3.663   4.568  18.134  0.00  0.00    +0.000 C 
ATOM      5  C   UNL     1       2.328   5.202  17.777  0.00  0.00    +0.000 C 
ATOM      6  C   UNL     1       1.548   5.512  19.042  0.00  0.00    +0.000 C 
ATOM      7  O   UNL     1       1.293   4.343  19.822  0.00  0.00    +0.000 OA
ATOM      8  C   UNL     1       2.384   3.552  20.056  0.00  0.00    +0.000 A 
ATOM      9  C   UNL     1       2.290   2.701  21.161  0.00  0.00    +0.000 A 
ATOM     10  C   UNL     1       3.349   1.859  21.496  0.00  0.00    +0.000 A 
ATOM     11  C   UNL     1       4.494   1.841  20.709  0.00  0.00    +0.000 A 
ATOM     12  C   UNL     1       4.578   2.669  19.590  0.00  0.00    +0.000 A 
ATOM     13  C   UNL     1       3.528   3.548  19.252  0.00  0.00    +0.000 A 
ATOM     14  C   UNL     1       4.747   5.589  18.563  0.00  0.00    +0.000 C 
ATOM     15  O   UNL     1       4.649   6.413  19.461  0.00  0.00    +0.000 OA
ATOM     16  N   UNL     1       5.899   5.278  17.891  0.00  0.00    +0.000 N 
ATOM     17  H   UNL     1       3.992   3.210  16.461  0.00  0.00    +0.000 HD
ENDROOT
BRANCH  16  18
ATOM     18  C   UNL     1       7.214   5.582  18.402  0.00  0.00    +0.000 C 
BRANCH  18  19
ATOM     19  C   UNL     1       7.644   6.956  18.083  0.00  0.00    +0.000 A 
ATOM     20  N   UNL     1       8.482   7.748  18.706  0.00  0.00    +0.000 NA
ATOM     21  C   UNL     1       8.265   8.959  18.084  0.00  0.00    +0.000 A 
ATOM     22  N   UNL     1       7.382   8.904  17.072  0.00  0.00    +0.000 NA
ATOM     23  O   UNL     1       6.965   7.575  17.074  0.00  0.00    +0.000 OA
BRANCH  21  24
ATOM     24  C   UNL     1       8.866  10.185  18.589  0.00  0.00    +0.000 A 
ATOM     25  C   UNL     1       9.356  10.220  19.904  0.00  0.00    +0.000 A 
ATOM     26  C   UNL     1       9.849  11.405  20.448  0.00  0.00    +0.000 A 
ATOM     27  C   UNL     1       9.861  12.567  19.681  0.00  0.00    +0.000 A 
ATOM     28  C   UNL     1       9.396  12.542  18.366  0.00  0.00    +0.000 A 
ATOM     29  C   UNL     1       8.903  11.355  17.819  0.00  0.00    +0.000 A 
ENDBRANCH  21  24
ENDBRANCH  18  19
ENDBRANCH  16  18
TORSDOF 3
ENDMDL
MODEL 7
REMARK VINA RESULT:      -7.7      6.543      9.048
REMARK  Name = 
REMARK  3 active torsions:
REMARK  status: ('A' for Active; 'I' for Inactive)
REMARK    1  A    between atoms: N_16  and  C_17
REMARK    2  A    between atoms: C_17  and  C_18
REMARK    3  A    between atoms: C_20  and  C_21
REMARK                            x       y       z     vdW  Elec       q    Type
REMARK                         _______ _______ _______ _____ _____    ______ ____
ROOT
ATOM      1  O   UNL     1      -0.314   9.663  17.722  0.00  0.00    +0.000 OA
ATOM      2  C   UNL     1       0.165  10.548  18.410  0.00  0.00    +0.000 C 
ATOM      3  N   UNL     1       0.139  11.881  18.062  0.00  0.00    +0.000 N 
ATOM      4  C   UNL     1       0.394  12.733  19.205  0.00  0.00    +0.000 C 
ATOM      5  C   UNL     1       1.358  13.853  18.848  0.00  0.00    +0.000 C 
ATOM      6  C   UNL     1       1.400  14.877  19.968  0.00  0.00    +0.000 C 
ATOM      7  O   UNL     1       0.119  15.455  20.220  0.00  0.00    +0.000 OA
ATOM      8  C   UNL     1      -0.905  14.560  20.363  0.00  0.00    +0.000 A 
ATOM      9  C   UNL     1      -2.026  15.025  21.056  0.00  0.00    +0.000 A 
ATOM     10  C   UNL     1      -3.123  14.191  21.267  0.00  0.00    +0.000 A 
ATOM     11  C   UNL     1      -3.117  12.898  20.758  0.00  0.00    +0.000 A 
ATOM     12  C   UNL     1      -2.011  12.441  20.042  0.00  0.00    +0.000 A 
ATOM     13  C   UNL     1      -0.881  13.262  19.843  0.00  0.00    +0.000 A 
ATOM     14  C   UNL     1       0.990  11.673  20.166  0.00  0.00    +0.000 C 
ATOM     15  O   UNL     1       1.489  11.890  21.261  0.00  0.00    +0.000 OA
ATOM     16  N   UNL     1       0.687  10.437  19.660  0.00  0.00    +0.000 N 
ATOM     17  H   UNL     1      -0.401  12.168  17.256  0.00  0.00    +0.000 HD
ENDROOT
BRANCH  16  18
ATOM     18  C   UNL     1       0.547   9.262  20.486  0.00  0.00    +0.000 C 
BRANCH  18  19
ATOM     19  C   UNL     1       1.481   8.186  20.107  0.00  0.00    +0.000 A 
ATOM     20  N   UNL     1       2.272   8.077  19.068  0.00  0.00    +0.000 NA
ATOM     21  C   UNL     1       2.681   6.762  19.141  0.00  0.00    +0.000 A 
ATOM     22  N   UNL     1       2.219   6.106  20.219  0.00  0.00    +0.000 NA
ATOM     23  O   UNL     1       1.417   7.048  20.858  0.00  0.00    +0.000 OA
BRANCH  21  24
ATOM     24  C   UNL     1       3.443   6.149  18.064  0.00  0.00    +0.000 A 
ATOM     25  C   UNL     1       3.389   4.758  17.887  0.00  0.00    +0.000 A 
ATOM     26  C   UNL     1       4.182   4.131  16.927  0.00  0.00    +0.000 A 
ATOM     27  C   UNL     1       5.036   4.890  16.131  0.00  0.00    +0.000 A 
ATOM     28  C   UNL     1       5.085   6.276  16.282  0.00  0.00    +0.000 A 
ATOM     29  C   UNL     1       4.290   6.906  17.243  0.00  0.00    +0.000 A 
ENDBRANCH  21  24
ENDBRANCH  18  19
ENDBRANCH  16  18
TORSDOF 3
ENDMDL
MODEL 8
REMARK VINA RESULT:      -7.7      5.027      8.423
REMARK  Name = 
REMARK  3 active torsions:
REMARK  status: ('A' for Active; 'I' for Inactive)
REMARK    1  A    between atoms: N_16  and  C_17
REMARK    2  A    between atoms: C_17  and  C_18
REMARK    3  A    between atoms: C_20  and  C_21
REMARK                            x       y       z     vdW  Elec       q    Type
REMARK                         _______ _______ _______ _____ _____    ______ ____
ROOT
ATOM      1  O   UNL     1       1.368   7.762  20.639  0.00  0.00    +0.000 OA
ATOM      2  C   UNL     1       2.244   7.327  19.912  0.00  0.00    +0.000 C 
ATOM      3  N   UNL     1       3.161   6.378  20.309  0.00  0.00    +0.000 N 
ATOM      4  C   UNL     1       3.803   5.753  19.172  0.00  0.00    +0.000 C 
ATOM      5  C   UNL     1       5.301   5.617  19.397  0.00  0.00    +0.000 C 
ATOM      6  C   UNL     1       5.907   4.727  18.327  0.00  0.00    +0.000 C 
ATOM      7  O   UNL     1       5.335   3.418  18.323  0.00  0.00    +0.000 OA
ATOM      8  C   UNL     1       3.968   3.381  18.327  0.00  0.00    +0.000 A 
ATOM      9  C   UNL     1       3.392   2.198  17.857  0.00  0.00    +0.000 A 
ATOM     10  C   UNL     1       2.006   2.058  17.808  0.00  0.00    +0.000 A 
ATOM     11  C   UNL     1       1.190   3.088  18.260  0.00  0.00    +0.000 A 
ATOM     12  C   UNL     1       1.764   4.259  18.755  0.00  0.00    +0.000 A 
ATOM     13  C   UNL     1       3.164   4.429  18.785  0.00  0.00    +0.000 A 
ATOM     14  C   UNL     1       3.425   6.789  18.083  0.00  0.00    +0.000 C 
ATOM     15  O   UNL     1       3.823   6.800  16.926  0.00  0.00    +0.000 OA
ATOM     16  N   UNL     1       2.421   7.573  18.587  0.00  0.00    +0.000 N 
ATOM     17  H   UNL     1       3.043   5.926  21.207  0.00  0.00    +0.000 HD
ENDROOT
BRANCH  16  18
ATOM     18  C   UNL     1       1.441   8.226  17.754  0.00  0.00    +0.000 C 
BRANCH  18  19
ATOM     19  C   UNL     1       1.296   9.660  18.065  0.00  0.00    +0.000 A 
ATOM     20  N   UNL     1       2.198  10.609  18.124  0.00  0.00    +0.000 NA
ATOM     21  C   UNL     1       1.499  11.647  18.706  0.00  0.00    +0.000 A 
ATOM     22  N   UNL     1       0.203  11.374  18.932  0.00  0.00    +0.000 NA
ATOM     23  O   UNL     1       0.068  10.053  18.512  0.00  0.00    +0.000 OA
BRANCH  21  24
ATOM     24  C   UNL     1       2.174  12.864  19.131  0.00  0.00    +0.000 A 
ATOM     25  C   UNL     1       2.924  13.598  18.198  0.00  0.00    +0.000 A 
ATOM     26  C   UNL     1       3.659  14.713  18.596  0.00  0.00    +0.000 A 
ATOM     27  C   UNL     1       3.650  15.110  19.930  0.00  0.00    +0.000 A 
ATOM     28  C   UNL     1       2.893  14.402  20.865  0.00  0.00    +0.000 A 
ATOM     29  C   UNL     1       2.155  13.285  20.468  0.00  0.00    +0.000 A 
ENDBRANCH  21  24
ENDBRANCH  18  19
ENDBRANCH  16  18
TORSDOF 3
ENDMDL
MODEL 9
REMARK VINA RESULT:      -7.6      8.918     12.136
REMARK  Name = 
REMARK  3 active torsions:
REMARK  status: ('A' for Active; 'I' for Inactive)
REMARK    1  A    between atoms: N_16  and  C_17
REMARK    2  A    between atoms: C_17  and  C_18
REMARK    3  A    between atoms: C_20  and  C_21
REMARK                            x       y       z     vdW  Elec       q    Type
REMARK                         _______ _______ _______ _____ _____    ______ ____
ROOT
ATOM      1  O   UNL     1      -1.412  15.464  21.448  0.00  0.00    +0.000 OA
ATOM      2  C   UNL     1      -2.422  14.785  21.510  0.00  0.00    +0.000 C 
ATOM      3  N   UNL     1      -3.430  14.834  20.572  0.00  0.00    +0.000 N 
ATOM      4  C   UNL     1      -4.288  13.670  20.655  0.00  0.00    +0.000 C 
ATOM      5  C   UNL     1      -5.754  14.064  20.555  0.00  0.00    +0.000 C 
ATOM      6  C   UNL     1      -6.611  12.825  20.372  0.00  0.00    +0.000 C 
ATOM      7  O   UNL     1      -6.264  12.093  19.196  0.00  0.00    +0.000 OA
ATOM      8  C   UNL     1      -4.928  11.837  19.044  0.00  0.00    +0.000 A 
ATOM      9  C   UNL     1      -4.608  10.765  18.207  0.00  0.00    +0.000 A 
ATOM     10  C   UNL     1      -3.277  10.411  17.991  0.00  0.00    +0.000 A 
ATOM     11  C   UNL     1      -2.259  11.148  18.585  0.00  0.00    +0.000 A 
ATOM     12  C   UNL     1      -2.577  12.236  19.398  0.00  0.00    +0.000 A 
ATOM     13  C   UNL     1      -3.919  12.591  19.651  0.00  0.00    +0.000 A 
ATOM     14  C   UNL     1      -3.870  13.163  22.059  0.00  0.00    +0.000 C 
ATOM     15  O   UNL     1      -4.387  12.244  22.679  0.00  0.00    +0.000 OA
ATOM     16  N   UNL     1      -2.703  13.794  22.398  0.00  0.00    +0.000 N 
ATOM     17  H   UNL     1      -3.288  15.369  19.725  0.00  0.00    +0.000 HD
ENDROOT
BRANCH  16  18
ATOM     18  C   UNL     1      -1.728  13.218  23.292  0.00  0.00    +0.000 C 
BRANCH  18  19
ATOM     19  C   UNL     1      -0.976  12.110  22.675  0.00  0.00    +0.000 A 
ATOM     20  N   UNL     1      -0.090  12.121  21.710  0.00  0.00    +0.000 NA
ATOM     21  C   UNL     1       0.046  10.780  21.416  0.00  0.00    +0.000 A 
ATOM     22  N   UNL     1      -0.672   9.971  22.212  0.00  0.00    +0.000 NA
ATOM     23  O   UNL     1      -1.356  10.852  23.045  0.00  0.00    +0.000 OA
BRANCH  21  24
ATOM     24  C   UNL     1       0.813  10.336  20.262  0.00  0.00    +0.000 A 
ATOM     25  C   UNL     1       1.222  11.276  19.304  0.00  0.00    +0.000 A 
ATOM     26  C   UNL     1       1.873  10.869  18.140  0.00  0.00    +0.000 A 
ATOM     27  C   UNL     1       2.126   9.517  17.924  0.00  0.00    +0.000 A 
ATOM     28  C   UNL     1       1.743   8.573  18.877  0.00  0.00    +0.000 A 
ATOM     29  C   UNL     1       1.091   8.980  20.045  0.00  0.00    +0.000 A 
ENDBRANCH  21  24
ENDBRANCH  18  19
ENDBRANCH  16  18
TORSDOF 3
ENDMDL
