MODEL 1
REMARK VINA RESULT:      -8.5      0.000      0.000
REMARK  Name = 
REMARK  5 active torsions:
REMARK  status: ('A' for Active; 'I' for Inactive)
REMARK    1  A    between atoms: C_2  and  C_3
REMARK    2  A    between atoms: C_3  and  C_4
REMARK    3  A    between atoms: N_11  and  C_12
REMARK    4  A    between atoms: C_16  and  C_17
REMARK    5  A    between atoms: C_20  and  C_21
REMARK                            x       y       z     vdW  Elec       q    Type
REMARK                         _______ _______ _______ _____ _____    ______ ____
ROOT
ATOM      1  C   UNL     1       6.633   6.792  16.932  0.00  0.00    +0.000 A 
ATOM      2  C   UNL     1       7.426   5.829  16.305  0.00  0.00    +0.000 A 
ATOM      3  C   UNL     1       7.000   4.504  16.212  0.00  0.00    +0.000 A 
ATOM      4  C   UNL     1       5.777   4.125  16.756  0.00  0.00    +0.000 A 
ATOM      5  C   UNL     1       4.963   5.067  17.401  0.00  0.00    +0.000 A 
ATOM      6  C   UNL     1       5.395   6.403  17.469  0.00  0.00    +0.000 A 
ENDROOT
BRANCH   5   7
ATOM      7  C   UNL     1       3.718   4.629  18.024  0.00  0.00    +0.000 A 
ATOM      8  N   UNL     1       2.547   5.280  17.928  0.00  0.00    +0.000 NA
ATOM      9  O   UNL     1       1.697   4.551  18.760  0.00  0.00    +0.000 OA
ATOM     10  C   UNL     1       2.434   3.522  19.274  0.00  0.00    +0.000 A 
ATOM     11  N   UNL     1       3.670   3.515  18.834  0.00  0.00    +0.000 NA
BRANCH  10  12
ATOM     12  C   UNL     1       1.886   2.518  20.278  0.00  0.00    +0.000 C 
ATOM     13  C   UNL     1       1.196   3.058  21.519  0.00  0.00    +0.000 C 
ATOM     14  C   UNL     1       2.533   2.414  21.644  0.00  0.00    +0.000 C 
ENDBRANCH  10  12
ENDBRANCH   5   7
BRANCH   1  17
ATOM     15  O   UNL     1       8.661   8.017  18.722  0.00  0.00    +0.000 OA
ATOM     16  C   UNL     1       7.978   8.657  17.928  0.00  0.00    +0.000 C 
ATOM     17  N   UNL     1       7.014   8.146  17.071  0.00  0.00    +0.000 N 
ATOM     18  H   UNL     1       6.493   8.816  16.517  0.00  0.00    +0.000 HD
BRANCH  16  19
ATOM     19  C   UNL     1       8.131  10.168  17.835  0.00  0.00    +0.000 C 
BRANCH  19  20
ATOM     20  C   UNL     1       9.313  10.739  18.586  0.00  0.00    +0.000 A 
ATOM     21  C   UNL     1      10.524  11.059  17.950  0.00  0.00    +0.000 A 
ATOM     22  C   UNL     1      11.572  11.652  18.662  0.00  0.00    +0.000 A 
ATOM     23  C   UNL     1      11.419  11.951  20.013  0.00  0.00    +0.000 A 
ATOM     24  C   UNL     1      10.217  11.653  20.642  0.00  0.00    +0.000 A 
ATOM     25  F   UNL     1      10.058  11.955  21.938  0.00  0.00    +0.000 F 
ATOM     26  C   UNL     1       9.170  11.056  19.946  0.00  0.00    +0.000 A 
ENDBRANCH  19  20
ENDBRANCH  16  19
ENDBRANCH   1  17
TORSDOF 5
ENDMDL
MODEL 2
REMARK VINA RESULT:      -8.3      4.865      8.415
REMARK  Name = 
REMARK  5 active torsions:
REMARK  status: ('A' for Active; 'I' for Inactive)
REMARK    1  A    between atoms: C_2  and  C_3
REMARK    2  A    between atoms: C_3  and  C_4
REMARK    3  A    between atoms: N_11  and  C_12
REMARK    4  A    between atoms: C_16  and  C_17
REMARK    5  A    between atoms: C_20  and  C_21
REMARK                            x       y       z     vdW  Elec       q    Type
REMARK                         _______ _______ _______ _____ _____    ______ ____
ROOT
ATOM      1  C   UNL     1       5.400   5.172  18.073  0.00  0.00    +0.000 A 
ATOM      2  C   UNL     1       6.529   5.095  18.890  0.00  0.00    +0.000 A 
ATOM      3  C   UNL     1       7.801   4.947  18.337  0.00  0.00    +0.000 A 
ATOM      4  C   UNL     1       7.956   4.862  16.957  0.00  0.00    +0.000 A 
ATOM      5  C   UNL     1       6.840   4.925  16.111  0.00  0.00    +0.000 A 
ATOM      6  C   UNL     1       5.566   5.096  16.680  0.00  0.00    +0.000 A 
ENDROOT
BRANCH   5   7
ATOM      7  C   UNL     1       7.024   4.764  14.672  0.00  0.00    +0.000 A 
ATOM      8  N   UNL     1       7.842   5.516  13.918  0.00  0.00    +0.000 NA
ATOM      9  O   UNL     1       7.601   5.066  12.620  0.00  0.00    +0.000 OA
ATOM     10  C   UNL     1       6.664   4.076  12.713  0.00  0.00    +0.000 A 
ATOM     11  N   UNL     1       6.298   3.840  13.952  0.00  0.00    +0.000 NA
BRANCH  10  12
ATOM     12  C   UNL     1       6.082   3.356  11.506  0.00  0.00    +0.000 C 
ATOM     13  C   UNL     1       4.578   3.161  11.451  0.00  0.00    +0.000 C 
ATOM     14  C   UNL     1       5.462   1.987  11.693  0.00  0.00    +0.000 C 
ENDBRANCH  10  12
ENDBRANCH   5   7
BRANCH   1  17
ATOM     15  O   UNL     1       3.559   7.499  17.957  0.00  0.00    +0.000 OA
ATOM     16  C   UNL     1       3.269   6.427  18.480  0.00  0.00    +0.000 C 
ATOM     17  N   UNL     1       4.084   5.307  18.570  0.00  0.00    +0.000 N 
ATOM     18  H   UNL     1       3.718   4.516  19.086  0.00  0.00    +0.000 HD
BRANCH  16  19
ATOM     19  C   UNL     1       1.908   6.240  19.134  0.00  0.00    +0.000 C 
BRANCH  19  20
ATOM     20  C   UNL     1       1.515   4.803  19.395  0.00  0.00    +0.000 A 
ATOM     21  C   UNL     1       1.202   3.910  18.357  0.00  0.00    +0.000 A 
ATOM     22  C   UNL     1       0.911   2.568  18.629  0.00  0.00    +0.000 A 
ATOM     23  C   UNL     1       0.949   2.097  19.938  0.00  0.00    +0.000 A 
ATOM     24  C   UNL     1       1.276   2.972  20.966  0.00  0.00    +0.000 A 
ATOM     25  F   UNL     1       1.330   2.520  22.226  0.00  0.00    +0.000 F 
ATOM     26  C   UNL     1       1.559   4.311  20.708  0.00  0.00    +0.000 A 
ENDBRANCH  19  20
ENDBRANCH  16  19
ENDBRANCH   1  17
TORSDOF 5
ENDMDL
MODEL 3
REMARK VINA RESULT:      -8.3      6.002      8.252
REMARK  Name = 
REMARK  5 active torsions:
REMARK  status: ('A' for Active; 'I' for Inactive)
REMARK    1  A    between atoms: C_2  and  C_3
REMARK    2  A    between atoms: C_3  and  C_4
REMARK    3  A    between atoms: N_11  and  C_12
REMARK    4  A    between atoms: C_16  and  C_17
REMARK    5  A    between atoms: C_20  and  C_21
REMARK                            x       y       z     vdW  Elec       q    Type
REMARK                         _______ _______ _______ _____ _____    ______ ____
ROOT
ATOM      1  C   UNL     1       2.204   7.759  19.029  0.00  0.00    +0.000 A 
ATOM      2  C   UNL     1       1.929   8.437  17.840  0.00  0.00    +0.000 A 
ATOM      3  C   UNL     1       1.164   9.603  17.844  0.00  0.00    +0.000 A 
ATOM      4  C   UNL     1       0.654  10.099  19.040  0.00  0.00    +0.000 A 
ATOM      5  C   UNL     1       0.903   9.434  20.248  0.00  0.00    +0.000 A 
ATOM      6  C   UNL     1       1.694   8.271  20.233  0.00  0.00    +0.000 A 
ENDROOT
BRANCH   5   7
ATOM      7  C   UNL     1       0.298   9.936  21.478  0.00  0.00    +0.000 A 
ATOM      8  N   UNL     1       0.217   9.244  22.626  0.00  0.00    +0.000 NA
ATOM      9  O   UNL     1      -0.522  10.080  23.463  0.00  0.00    +0.000 OA
ATOM     10  C   UNL     1      -0.810  11.205  22.743  0.00  0.00    +0.000 A 
ATOM     11  N   UNL     1      -0.308  11.173  21.530  0.00  0.00    +0.000 NA
BRANCH  10  12
ATOM     12  C   UNL     1      -1.654  12.351  23.281  0.00  0.00    +0.000 C 
ATOM     13  C   UNL     1      -3.126  12.087  23.545  0.00  0.00    +0.000 C 
ATOM     14  C   UNL     1      -2.730  12.951  22.398  0.00  0.00    +0.000 C 
ENDBRANCH  10  12
ENDBRANCH   5   7
BRANCH   1  17
ATOM     15  O   UNL     1       1.594   5.067  17.931  0.00  0.00    +0.000 OA
ATOM     16  C   UNL     1       2.620   5.334  18.550  0.00  0.00    +0.000 C 
ATOM     17  N   UNL     1       2.960   6.566  19.091  0.00  0.00    +0.000 N 
ATOM     18  H   UNL     1       3.819   6.609  19.626  0.00  0.00    +0.000 HD
BRANCH  16  19
ATOM     19  C   UNL     1       3.657   4.252  18.810  0.00  0.00    +0.000 C 
BRANCH  19  20
ATOM     20  C   UNL     1       4.934   4.384  18.010  0.00  0.00    +0.000 A 
ATOM     21  C   UNL     1       6.141   4.815  18.587  0.00  0.00    +0.000 A 
ATOM     22  C   UNL     1       7.319   4.857  17.833  0.00  0.00    +0.000 A 
ATOM     23  C   UNL     1       7.313   4.452  16.502  0.00  0.00    +0.000 A 
ATOM     24  C   UNL     1       6.127   4.007  15.933  0.00  0.00    +0.000 A 
ATOM     25  F   UNL     1       6.119   3.600  14.657  0.00  0.00    +0.000 F 
ATOM     26  C   UNL     1       4.946   3.968  16.670  0.00  0.00    +0.000 A 
ENDBRANCH  19  20
ENDBRANCH  16  19
ENDBRANCH   1  17
TORSDOF 5
ENDMDL
MODEL 4
REMARK VINA RESULT:      -8.3      5.751      8.161
REMARK  Name = 
REMARK  5 active torsions:
REMARK  status: ('A' for Active; 'I' for Inactive)
REMARK    1  A    between atoms: C_2  and  C_3
REMARK    2  A    between atoms: C_3  and  C_4
REMARK    3  A    between atoms: N_11  and  C_12
REMARK    4  A    between atoms: C_16  and  C_17
REMARK    5  A    between atoms: C_20  and  C_21
REMARK                            x       y       z     vdW  Elec       q    Type
REMARK                         _______ _______ _______ _____ _____    ______ ____
ROOT
ATOM      1  C   UNL     1       2.241   7.632  19.150  0.00  0.00    +0.000 A 
ATOM      2  C   UNL     1       1.963   8.256  17.933  0.00  0.00    +0.000 A 
ATOM      3  C   UNL     1       1.195   9.419  17.887  0.00  0.00    +0.000 A 
ATOM      4  C   UNL     1       0.686   9.966  19.060  0.00  0.00    +0.000 A 
ATOM      5  C   UNL     1       0.939   9.357  20.297  0.00  0.00    +0.000 A 
ATOM      6  C   UNL     1       1.733   8.196  20.332  0.00  0.00    +0.000 A 
ENDROOT
BRANCH   5   7
ATOM      7  C   UNL     1       0.335   9.912  21.505  0.00  0.00    +0.000 A 
ATOM      8  N   UNL     1       0.258   9.271  22.682  0.00  0.00    +0.000 NA
ATOM      9  O   UNL     1      -0.481  10.143  23.483  0.00  0.00    +0.000 OA
ATOM     10  C   UNL     1      -0.773  11.233  22.714  0.00  0.00    +0.000 A 
ATOM     11  N   UNL     1      -0.274  11.148  21.503  0.00  0.00    +0.000 NA
BRANCH  10  12
ATOM     12  C   UNL     1      -1.619  12.400  23.202  0.00  0.00    +0.000 C 
ATOM     13  C   UNL     1      -3.109  12.171  23.387  0.00  0.00    +0.000 C 
ATOM     14  C   UNL     1      -2.632  13.021  22.261  0.00  0.00    +0.000 C 
ENDBRANCH  10  12
ENDBRANCH   5   7
BRANCH   1  17
ATOM     15  O   UNL     1       1.333   4.811  19.340  0.00  0.00    +0.000 OA
ATOM     16  C   UNL     1       2.513   5.148  19.344  0.00  0.00    +0.000 C 
ATOM     17  N   UNL     1       3.000   6.445  19.264  0.00  0.00    +0.000 N 
ATOM     18  H   UNL     1       4.004   6.562  19.340  0.00  0.00    +0.000 HD
BRANCH  16  19
ATOM     19  C   UNL     1       3.606   4.097  19.471  0.00  0.00    +0.000 C 
BRANCH  19  20
ATOM     20  C   UNL     1       4.671   4.149  18.398  0.00  0.00    +0.000 A 
ATOM     21  C   UNL     1       4.391   3.883  17.048  0.00  0.00    +0.000 A 
ATOM     22  C   UNL     1       5.386   4.010  16.071  0.00  0.00    +0.000 A 
ATOM     23  C   UNL     1       6.667   4.422  16.428  0.00  0.00    +0.000 A 
ATOM     24  C   UNL     1       6.944   4.704  17.759  0.00  0.00    +0.000 A 
ATOM     25  F   UNL     1       8.170   5.117  18.105  0.00  0.00    +0.000 F 
ATOM     26  C   UNL     1       5.964   4.574  18.740  0.00  0.00    +0.000 A 
ENDBRANCH  19  20
ENDBRANCH  16  19
ENDBRANCH   1  17
TORSDOF 5
ENDMDL
MODEL 5
REMARK VINA RESULT:      -8.2      1.458      1.897
REMARK  Name = 
REMARK  5 active torsions:
REMARK  status: ('A' for Active; 'I' for Inactive)
REMARK    1  A    between atoms: C_2  and  C_3
REMARK    2  A    between atoms: C_3  and  C_4
REMARK    3  A    between atoms: N_11  and  C_12
REMARK    4  A    between atoms: C_16  and  C_17
REMARK    5  A    between atoms: C_20  and  C_21
REMARK                            x       y       z     vdW  Elec       q    Type
REMARK                         _______ _______ _______ _____ _____    ______ ____
ROOT
ATOM      1  C   UNL     1       6.851   6.835  17.014  0.00  0.00    +0.000 A 
ATOM      2  C   UNL     1       7.423   6.062  16.002  0.00  0.00    +0.000 A 
ATOM      3  C   UNL     1       7.146   4.698  15.904  0.00  0.00    +0.000 A 
ATOM      4  C   UNL     1       6.300   4.090  16.825  0.00  0.00    +0.000 A 
ATOM      5  C   UNL     1       5.719   4.838  17.859  0.00  0.00    +0.000 A 
ATOM      6  C   UNL     1       5.990   6.216  17.934  0.00  0.00    +0.000 A 
ENDROOT
BRANCH   5   7
ATOM      7  C   UNL     1       4.891   4.162  18.853  0.00  0.00    +0.000 A 
ATOM      8  N   UNL     1       5.129   2.931  19.334  0.00  0.00    +0.000 NA
ATOM      9  O   UNL     1       4.031   2.681  20.157  0.00  0.00    +0.000 OA
ATOM     10  C   UNL     1       3.236   3.790  20.102  0.00  0.00    +0.000 A 
ATOM     11  N   UNL     1       3.733   4.733  19.335  0.00  0.00    +0.000 NA
BRANCH  10  12
ATOM     12  C   UNL     1       1.901   3.902  20.824  0.00  0.00    +0.000 C 
ATOM     13  C   UNL     1       1.395   2.683  21.575  0.00  0.00    +0.000 C 
ATOM     14  C   UNL     1       0.719   3.102  20.315  0.00  0.00    +0.000 C 
ENDBRANCH  10  12
ENDBRANCH   5   7
BRANCH   1  17
ATOM     15  O   UNL     1       8.804   8.213  18.776  0.00  0.00    +0.000 OA
ATOM     16  C   UNL     1       8.038   8.800  18.018  0.00  0.00    +0.000 C 
ATOM     17  N   UNL     1       7.102   8.217  17.177  0.00  0.00    +0.000 N 
ATOM     18  H   UNL     1       6.502   8.844  16.655  0.00  0.00    +0.000 HD
BRANCH  16  19
ATOM     19  C   UNL     1       8.040  10.321  17.959  0.00  0.00    +0.000 C 
BRANCH  19  20
ATOM     20  C   UNL     1       9.261  10.983  18.558  0.00  0.00    +0.000 A 
ATOM     21  C   UNL     1       9.508  10.992  19.941  0.00  0.00    +0.000 A 
ATOM     22  C   UNL     1      10.684  11.552  20.455  0.00  0.00    +0.000 A 
ATOM     23  C   UNL     1      11.635  12.091  19.595  0.00  0.00    +0.000 A 
ATOM     24  C   UNL     1      11.404  12.068  18.225  0.00  0.00    +0.000 A 
ATOM     25  F   UNL     1      12.324  12.571  17.392  0.00  0.00    +0.000 F 
ATOM     26  C   UNL     1      10.235  11.521  17.703  0.00  0.00    +0.000 A 
ENDBRANCH  19  20
ENDBRANCH  16  19
ENDBRANCH   1  17
TORSDOF 5
ENDMDL
MODEL 6
REMARK VINA RESULT:      -8.2      4.823      8.411
REMARK  Name = 
REMARK  5 active torsions:
REMARK  status: ('A' for Active; 'I' for Inactive)
REMARK    1  A    between atoms: C_2  and  C_3
REMARK    2  A    between atoms: C_3  and  C_4
REMARK    3  A    between atoms: N_11  and  C_12
REMARK    4  A    between atoms: C_16  and  C_17
REMARK    5  A    between atoms: C_20  and  C_21
REMARK                            x       y       z     vdW  Elec       q    Type
REMARK                         _______ _______ _______ _____ _____    ______ ____
ROOT
ATOM      1  C   UNL     1       5.103   5.560  17.350  0.00  0.00    +0.000 A 
ATOM      2  C   UNL     1       6.326   5.991  17.868  0.00  0.00    +0.000 A 
ATOM      3  C   UNL     1       7.491   5.912  17.105  0.00  0.00    +0.000 A 
ATOM      4  C   UNL     1       7.447   5.391  15.816  0.00  0.00    +0.000 A 
ATOM      5  C   UNL     1       6.236   4.940  15.273  0.00  0.00    +0.000 A 
ATOM      6  C   UNL     1       5.065   5.044  16.044  0.00  0.00    +0.000 A 
ENDROOT
BRANCH   5   7
ATOM      7  C   UNL     1       6.231   4.333  13.945  0.00  0.00    +0.000 A 
ATOM      8  N   UNL     1       7.288   4.299  13.117  0.00  0.00    +0.000 NA
ATOM      9  O   UNL     1       6.775   3.725  11.953  0.00  0.00    +0.000 OA
ATOM     10  C   UNL     1       5.457   3.458  12.192  0.00  0.00    +0.000 A 
ATOM     11  N   UNL     1       5.084   3.791  13.406  0.00  0.00    +0.000 NA
BRANCH  10  12
ATOM     12  C   UNL     1       4.518   2.874  11.147  0.00  0.00    +0.000 C 
ATOM     13  C   UNL     1       3.696   3.838  10.311  0.00  0.00    +0.000 C 
ATOM     14  C   UNL     1       3.022   3.005  11.345  0.00  0.00    +0.000 C 
ENDBRANCH  10  12
ENDBRANCH   5   7
BRANCH   1  17
ATOM     15  O   UNL     1       3.296   7.851  17.903  0.00  0.00    +0.000 OA
ATOM     16  C   UNL     1       3.086   6.707  18.295  0.00  0.00    +0.000 C 
ATOM     17  N   UNL     1       3.891   5.599  18.076  0.00  0.00    +0.000 N 
ATOM     18  H   UNL     1       3.607   4.732  18.518  0.00  0.00    +0.000 HD
BRANCH  16  19
ATOM     19  C   UNL     1       1.851   6.403  19.132  0.00  0.00    +0.000 C 
BRANCH  19  20
ATOM     20  C   UNL     1       1.796   5.005  19.706  0.00  0.00    +0.000 A 
ATOM     21  C   UNL     1       2.180   4.719  21.027  0.00  0.00    +0.000 A 
ATOM     22  C   UNL     1       2.049   3.427  21.548  0.00  0.00    +0.000 A 
ATOM     23  C   UNL     1       1.516   2.408  20.764  0.00  0.00    +0.000 A 
ATOM     24  C   UNL     1       1.118   2.689  19.463  0.00  0.00    +0.000 A 
ATOM     25  F   UNL     1       0.589   1.717  18.710  0.00  0.00    +0.000 F 
ATOM     26  C   UNL     1       1.251   3.970  18.932  0.00  0.00    +0.000 A 
ENDBRANCH  19  20
ENDBRANCH  16  19
ENDBRANCH   1  17
TORSDOF 5
ENDMDL
MODEL 7
REMARK VINA RESULT:      -8.0      6.130      8.870
REMARK  Name = 
REMARK  5 active torsions:
REMARK  status: ('A' for Active; 'I' for Inactive)
REMARK    1  A    between atoms: C_2  and  C_3
REMARK    2  A    between atoms: C_3  and  C_4
REMARK    3  A    between atoms: N_11  and  C_12
REMARK    4  A    between atoms: C_16  and  C_17
REMARK    5  A    between atoms: C_20  and  C_21
REMARK                            x       y       z     vdW  Elec       q    Type
REMARK                         _______ _______ _______ _____ _____    ______ ____
ROOT
ATOM      1  C   UNL     1       2.369   7.907  18.571  0.00  0.00    +0.000 A 
ATOM      2  C   UNL     1       2.153   7.031  19.637  0.00  0.00    +0.000 A 
ATOM      3  C   UNL     1       2.873   5.841  19.738  0.00  0.00    +0.000 A 
ATOM      4  C   UNL     1       3.812   5.508  18.767  0.00  0.00    +0.000 A 
ATOM      5  C   UNL     1       4.043   6.362  17.680  0.00  0.00    +0.000 A 
ATOM      6  C   UNL     1       3.326   7.569  17.600  0.00  0.00    +0.000 A 
ENDROOT
BRANCH   5   7
ATOM      7  C   UNL     1       4.982   5.956  16.638  0.00  0.00    +0.000 A 
ATOM      8  N   UNL     1       5.952   6.739  16.139  0.00  0.00    +0.000 NA
ATOM      9  O   UNL     1       6.505   5.966  15.117  0.00  0.00    +0.000 OA
ATOM     10  C   UNL     1       5.820   4.784  15.102  0.00  0.00    +0.000 A 
ATOM     11  N   UNL     1       4.895   4.722  16.031  0.00  0.00    +0.000 NA
BRANCH  10  12
ATOM     12  C   UNL     1       6.081   3.677  14.091  0.00  0.00    +0.000 C 
ATOM     13  C   UNL     1       6.690   4.063  12.755  0.00  0.00    +0.000 C 
ATOM     14  C   UNL     1       5.265   3.636  12.815  0.00  0.00    +0.000 C 
ENDBRANCH  10  12
ENDBRANCH   5   7
BRANCH   1  17
ATOM     15  O   UNL     1       0.491   9.281  20.417  0.00  0.00    +0.000 OA
ATOM     16  C   UNL     1       0.800   9.715  19.310  0.00  0.00    +0.000 C 
ATOM     17  N   UNL     1       1.664   9.120  18.403  0.00  0.00    +0.000 N 
ATOM     18  H   UNL     1       1.769   9.577  17.504  0.00  0.00    +0.000 HD
BRANCH  16  19
ATOM     19  C   UNL     1       0.195  11.018  18.807  0.00  0.00    +0.000 C 
BRANCH  19  20
ATOM     20  C   UNL     1      -1.242  10.920  18.345  0.00  0.00    +0.000 A 
ATOM     21  C   UNL     1      -2.258  11.732  18.874  0.00  0.00    +0.000 A 
ATOM     22  C   UNL     1      -3.563  11.664  18.373  0.00  0.00    +0.000 A 
ATOM     23  C   UNL     1      -3.865  10.800  17.325  0.00  0.00    +0.000 A 
ATOM     24  C   UNL     1      -2.860  10.009  16.785  0.00  0.00    +0.000 A 
ATOM     25  F   UNL     1      -3.141   9.188  15.765  0.00  0.00    +0.000 F 
ATOM     26  C   UNL     1      -1.560  10.062  17.281  0.00  0.00    +0.000 A 
ENDBRANCH  19  20
ENDBRANCH  16  19
ENDBRANCH   1  17
TORSDOF 5
ENDMDL
MODEL 8
REMARK VINA RESULT:      -8.0      6.086      8.824
REMARK  Name = 
REMARK  5 active torsions:
REMARK  status: ('A' for Active; 'I' for Inactive)
REMARK    1  A    between atoms: C_2  and  C_3
REMARK    2  A    between atoms: C_3  and  C_4
REMARK    3  A    between atoms: N_11  and  C_12
REMARK    4  A    between atoms: C_16  and  C_17
REMARK    5  A    between atoms: C_20  and  C_21
REMARK                            x       y       z     vdW  Elec       q    Type
REMARK                         _______ _______ _______ _____ _____    ______ ____
ROOT
ATOM      1  C   UNL     1       2.435   7.863  18.508  0.00  0.00    +0.000 A 
ATOM      2  C   UNL     1       2.245   6.993  19.584  0.00  0.00    +0.000 A 
ATOM      3  C   UNL     1       2.969   5.804  19.676  0.00  0.00    +0.000 A 
ATOM      4  C   UNL     1       3.885   5.466  18.685  0.00  0.00    +0.000 A 
ATOM      5  C   UNL     1       4.089   6.313  17.588  0.00  0.00    +0.000 A 
ATOM      6  C   UNL     1       3.369   7.519  17.517  0.00  0.00    +0.000 A 
ENDROOT
BRANCH   5   7
ATOM      7  C   UNL     1       5.004   5.902  16.527  0.00  0.00    +0.000 A 
ATOM      8  N   UNL     1       5.965   6.680  16.004  0.00  0.00    +0.000 NA
ATOM      9  O   UNL     1       6.493   5.903  14.972  0.00  0.00    +0.000 OA
ATOM     10  C   UNL     1       5.805   4.723  14.975  0.00  0.00    +0.000 A 
ATOM     11  N   UNL     1       4.899   4.667  15.925  0.00  0.00    +0.000 NA
BRANCH  10  12
ATOM     12  C   UNL     1       6.040   3.613  13.962  0.00  0.00    +0.000 C 
ATOM     13  C   UNL     1       6.681   3.984  12.637  0.00  0.00    +0.000 C 
ATOM     14  C   UNL     1       5.241   3.608  12.675  0.00  0.00    +0.000 C 
ENDBRANCH  10  12
ENDBRANCH   5   7
BRANCH   1  17
ATOM     15  O   UNL     1       0.534   9.203  20.354  0.00  0.00    +0.000 OA
ATOM     16  C   UNL     1       0.849   9.653  19.256  0.00  0.00    +0.000 C 
ATOM     17  N   UNL     1       1.724   9.074  18.349  0.00  0.00    +0.000 N 
ATOM     18  H   UNL     1       1.834   9.542  17.457  0.00  0.00    +0.000 HD
BRANCH  16  19
ATOM     19  C   UNL     1       0.241  10.958  18.763  0.00  0.00    +0.000 C 
BRANCH  19  20
ATOM     20  C   UNL     1      -1.190  10.857  18.285  0.00  0.00    +0.000 A 
ATOM     21  C   UNL     1      -1.605   9.890  17.355  0.00  0.00    +0.000 A 
ATOM     22  C   UNL     1      -2.951   9.780  16.988  0.00  0.00    +0.000 A 
ATOM     23  C   UNL     1      -3.902  10.620  17.559  0.00  0.00    +0.000 A 
ATOM     24  C   UNL     1      -3.500  11.566  18.493  0.00  0.00    +0.000 A 
ATOM     25  F   UNL     1      -4.414  12.366  19.059  0.00  0.00    +0.000 F 
ATOM     26  C   UNL     1      -2.162  11.690  18.860  0.00  0.00    +0.000 A 
ENDBRANCH  19  20
ENDBRANCH  16  19
ENDBRANCH   1  17
TORSDOF 5
ENDMDL
MODEL 9
REMARK VINA RESULT:      -8.0      7.725     10.231
REMARK  Name = 
REMARK  5 active torsions:
REMARK  status: ('A' for Active; 'I' for Inactive)
REMARK    1  A    between atoms: C_2  and  C_3
REMARK    2  A    between atoms: C_3  and  C_4
REMARK    3  A    between atoms: N_11  and  C_12
REMARK    4  A    between atoms: C_16  and  C_17
REMARK    5  A    between atoms: C_20  and  C_21
REMARK                            x       y       z     vdW  Elec       q    Type
REMARK                         _______ _______ _______ _____ _____    ______ ____
ROOT
ATOM      1  C   UNL     1       0.829  10.123  18.791  0.00  0.00    +0.000 A 
ATOM      2  C   UNL     1       1.247  11.330  19.356  0.00  0.00    +0.000 A 
ATOM      3  C   UNL     1       0.416  12.450  19.343  0.00  0.00    +0.000 A 
ATOM      4  C   UNL     1      -0.842  12.378  18.753  0.00  0.00    +0.000 A 
ATOM      5  C   UNL     1      -1.286  11.184  18.168  0.00  0.00    +0.000 A 
ATOM      6  C   UNL     1      -0.447  10.056  18.207  0.00  0.00    +0.000 A 
ENDROOT
BRANCH   5   7
ATOM      7  C   UNL     1      -2.581  11.156  17.495  0.00  0.00    +0.000 A 
ATOM      8  N   UNL     1      -2.762  10.835  16.203  0.00  0.00    +0.000 NA
ATOM      9  O   UNL     1      -4.125  11.050  15.999  0.00  0.00    +0.000 OA
ATOM     10  C   UNL     1      -4.641  11.474  17.191  0.00  0.00    +0.000 A 
ATOM     11  N   UNL     1      -3.738  11.532  18.142  0.00  0.00    +0.000 NA
BRANCH  10  12
ATOM     12  C   UNL     1      -6.097  11.873  17.380  0.00  0.00    +0.000 C 
ATOM     13  C   UNL     1      -6.471  13.327  17.158  0.00  0.00    +0.000 C 
ATOM     14  C   UNL     1      -6.471  12.772  18.540  0.00  0.00    +0.000 C 
ENDBRANCH  10  12
ENDBRANCH   5   7
BRANCH   1  17
ATOM     15  O   UNL     1       1.397   8.154  20.941  0.00  0.00    +0.000 OA
ATOM     16  C   UNL     1       1.850   8.071  19.803  0.00  0.00    +0.000 C 
ATOM     17  N   UNL     1       1.627   8.958  18.760  0.00  0.00    +0.000 N 
ATOM     18  H   UNL     1       2.123   8.779  17.894  0.00  0.00    +0.000 HD
BRANCH  16  19
ATOM     19  C   UNL     1       2.775   6.921  19.433  0.00  0.00    +0.000 C 
BRANCH  19  20
ATOM     20  C   UNL     1       2.106   5.569  19.330  0.00  0.00    +0.000 A 
ATOM     21  C   UNL     1       1.895   4.927  18.098  0.00  0.00    +0.000 A 
ATOM     22  C   UNL     1       1.337   3.644  18.045  0.00  0.00    +0.000 A 
ATOM     23  C   UNL     1       1.001   2.979  19.221  0.00  0.00    +0.000 A 
ATOM     24  C   UNL     1       1.224   3.602  20.442  0.00  0.00    +0.000 A 
ATOM     25  F   UNL     1       0.918   2.960  21.576  0.00  0.00    +0.000 F 
ATOM     26  C   UNL     1       1.772   4.881  20.506  0.00  0.00    +0.000 A 
ENDBRANCH  19  20
ENDBRANCH  16  19
ENDBRANCH   1  17
TORSDOF 5
ENDMDL
