MODEL 1
REMARK VINA RESULT:      -8.7      0.000      0.000
REMARK  Name = 
REMARK  5 active torsions:
REMARK  status: ('A' for Active; 'I' for Inactive)
REMARK    1  A    between atoms: C_1  and  N_2
REMARK    2  A    between atoms: C_6  and  C_7
REMARK    3  A    between atoms: C_7  and  C_8
REMARK    4  A    between atoms: C_8  and  C_9
REMARK    5  A    between atoms: C_13  and  N_14
REMARK                            x       y       z     vdW  Elec       q    Type
REMARK                         _______ _______ _______ _____ _____    ______ ____
ROOT
ATOM      1  C   UNL     1       5.468   6.174  18.007  0.00  0.00    +0.000 A 
ATOM      2  C   UNL     1       4.651   7.147  17.401  0.00  0.00    +0.000 A 
ATOM      3  C   UNL     1       3.269   7.150  17.565  0.00  0.00    +0.000 A 
ATOM      4  C   UNL     1       2.655   6.175  18.349  0.00  0.00    +0.000 A 
ATOM      5  C   UNL     1       3.415   5.202  19.000  0.00  0.00    +0.000 A 
ATOM      6  C   UNL     1       4.810   5.237  18.832  0.00  0.00    +0.000 A 
ENDROOT
BRANCH   5   7
ATOM      7  N   UNL     1       2.817   4.170  19.768  0.00  0.00    +0.000 N 
ATOM      8  C   UNL     1       1.444   4.188  20.165  0.00  0.00    +0.000 C 
ATOM      9  C   UNL     1       1.339   3.003  21.042  0.00  0.00    +0.000 C 
ATOM     10  C   UNL     1       2.495   2.321  21.204  0.00  0.00    +0.000 C 
ATOM     11  N   UNL     1       1.841   2.849  22.297  0.00  0.00    +0.000 N 
ATOM     12  C   UNL     1       3.432   3.033  20.277  0.00  0.00    +0.000 C 
ATOM     13  O   UNL     1       4.544   2.583  20.048  0.00  0.00    +0.000 OA
ATOM     14  H   UNL     1       1.391   2.090  22.819  0.00  0.00    +0.000 HD
ENDBRANCH   5   7
BRANCH   1  15
ATOM     15  C   UNL     1       7.061   6.117  17.744  0.00  0.00    +0.000 C 
ATOM     16  C   UNL     1       7.760   7.402  17.166  0.00  0.00    +0.000 C 
ATOM     17  C   UNL     1       8.199   7.793  18.581  0.00  0.00    +0.000 C 
ATOM     18  C   UNL     1       7.944   6.351  19.033  0.00  0.00    +0.000 C 
BRANCH  15  19
ATOM     19  C   UNL     1       7.439   4.802  17.027  0.00  0.00    +0.000 C 
BRANCH  19  25
ATOM     20  C   UNL     1       4.851   3.293  15.939  0.00  0.00    +0.000 C 
ATOM     21  N   UNL     1       5.867   3.973  15.171  0.00  0.00    +0.000 N 
ATOM     22  C   UNL     1       5.923   4.004  13.810  0.00  0.00    +0.000 A 
ATOM     23  N   UNL     1       6.965   4.700  13.429  0.00  0.00    +0.000 NA
ATOM     24  N   UNL     1       7.619   5.122  14.560  0.00  0.00    +0.000 NA
ATOM     25  C   UNL     1       6.967   4.671  15.616  0.00  0.00    +0.000 A 
ENDBRANCH  19  25
ENDBRANCH  15  19
ENDBRANCH   1  15
TORSDOF 4
ENDMDL
MODEL 2
REMARK VINA RESULT:      -8.6      2.130      6.835
REMARK  Name = 
REMARK  5 active torsions:
REMARK  status: ('A' for Active; 'I' for Inactive)
REMARK    1  A    between atoms: C_1  and  N_2
REMARK    2  A    between atoms: C_6  and  C_7
REMARK    3  A    between atoms: C_7  and  C_8
REMARK    4  A    between atoms: C_8  and  C_9
REMARK    5  A    between atoms: C_13  and  N_14
REMARK                            x       y       z     vdW  Elec       q    Type
REMARK                         _______ _______ _______ _____ _____    ______ ____
ROOT
ATOM      1  C   UNL     1       4.656   5.327  17.660  0.00  0.00    +0.000 A 
ATOM      2  C   UNL     1       5.815   5.360  18.458  0.00  0.00    +0.000 A 
ATOM      3  C   UNL     1       7.078   5.109  17.928  0.00  0.00    +0.000 A 
ATOM      4  C   UNL     1       7.223   4.819  16.573  0.00  0.00    +0.000 A 
ATOM      5  C   UNL     1       6.115   4.802  15.724  0.00  0.00    +0.000 A 
ATOM      6  C   UNL     1       4.855   5.079  16.285  0.00  0.00    +0.000 A 
ENDROOT
BRANCH   5   7
ATOM      7  N   UNL     1       6.223   4.466  14.352  0.00  0.00    +0.000 N 
ATOM      8  C   UNL     1       5.264   3.657  13.667  0.00  0.00    +0.000 C 
ATOM      9  C   UNL     1       5.875   3.478  12.333  0.00  0.00    +0.000 C 
ATOM     10  C   UNL     1       7.076   4.079  12.182  0.00  0.00    +0.000 C 
ATOM     11  N   UNL     1       6.953   2.717  12.006  0.00  0.00    +0.000 N 
ATOM     12  C   UNL     1       7.244   4.814  13.476  0.00  0.00    +0.000 C 
ATOM     13  O   UNL     1       8.164   5.604  13.629  0.00  0.00    +0.000 OA
ATOM     14  H   UNL     1       7.003   2.502  11.004  0.00  0.00    +0.000 HD
ENDBRANCH   5   7
BRANCH   1  15
ATOM     15  C   UNL     1       3.182   5.529  18.291  0.00  0.00    +0.000 C 
ATOM     16  C   UNL     1       3.056   6.370  19.615  0.00  0.00    +0.000 C 
ATOM     17  C   UNL     1       2.664   7.599  18.789  0.00  0.00    +0.000 C 
ATOM     18  C   UNL     1       2.333   6.676  17.612  0.00  0.00    +0.000 C 
BRANCH  15  19
ATOM     19  C   UNL     1       2.417   4.188  18.305  0.00  0.00    +0.000 C 
BRANCH  19  25
ATOM     20  C   UNL     1       4.362   2.326  20.012  0.00  0.00    +0.000 C 
ATOM     21  N   UNL     1       3.023   2.749  20.347  0.00  0.00    +0.000 N 
ATOM     22  C   UNL     1       2.328   2.335  21.444  0.00  0.00    +0.000 A 
ATOM     23  N   UNL     1       1.146   2.900  21.454  0.00  0.00    +0.000 NA
ATOM     24  N   UNL     1       1.053   3.688  20.334  0.00  0.00    +0.000 NA
ATOM     25  C   UNL     1       2.180   3.588  19.654  0.00  0.00    +0.000 A 
ENDBRANCH  19  25
ENDBRANCH  15  19
ENDBRANCH   1  15
TORSDOF 4
ENDMDL
MODEL 3
REMARK VINA RESULT:      -8.5      2.700      6.851
REMARK  Name = 
REMARK  5 active torsions:
REMARK  status: ('A' for Active; 'I' for Inactive)
REMARK    1  A    between atoms: C_1  and  N_2
REMARK    2  A    between atoms: C_6  and  C_7
REMARK    3  A    between atoms: C_7  and  C_8
REMARK    4  A    between atoms: C_8  and  C_9
REMARK    5  A    between atoms: C_13  and  N_14
REMARK                            x       y       z     vdW  Elec       q    Type
REMARK                         _______ _______ _______ _____ _____    ______ ____
ROOT
ATOM      1  C   UNL     1       4.705   4.687  17.834  0.00  0.00    +0.000 A 
ATOM      2  C   UNL     1       5.885   4.824  18.589  0.00  0.00    +0.000 A 
ATOM      3  C   UNL     1       7.144   4.797  17.996  0.00  0.00    +0.000 A 
ATOM      4  C   UNL     1       7.264   4.636  16.617  0.00  0.00    +0.000 A 
ATOM      5  C   UNL     1       6.130   4.525  15.810  0.00  0.00    +0.000 A 
ATOM      6  C   UNL     1       4.872   4.576  16.437  0.00  0.00    +0.000 A 
ENDROOT
BRANCH   5   7
ATOM      7  N   UNL     1       6.219   4.314  14.412  0.00  0.00    +0.000 N 
ATOM      8  C   UNL     1       5.288   3.513  13.681  0.00  0.00    +0.000 C 
ATOM      9  C   UNL     1       5.871   3.484  12.324  0.00  0.00    +0.000 C 
ATOM     10  C   UNL     1       7.032   4.163  12.198  0.00  0.00    +0.000 C 
ATOM     11  N   UNL     1       6.980   2.817  11.907  0.00  0.00    +0.000 N 
ATOM     12  C   UNL     1       7.195   4.794  13.546  0.00  0.00    +0.000 C 
ATOM     13  O   UNL     1       8.073   5.619  13.747  0.00  0.00    +0.000 OA
ATOM     14  H   UNL     1       7.014   2.690  10.890  0.00  0.00    +0.000 HD
ENDBRANCH   5   7
BRANCH   1  15
ATOM     15  C   UNL     1       3.250   4.628  18.532  0.00  0.00    +0.000 C 
ATOM     16  C   UNL     1       1.998   4.390  17.609  0.00  0.00    +0.000 C 
ATOM     17  C   UNL     1       2.022   2.902  17.971  0.00  0.00    +0.000 C 
ATOM     18  C   UNL     1       2.895   3.235  19.186  0.00  0.00    +0.000 C 
BRANCH  15  19
ATOM     19  C   UNL     1       3.092   5.787  19.542  0.00  0.00    +0.000 C 
BRANCH  19  25
ATOM     20  C   UNL     1       1.313   8.088  20.848  0.00  0.00    +0.000 C 
ATOM     21  N   UNL     1       1.905   8.067  19.531  0.00  0.00    +0.000 N 
ATOM     22  C   UNL     1       1.719   9.024  18.579  0.00  0.00    +0.000 A 
ATOM     23  N   UNL     1       2.389   8.706  17.500  0.00  0.00    +0.000 NA
ATOM     24  N   UNL     1       3.017   7.509  17.738  0.00  0.00    +0.000 NA
ATOM     25  C   UNL     1       2.714   7.110  18.960  0.00  0.00    +0.000 A 
ENDBRANCH  19  25
ENDBRANCH  15  19
ENDBRANCH   1  15
TORSDOF 4
ENDMDL
MODEL 4
REMARK VINA RESULT:      -8.4      2.163      6.942
REMARK  Name = 
REMARK  5 active torsions:
REMARK  status: ('A' for Active; 'I' for Inactive)
REMARK    1  A    between atoms: C_1  and  N_2
REMARK    2  A    between atoms: C_6  and  C_7
REMARK    3  A    between atoms: C_7  and  C_8
REMARK    4  A    between atoms: C_8  and  C_9
REMARK    5  A    between atoms: C_13  and  N_14
REMARK                            x       y       z     vdW  Elec       q    Type
REMARK                         _______ _______ _______ _____ _____    ______ ____
ROOT
ATOM      1  C   UNL     1       5.010   5.146  17.634  0.00  0.00    +0.000 A 
ATOM      2  C   UNL     1       6.140   5.751  18.216  0.00  0.00    +0.000 A 
ATOM      3  C   UNL     1       7.309   5.971  17.493  0.00  0.00    +0.000 A 
ATOM      4  C   UNL     1       7.385   5.594  16.153  0.00  0.00    +0.000 A 
ATOM      5  C   UNL     1       6.288   5.016  15.512  0.00  0.00    +0.000 A 
ATOM      6  C   UNL     1       5.114   4.826  16.264  0.00  0.00    +0.000 A 
ENDROOT
BRANCH   5   7
ATOM      7  N   UNL     1       6.347   4.581  14.165  0.00  0.00    +0.000 N 
ATOM      8  C   UNL     1       5.361   3.731  13.574  0.00  0.00    +0.000 C 
ATOM      9  C   UNL     1       5.925   3.451  12.237  0.00  0.00    +0.000 C 
ATOM     10  C   UNL     1       7.123   4.030  12.001  0.00  0.00    +0.000 C 
ATOM     11  N   UNL     1       6.987   2.660  11.930  0.00  0.00    +0.000 N 
ATOM     12  C   UNL     1       7.339   4.856  13.231  0.00  0.00    +0.000 C 
ATOM     13  O   UNL     1       8.267   5.648  13.296  0.00  0.00    +0.000 OA
ATOM     14  H   UNL     1       7.002   2.371  10.946  0.00  0.00    +0.000 HD
ENDBRANCH   5   7
BRANCH   1  15
ATOM     15  C   UNL     1       3.686   4.810  18.496  0.00  0.00    +0.000 C 
ATOM     16  C   UNL     1       3.377   5.704  19.753  0.00  0.00    +0.000 C 
ATOM     17  C   UNL     1       2.393   6.527  18.917  0.00  0.00    +0.000 C 
ATOM     18  C   UNL     1       2.348   5.390  17.891  0.00  0.00    +0.000 C 
BRANCH  15  19
ATOM     19  C   UNL     1       3.583   3.289  18.748  0.00  0.00    +0.000 C 
BRANCH  19  25
ATOM     20  C   UNL     1       0.474   2.757  19.212  0.00  0.00    +0.000 C 
ATOM     21  N   UNL     1       1.536   2.706  20.189  0.00  0.00    +0.000 N 
ATOM     22  C   UNL     1       1.356   2.496  21.524  0.00  0.00    +0.000 A 
ATOM     23  N   UNL     1       2.516   2.510  22.131  0.00  0.00    +0.000 NA
ATOM     24  N   UNL     1       3.479   2.750  21.182  0.00  0.00    +0.000 NA
ATOM     25  C   UNL     1       2.889   2.884  20.008  0.00  0.00    +0.000 A 
ENDBRANCH  19  25
ENDBRANCH  15  19
ENDBRANCH   1  15
TORSDOF 4
ENDMDL
MODEL 5
REMARK VINA RESULT:      -8.3      1.146      1.298
REMARK  Name = 
REMARK  5 active torsions:
REMARK  status: ('A' for Active; 'I' for Inactive)
REMARK    1  A    between atoms: C_1  and  N_2
REMARK    2  A    between atoms: C_6  and  C_7
REMARK    3  A    between atoms: C_7  and  C_8
REMARK    4  A    between atoms: C_8  and  C_9
REMARK    5  A    between atoms: C_13  and  N_14
REMARK                            x       y       z     vdW  Elec       q    Type
REMARK                         _______ _______ _______ _____ _____    ______ ____
ROOT
ATOM      1  C   UNL     1       5.509   6.313  17.871  0.00  0.00    +0.000 A 
ATOM      2  C   UNL     1       4.777   7.325  17.222  0.00  0.00    +0.000 A 
ATOM      3  C   UNL     1       3.388   7.393  17.302  0.00  0.00    +0.000 A 
ATOM      4  C   UNL     1       2.683   6.447  18.043  0.00  0.00    +0.000 A 
ATOM      5  C   UNL     1       3.355   5.437  18.734  0.00  0.00    +0.000 A 
ATOM      6  C   UNL     1       4.758   5.406  18.650  0.00  0.00    +0.000 A 
ENDROOT
BRANCH   5   7
ATOM      7  N   UNL     1       2.664   4.434  19.459  0.00  0.00    +0.000 N 
ATOM      8  C   UNL     1       2.698   3.050  19.103  0.00  0.00    +0.000 C 
ATOM      9  C   UNL     1       1.736   2.443  20.046  0.00  0.00    +0.000 C 
ATOM     10  C   UNL     1       1.147   3.320  20.888  0.00  0.00    +0.000 C 
ATOM     11  N   UNL     1       0.381   2.551  20.039  0.00  0.00    +0.000 N 
ATOM     12  C   UNL     1       1.844   4.606  20.567  0.00  0.00    +0.000 C 
ATOM     13  O   UNL     1       1.669   5.599  21.256  0.00  0.00    +0.000 OA
ATOM     14  H   UNL     1      -0.084   1.814  20.579  0.00  0.00    +0.000 HD
ENDBRANCH   5   7
BRANCH   1  15
ATOM     15  C   UNL     1       7.110   6.181  17.705  0.00  0.00    +0.000 C 
ATOM     16  C   UNL     1       7.901   7.431  17.170  0.00  0.00    +0.000 C 
ATOM     17  C   UNL     1       8.272   7.803  18.609  0.00  0.00    +0.000 C 
ATOM     18  C   UNL     1       7.923   6.376  19.045  0.00  0.00    +0.000 C 
BRANCH  15  19
ATOM     19  C   UNL     1       7.468   4.848  17.011  0.00  0.00    +0.000 C 
BRANCH  19  25
ATOM     20  C   UNL     1       4.906   3.294  15.925  0.00  0.00    +0.000 C 
ATOM     21  N   UNL     1       5.913   3.986  15.156  0.00  0.00    +0.000 N 
ATOM     22  C   UNL     1       5.970   4.011  13.794  0.00  0.00    +0.000 A 
ATOM     23  N   UNL     1       7.002   4.721  13.412  0.00  0.00    +0.000 NA
ATOM     24  N   UNL     1       7.647   5.159  14.542  0.00  0.00    +0.000 NA
ATOM     25  C   UNL     1       7.001   4.704  15.599  0.00  0.00    +0.000 A 
ENDBRANCH  19  25
ENDBRANCH  15  19
ENDBRANCH   1  15
TORSDOF 4
ENDMDL
MODEL 6
REMARK VINA RESULT:      -8.3      2.251      6.575
REMARK  Name = 
REMARK  5 active torsions:
REMARK  status: ('A' for Active; 'I' for Inactive)
REMARK    1  A    between atoms: C_1  and  N_2
REMARK    2  A    between atoms: C_6  and  C_7
REMARK    3  A    between atoms: C_7  and  C_8
REMARK    4  A    between atoms: C_8  and  C_9
REMARK    5  A    between atoms: C_13  and  N_14
REMARK                            x       y       z     vdW  Elec       q    Type
REMARK                         _______ _______ _______ _____ _____    ______ ____
ROOT
ATOM      1  C   UNL     1       5.004   5.291  18.038  0.00  0.00    +0.000 A 
ATOM      2  C   UNL     1       6.216   5.221  18.750  0.00  0.00    +0.000 A 
ATOM      3  C   UNL     1       7.421   4.919  18.121  0.00  0.00    +0.000 A 
ATOM      4  C   UNL     1       7.453   4.680  16.748  0.00  0.00    +0.000 A 
ATOM      5  C   UNL     1       6.289   4.764  15.982  0.00  0.00    +0.000 A 
ATOM      6  C   UNL     1       5.091   5.091  16.643  0.00  0.00    +0.000 A 
ENDROOT
BRANCH   5   7
ATOM      7  N   UNL     1       6.281   4.482  14.594  0.00  0.00    +0.000 N 
ATOM      8  C   UNL     1       5.269   3.694  13.963  0.00  0.00    +0.000 C 
ATOM      9  C   UNL     1       5.763   3.570  12.576  0.00  0.00    +0.000 C 
ATOM     10  C   UNL     1       6.945   4.184  12.345  0.00  0.00    +0.000 C 
ATOM     11  N   UNL     1       6.812   2.829  12.128  0.00  0.00    +0.000 N 
ATOM     12  C   UNL     1       7.222   4.870  13.648  0.00  0.00    +0.000 C 
ATOM     13  O   UNL     1       8.148   5.659  13.753  0.00  0.00    +0.000 OA
ATOM     14  H   UNL     1       6.777   2.652  11.118  0.00  0.00    +0.000 HD
ENDBRANCH   5   7
BRANCH   1  15
ATOM     15  C   UNL     1       3.594   5.553  18.781  0.00  0.00    +0.000 C 
ATOM     16  C   UNL     1       3.259   7.023  19.231  0.00  0.00    +0.000 C 
ATOM     17  C   UNL     1       2.412   7.209  17.968  0.00  0.00    +0.000 C 
ATOM     18  C   UNL     1       2.358   5.687  17.807  0.00  0.00    +0.000 C 
BRANCH  15  19
ATOM     19  C   UNL     1       3.351   4.478  19.863  0.00  0.00    +0.000 C 
BRANCH  19  25
ATOM     20  C   UNL     1       3.470   1.842  18.075  0.00  0.00    +0.000 C 
ATOM     21  N   UNL     1       2.327   2.394  18.762  0.00  0.00    +0.000 N 
ATOM     22  C   UNL     1       1.058   1.903  18.680  0.00  0.00    +0.000 A 
ATOM     23  N   UNL     1       0.257   2.631  19.417  0.00  0.00    +0.000 NA
ATOM     24  N   UNL     1       1.007   3.631  19.983  0.00  0.00    +0.000 NA
ATOM     25  C   UNL     1       2.257   3.502  19.577  0.00  0.00    +0.000 A 
ENDBRANCH  19  25
ENDBRANCH  15  19
ENDBRANCH   1  15
TORSDOF 4
ENDMDL
MODEL 7
REMARK VINA RESULT:      -8.3      3.804      5.540
REMARK  Name = 
REMARK  5 active torsions:
REMARK  status: ('A' for Active; 'I' for Inactive)
REMARK    1  A    between atoms: C_1  and  N_2
REMARK    2  A    between atoms: C_6  and  C_7
REMARK    3  A    between atoms: C_7  and  C_8
REMARK    4  A    between atoms: C_8  and  C_9
REMARK    5  A    between atoms: C_13  and  N_14
REMARK                            x       y       z     vdW  Elec       q    Type
REMARK                         _______ _______ _______ _____ _____    ______ ____
ROOT
ATOM      1  C   UNL     1       2.551   6.001  18.970  0.00  0.00    +0.000 A 
ATOM      2  C   UNL     1       2.933   6.672  17.793  0.00  0.00    +0.000 A 
ATOM      3  C   UNL     1       2.717   8.037  17.623  0.00  0.00    +0.000 A 
ATOM      4  C   UNL     1       2.111   8.781  18.634  0.00  0.00    +0.000 A 
ATOM      5  C   UNL     1       1.738   8.178  19.836  0.00  0.00    +0.000 A 
ATOM      6  C   UNL     1       1.987   6.803  19.986  0.00  0.00    +0.000 A 
ENDROOT
BRANCH   5   7
ATOM      7  N   UNL     1       1.079   8.898  20.865  0.00  0.00    +0.000 N 
ATOM      8  C   UNL     1       1.541   8.925  22.218  0.00  0.00    +0.000 C 
ATOM      9  C   UNL     1       0.471   9.668  22.916  0.00  0.00    +0.000 C 
ATOM     10  C   UNL     1      -0.552  10.056  22.123  0.00  0.00    +0.000 C 
ATOM     11  N   UNL     1      -0.786   9.240  23.210  0.00  0.00    +0.000 N 
ATOM     12  C   UNL     1      -0.091   9.640  20.760  0.00  0.00    +0.000 C 
ATOM     13  O   UNL     1      -0.709   9.978  19.763  0.00  0.00    +0.000 OA
ATOM     14  H   UNL     1      -1.233   9.788  23.952  0.00  0.00    +0.000 HD
ENDBRANCH   5   7
BRANCH   1  15
ATOM     15  C   UNL     1       2.720   4.403  19.132  0.00  0.00    +0.000 C 
ATOM     16  C   UNL     1       2.600   3.792  20.577  0.00  0.00    +0.000 C 
ATOM     17  C   UNL     1       1.143   3.417  20.289  0.00  0.00    +0.000 C 
ATOM     18  C   UNL     1       1.421   3.571  18.791  0.00  0.00    +0.000 C 
BRANCH  15  19
ATOM     19  C   UNL     1       3.941   3.909  18.324  0.00  0.00    +0.000 C 
BRANCH  19  25
ATOM     20  C   UNL     1       6.141   4.930  16.257  0.00  0.00    +0.000 C 
ATOM     21  N   UNL     1       6.188   4.988  17.698  0.00  0.00    +0.000 N 
ATOM     22  C   UNL     1       7.253   5.428  18.425  0.00  0.00    +0.000 A 
ATOM     23  N   UNL     1       6.975   5.350  19.703  0.00  0.00    +0.000 NA
ATOM     24  N   UNL     1       5.709   4.834  19.822  0.00  0.00    +0.000 NA
ATOM     25  C   UNL     1       5.234   4.599  18.612  0.00  0.00    +0.000 A 
ENDBRANCH  19  25
ENDBRANCH  15  19
ENDBRANCH   1  15
TORSDOF 4
ENDMDL
MODEL 8
REMARK VINA RESULT:      -8.2      3.777      5.748
REMARK  Name = 
REMARK  5 active torsions:
REMARK  status: ('A' for Active; 'I' for Inactive)
REMARK    1  A    between atoms: C_1  and  N_2
REMARK    2  A    between atoms: C_6  and  C_7
REMARK    3  A    between atoms: C_7  and  C_8
REMARK    4  A    between atoms: C_8  and  C_9
REMARK    5  A    between atoms: C_13  and  N_14
REMARK                            x       y       z     vdW  Elec       q    Type
REMARK                         _______ _______ _______ _____ _____    ______ ____
ROOT
ATOM      1  C   UNL     1       2.662   7.277  18.482  0.00  0.00    +0.000 A 
ATOM      2  C   UNL     1       2.594   8.322  17.542  0.00  0.00    +0.000 A 
ATOM      3  C   UNL     1       1.933   9.515  17.818  0.00  0.00    +0.000 A 
ATOM      4  C   UNL     1       1.317   9.705  19.054  0.00  0.00    +0.000 A 
ATOM      5  C   UNL     1       1.376   8.717  20.039  0.00  0.00    +0.000 A 
ATOM      6  C   UNL     1       2.069   7.531  19.738  0.00  0.00    +0.000 A 
ENDROOT
BRANCH   5   7
ATOM      7  N   UNL     1       0.723   8.861  21.288  0.00  0.00    +0.000 N 
ATOM      8  C   UNL     1      -0.662   8.564  21.484  0.00  0.00    +0.000 C 
ATOM      9  C   UNL     1      -0.898   8.997  22.877  0.00  0.00    +0.000 C 
ATOM     10  C   UNL     1       0.186   9.518  23.494  0.00  0.00    +0.000 C 
ATOM     11  N   UNL     1      -0.962  10.269  23.355  0.00  0.00    +0.000 N 
ATOM     12  C   UNL     1       1.270   9.324  22.479  0.00  0.00    +0.000 C 
ATOM     13  O   UNL     1       2.437   9.543  22.763  0.00  0.00    +0.000 OA
ATOM     14  H   UNL     1      -1.434  10.333  24.264  0.00  0.00    +0.000 HD
ENDBRANCH   5   7
BRANCH   1  15
ATOM     15  C   UNL     1       3.352   5.859  18.131  0.00  0.00    +0.000 C 
ATOM     16  C   UNL     1       4.491   5.841  17.046  0.00  0.00    +0.000 C 
ATOM     17  C   UNL     1       5.542   5.860  18.160  0.00  0.00    +0.000 C 
ATOM     18  C   UNL     1       4.468   5.404  19.152  0.00  0.00    +0.000 C 
BRANCH  15  19
ATOM     19  C   UNL     1       2.272   4.769  17.946  0.00  0.00    +0.000 C 
BRANCH  19  25
ATOM     20  C   UNL     1       3.324   1.820  18.542  0.00  0.00    +0.000 C 
ATOM     21  N   UNL     1       2.434   2.622  19.349  0.00  0.00    +0.000 N 
ATOM     22  C   UNL     1       1.819   2.194  20.487  0.00  0.00    +0.000 A 
ATOM     23  N   UNL     1       1.080   3.159  20.975  0.00  0.00    +0.000 NA
ATOM     24  N   UNL     1       1.196   4.237  20.134  0.00  0.00    +0.000 NA
ATOM     25  C   UNL     1       2.002   3.912  19.140  0.00  0.00    +0.000 A 
ENDBRANCH  19  25
ENDBRANCH  15  19
ENDBRANCH   1  15
TORSDOF 4
ENDMDL
MODEL 9
REMARK VINA RESULT:      -8.2      2.696      3.775
REMARK  Name = 
REMARK  5 active torsions:
REMARK  status: ('A' for Active; 'I' for Inactive)
REMARK    1  A    between atoms: C_1  and  N_2
REMARK    2  A    between atoms: C_6  and  C_7
REMARK    3  A    between atoms: C_7  and  C_8
REMARK    4  A    between atoms: C_8  and  C_9
REMARK    5  A    between atoms: C_13  and  N_14
REMARK                            x       y       z     vdW  Elec       q    Type
REMARK                         _______ _______ _______ _____ _____    ______ ____
ROOT
ATOM      1  C   UNL     1       4.499   5.084  17.310  0.00  0.00    +0.000 A 
ATOM      2  C   UNL     1       3.650   3.963  17.237  0.00  0.00    +0.000 A 
ATOM      3  C   UNL     1       2.343   4.001  17.713  0.00  0.00    +0.000 A 
ATOM      4  C   UNL     1       1.837   5.170  18.279  0.00  0.00    +0.000 A 
ATOM      5  C   UNL     1       2.620   6.323  18.352  0.00  0.00    +0.000 A 
ATOM      6  C   UNL     1       3.930   6.260  17.844  0.00  0.00    +0.000 A 
ENDROOT
BRANCH   5   7
ATOM      7  N   UNL     1       2.151   7.513  18.962  0.00  0.00    +0.000 N 
ATOM      8  C   UNL     1       1.810   7.599  20.347  0.00  0.00    +0.000 C 
ATOM      9  C   UNL     1       1.254   8.963  20.466  0.00  0.00    +0.000 C 
ATOM     10  C   UNL     1       1.226   9.660  19.309  0.00  0.00    +0.000 C 
ATOM     11  N   UNL     1       0.060   9.420  20.003  0.00  0.00    +0.000 N 
ATOM     12  C   UNL     1       1.917   8.739  18.351  0.00  0.00    +0.000 C 
ATOM     13  O   UNL     1       2.211   9.115  17.226  0.00  0.00    +0.000 OA
ATOM     14  H   UNL     1      -0.243  10.287  20.461  0.00  0.00    +0.000 HD
ENDBRANCH   5   7
BRANCH   1  15
ATOM     15  C   UNL     1       6.042   5.014  16.839  0.00  0.00    +0.000 C 
ATOM     16  C   UNL     1       6.839   6.366  16.720  0.00  0.00    +0.000 C 
ATOM     17  C   UNL     1       7.448   6.121  18.104  0.00  0.00    +0.000 C 
ATOM     18  C   UNL     1       7.060   4.644  17.989  0.00  0.00    +0.000 C 
BRANCH  15  19
ATOM     19  C   UNL     1       6.190   4.072  15.624  0.00  0.00    +0.000 C 
BRANCH  19  25
ATOM     20  C   UNL     1       5.737   3.374  12.546  0.00  0.00    +0.000 C 
ATOM     21  N   UNL     1       6.691   4.297  13.113  0.00  0.00    +0.000 N 
ATOM     22  C   UNL     1       7.636   4.975  12.401  0.00  0.00    +0.000 A 
ATOM     23  N   UNL     1       8.341   5.726  13.209  0.00  0.00    +0.000 NA
ATOM     24  N   UNL     1       7.864   5.528  14.481  0.00  0.00    +0.000 NA
ATOM     25  C   UNL     1       6.877   4.653  14.430  0.00  0.00    +0.000 A 
ENDBRANCH  19  25
ENDBRANCH  15  19
ENDBRANCH   1  15
TORSDOF 4
ENDMDL
