MODEL 1
REMARK VINA RESULT:      -7.8      0.000      0.000
REMARK  Name = 
REMARK  5 active torsions:
REMARK  status: ('A' for Active; 'I' for Inactive)
REMARK    1  A    between atoms: C_2  and  C_16
REMARK    2  A    between atoms: N_3  and  C_4
REMARK    3  A    between atoms: C_8  and  O_9
REMARK    4  A    between atoms: O_9  and  C_10
REMARK    5  A    between atoms: C_20  and  N_21
REMARK                            x       y       z     vdW  Elec       q    Type
REMARK                         _______ _______ _______ _____ _____    ______ ____
ROOT
ATOM      1  O   UNL     1       2.485   8.560  17.336  0.00  0.00    +0.000 OA
ATOM      2  C   UNL     1       2.433   8.022  18.437  0.00  0.00    +0.000 C 
ATOM      3  N   UNL     1       3.080   6.852  18.803  0.00  0.00    +0.000 N 
ATOM      4  H   UNL     1       2.806   6.406  19.674  0.00  0.00    +0.000 HD
ENDROOT
BRANCH   3   5
ATOM      5  C   UNL     1       3.930   6.099  17.966  0.00  0.00    +0.000 A 
ATOM      6  C   UNL     1       5.211   6.512  17.602  0.00  0.00    +0.000 A 
ATOM      7  C   UNL     1       5.973   5.745  16.723  0.00  0.00    +0.000 A 
ATOM      8  F   UNL     1       7.177   6.218  16.375  0.00  0.00    +0.000 F 
ATOM      9  C   UNL     1       5.486   4.547  16.198  0.00  0.00    +0.000 A 
ATOM     10  C   UNL     1       4.211   4.121  16.570  0.00  0.00    +0.000 A 
ATOM     11  C   UNL     1       3.454   4.885  17.458  0.00  0.00    +0.000 A 
ATOM     12  F   UNL     1       2.230   4.455  17.806  0.00  0.00    +0.000 F 
BRANCH   9  13
ATOM     13  O   UNL     1       6.134   3.742  15.303  0.00  0.00    +0.000 OA
BRANCH  13  14
ATOM     14  C   UNL     1       6.129   4.184  13.951  0.00  0.00    +0.000 C 
ATOM     15  F   UNL     1       7.269   4.877  13.713  0.00  0.00    +0.000 F 
ATOM     16  F   UNL     1       6.185   3.072  13.173  0.00  0.00    +0.000 F 
ENDBRANCH  13  14
ENDBRANCH   9  13
ENDBRANCH   3   5
BRANCH   2  17
ATOM     17  C   UNL     1       1.542   8.628  19.451  0.00  0.00    +0.000 A 
ATOM     18  C   UNL     1       1.382   7.940  20.662  0.00  0.00    +0.000 A 
ATOM     19  C   UNL     1       0.523   8.434  21.633  0.00  0.00    +0.000 A 
ATOM     20  C   UNL     1      -0.161   9.625  21.400  0.00  0.00    +0.000 A 
ATOM     21  C   UNL     1       0.033  10.354  20.215  0.00  0.00    +0.000 A 
ATOM     22  C   UNL     1       0.851   9.819  19.215  0.00  0.00    +0.000 A 
BRANCH  21  23
ATOM     23  N   UNL     1      -0.594  11.598  19.998  0.00  0.00    +0.000 N 
ATOM     24  C   UNL     1      -0.360  12.771  20.731  0.00  0.00    +0.000 A 
ATOM     25  C   UNL     1       0.917  13.109  21.203  0.00  0.00    +0.000 A 
ATOM     26  N   UNL     1       1.177  14.199  21.960  0.00  0.00    +0.000 NA
ATOM     27  C   UNL     1       0.108  14.981  22.208  0.00  0.00    +0.000 A 
ATOM     28  C   UNL     1      -1.151  14.688  21.709  0.00  0.00    +0.000 A 
ATOM     29  N   UNL     1      -1.411  13.585  20.964  0.00  0.00    +0.000 NA
ATOM     30  H   UNL     1      -1.594  11.525  19.821  0.00  0.00    +0.000 HD
ENDBRANCH  21  23
ENDBRANCH   2  17
TORSDOF 5
ENDMDL
MODEL 2
REMARK VINA RESULT:      -7.8      4.214      9.394
REMARK  Name = 
REMARK  5 active torsions:
REMARK  status: ('A' for Active; 'I' for Inactive)
REMARK    1  A    between atoms: C_2  and  C_16
REMARK    2  A    between atoms: N_3  and  C_4
REMARK    3  A    between atoms: C_8  and  O_9
REMARK    4  A    between atoms: O_9  and  C_10
REMARK    5  A    between atoms: C_20  and  N_21
REMARK                            x       y       z     vdW  Elec       q    Type
REMARK                         _______ _______ _______ _____ _____    ______ ____
ROOT
ATOM      1  O   UNL     1       0.717   5.537  20.756  0.00  0.00    +0.000 OA
ATOM      2  C   UNL     1       1.857   5.893  20.477  0.00  0.00    +0.000 C 
ATOM      3  N   UNL     1       2.300   7.203  20.379  0.00  0.00    +0.000 N 
ATOM      4  H   UNL     1       3.208   7.371  19.954  0.00  0.00    +0.000 HD
ENDROOT
BRANCH   3   5
ATOM      5  C   UNL     1       1.510   8.346  20.613  0.00  0.00    +0.000 A 
ATOM      6  C   UNL     1       1.070   8.731  21.879  0.00  0.00    +0.000 A 
ATOM      7  C   UNL     1       0.241   9.840  22.029  0.00  0.00    +0.000 A 
ATOM      8  F   UNL     1      -0.185  10.131  23.265  0.00  0.00    +0.000 F 
ATOM      9  C   UNL     1      -0.159  10.599  20.928  0.00  0.00    +0.000 A 
ATOM     10  C   UNL     1       0.289  10.229  19.659  0.00  0.00    +0.000 A 
ATOM     11  C   UNL     1       1.128   9.124  19.513  0.00  0.00    +0.000 A 
ATOM     12  F   UNL     1       1.550   8.786  18.285  0.00  0.00    +0.000 F 
BRANCH   9  13
ATOM     13  O   UNL     1      -0.997  11.678  20.960  0.00  0.00    +0.000 OA
BRANCH  13  14
ATOM     14  C   UNL     1      -1.479  12.131  19.700  0.00  0.00    +0.000 C 
ATOM     15  F   UNL     1      -2.798  11.836  19.605  0.00  0.00    +0.000 F 
ATOM     16  F   UNL     1      -1.387  13.486  19.707  0.00  0.00    +0.000 F 
ENDBRANCH  13  14
ENDBRANCH   9  13
ENDBRANCH   3   5
BRANCH   2  17
ATOM     17  C   UNL     1       2.837   4.837  20.137  0.00  0.00    +0.000 A 
ATOM     18  C   UNL     1       2.499   3.516  20.465  0.00  0.00    +0.000 A 
ATOM     19  C   UNL     1       3.396   2.488  20.215  0.00  0.00    +0.000 A 
ATOM     20  C   UNL     1       4.622   2.779  19.620  0.00  0.00    +0.000 A 
ATOM     21  C   UNL     1       4.950   4.089  19.235  0.00  0.00    +0.000 A 
ATOM     22  C   UNL     1       4.069   5.129  19.547  0.00  0.00    +0.000 A 
BRANCH  21  23
ATOM     23  N   UNL     1       6.154   4.387  18.564  0.00  0.00    +0.000 N 
ATOM     24  C   UNL     1       6.269   4.756  17.216  0.00  0.00    +0.000 A 
ATOM     25  C   UNL     1       5.317   5.569  16.584  0.00  0.00    +0.000 A 
ATOM     26  N   UNL     1       5.358   5.903  15.274  0.00  0.00    +0.000 NA
ATOM     27  C   UNL     1       6.423   5.421  14.605  0.00  0.00    +0.000 A 
ATOM     28  C   UNL     1       7.400   4.657  15.223  0.00  0.00    +0.000 A 
ATOM     29  N   UNL     1       7.346   4.311  16.533  0.00  0.00    +0.000 NA
ATOM     30  H   UNL     1       6.913   3.746  18.787  0.00  0.00    +0.000 HD
ENDBRANCH  21  23
ENDBRANCH   2  17
TORSDOF 5
ENDMDL
MODEL 3
REMARK VINA RESULT:      -7.7      1.117      1.193
REMARK  Name = 
REMARK  5 active torsions:
REMARK  status: ('A' for Active; 'I' for Inactive)
REMARK    1  A    between atoms: C_2  and  C_16
REMARK    2  A    between atoms: N_3  and  C_4
REMARK    3  A    between atoms: C_8  and  O_9
REMARK    4  A    between atoms: O_9  and  C_10
REMARK    5  A    between atoms: C_20  and  N_21
REMARK                            x       y       z     vdW  Elec       q    Type
REMARK                         _______ _______ _______ _____ _____    ______ ____
ROOT
ATOM      1  O   UNL     1       2.433   8.529  17.249  0.00  0.00    +0.000 OA
ATOM      2  C   UNL     1       2.382   8.046  18.375  0.00  0.00    +0.000 C 
ATOM      3  N   UNL     1       3.023   6.892  18.796  0.00  0.00    +0.000 N 
ATOM      4  H   UNL     1       2.750   6.491  19.689  0.00  0.00    +0.000 HD
ENDROOT
BRANCH   3   5
ATOM      5  C   UNL     1       3.866   6.094  17.995  0.00  0.00    +0.000 A 
ATOM      6  C   UNL     1       5.149   6.479  17.609  0.00  0.00    +0.000 A 
ATOM      7  C   UNL     1       5.904   5.667  16.767  0.00  0.00    +0.000 A 
ATOM      8  F   UNL     1       7.111   6.113  16.394  0.00  0.00    +0.000 F 
ATOM      9  C   UNL     1       5.408   4.448  16.300  0.00  0.00    +0.000 A 
ATOM     10  C   UNL     1       4.130   4.049  16.695  0.00  0.00    +0.000 A 
ATOM     11  C   UNL     1       3.381   4.860  17.547  0.00  0.00    +0.000 A 
ATOM     12  F   UNL     1       2.155   4.457  17.917  0.00  0.00    +0.000 F 
BRANCH   9  13
ATOM     13  O   UNL     1       6.048   3.597  15.444  0.00  0.00    +0.000 OA
BRANCH  13  14
ATOM     14  C   UNL     1       6.208   4.061  14.109  0.00  0.00    +0.000 C 
ATOM     15  F   UNL     1       6.462   3.000  13.304  0.00  0.00    +0.000 F 
ATOM     16  F   UNL     1       5.007   4.561  13.719  0.00  0.00    +0.000 F 
ENDBRANCH  13  14
ENDBRANCH   9  13
ENDBRANCH   3   5
BRANCH   2  17
ATOM     17  C   UNL     1       1.497   8.707  19.360  0.00  0.00    +0.000 A 
ATOM     18  C   UNL     1       1.502   8.203  20.669  0.00  0.00    +0.000 A 
ATOM     19  C   UNL     1       0.659   8.750  21.626  0.00  0.00    +0.000 A 
ATOM     20  C   UNL     1      -0.173   9.812  21.279  0.00  0.00    +0.000 A 
ATOM     21  C   UNL     1      -0.145  10.365  19.987  0.00  0.00    +0.000 A 
ATOM     22  C   UNL     1       0.659   9.769  19.011  0.00  0.00    +0.000 A 
BRANCH  21  23
ATOM     23  N   UNL     1      -0.925  11.488  19.644  0.00  0.00    +0.000 N 
ATOM     24  C   UNL     1      -0.449  12.800  19.495  0.00  0.00    +0.000 A 
ATOM     25  C   UNL     1       0.809  13.075  18.941  0.00  0.00    +0.000 A 
ATOM     26  N   UNL     1       1.330  14.318  18.830  0.00  0.00    +0.000 NA
ATOM     27  C   UNL     1       0.524  15.306  19.266  0.00  0.00    +0.000 A 
ATOM     28  C   UNL     1      -0.742  15.057  19.771  0.00  0.00    +0.000 A 
ATOM     29  N   UNL     1      -1.253  13.807  19.895  0.00  0.00    +0.000 NA
ATOM     30  H   UNL     1      -1.821  11.525  20.126  0.00  0.00    +0.000 HD
ENDBRANCH  21  23
ENDBRANCH   2  17
TORSDOF 5
ENDMDL
MODEL 4
REMARK VINA RESULT:      -7.6      1.562      1.643
REMARK  Name = 
REMARK  5 active torsions:
REMARK  status: ('A' for Active; 'I' for Inactive)
REMARK    1  A    between atoms: C_2  and  C_16
REMARK    2  A    between atoms: N_3  and  C_4
REMARK    3  A    between atoms: C_8  and  O_9
REMARK    4  A    between atoms: O_9  and  C_10
REMARK    5  A    between atoms: C_20  and  N_21
REMARK                            x       y       z     vdW  Elec       q    Type
REMARK                         _______ _______ _______ _____ _____    ______ ____
ROOT
ATOM      1  O   UNL     1       2.512   6.388  20.390  0.00  0.00    +0.000 OA
ATOM      2  C   UNL     1       2.292   7.296  19.596  0.00  0.00    +0.000 C 
ATOM      3  N   UNL     1       2.860   7.435  18.339  0.00  0.00    +0.000 N 
ATOM      4  H   UNL     1       2.749   8.323  17.859  0.00  0.00    +0.000 HD
ENDROOT
BRANCH   3   5
ATOM      5  C   UNL     1       3.771   6.530  17.757  0.00  0.00    +0.000 A 
ATOM      6  C   UNL     1       5.092   6.858  17.455  0.00  0.00    +0.000 A 
ATOM      7  C   UNL     1       5.921   5.933  16.825  0.00  0.00    +0.000 A 
ATOM      8  F   UNL     1       7.165   6.324  16.519  0.00  0.00    +0.000 F 
ATOM      9  C   UNL     1       5.461   4.657  16.493  0.00  0.00    +0.000 A 
ATOM     10  C   UNL     1       4.144   4.317  16.806  0.00  0.00    +0.000 A 
ATOM     11  C   UNL     1       3.320   5.242  17.446  0.00  0.00    +0.000 A 
ATOM     12  F   UNL     1       2.057   4.894  17.741  0.00  0.00    +0.000 F 
BRANCH   9  13
ATOM     13  O   UNL     1       6.176   3.691  15.843  0.00  0.00    +0.000 OA
BRANCH  13  14
ATOM     14  C   UNL     1       6.275   3.834  14.431  0.00  0.00    +0.000 C 
ATOM     15  F   UNL     1       5.150   4.435  13.972  0.00  0.00    +0.000 F 
ATOM     16  F   UNL     1       7.297   4.697  14.193  0.00  0.00    +0.000 F 
ENDBRANCH  13  14
ENDBRANCH   9  13
ENDBRANCH   3   5
BRANCH   2  17
ATOM     17  C   UNL     1       1.398   8.389  20.041  0.00  0.00    +0.000 A 
ATOM     18  C   UNL     1       0.906   8.324  21.352  0.00  0.00    +0.000 A 
ATOM     19  C   UNL     1       0.026   9.294  21.812  0.00  0.00    +0.000 A 
ATOM     20  C   UNL     1      -0.345  10.337  20.967  0.00  0.00    +0.000 A 
ATOM     21  C   UNL     1       0.185  10.446  19.670  0.00  0.00    +0.000 A 
ATOM     22  C   UNL     1       1.021   9.432  19.192  0.00  0.00    +0.000 A 
BRANCH  21  23
ATOM     23  N   UNL     1      -0.122  11.536  18.832  0.00  0.00    +0.000 N 
ATOM     24  C   UNL     1       0.409  12.830  18.944  0.00  0.00    +0.000 A 
ATOM     25  C   UNL     1       1.740  13.055  19.323  0.00  0.00    +0.000 A 
ATOM     26  N   UNL     1       2.278  14.284  19.499  0.00  0.00    +0.000 NA
ATOM     27  C   UNL     1       1.439  15.307  19.242  0.00  0.00    +0.000 A 
ATOM     28  C   UNL     1       0.135  15.103  18.818  0.00  0.00    +0.000 A 
ATOM     29  N   UNL     1      -0.405  13.869  18.660  0.00  0.00    +0.000 NA
ATOM     30  H   UNL     1      -1.113  11.615  18.613  0.00  0.00    +0.000 HD
ENDBRANCH  21  23
ENDBRANCH   2  17
TORSDOF 5
ENDMDL
MODEL 5
REMARK VINA RESULT:      -7.5      4.188      9.312
REMARK  Name = 
REMARK  5 active torsions:
REMARK  status: ('A' for Active; 'I' for Inactive)
REMARK    1  A    between atoms: C_2  and  C_16
REMARK    2  A    between atoms: N_3  and  C_4
REMARK    3  A    between atoms: C_8  and  O_9
REMARK    4  A    between atoms: O_9  and  C_10
REMARK    5  A    between atoms: C_20  and  N_21
REMARK                            x       y       z     vdW  Elec       q    Type
REMARK                         _______ _______ _______ _____ _____    ______ ____
ROOT
ATOM      1  O   UNL     1       0.508   5.442  20.614  0.00  0.00    +0.000 OA
ATOM      2  C   UNL     1       1.689   5.650  20.358  0.00  0.00    +0.000 C 
ATOM      3  N   UNL     1       2.292   6.892  20.247  0.00  0.00    +0.000 N 
ATOM      4  H   UNL     1       3.223   6.939  19.843  0.00  0.00    +0.000 HD
ENDROOT
BRANCH   3   5
ATOM      5  C   UNL     1       1.642   8.129  20.437  0.00  0.00    +0.000 A 
ATOM      6  C   UNL     1       1.224   8.593  21.684  0.00  0.00    +0.000 A 
ATOM      7  C   UNL     1       0.534   9.798  21.790  0.00  0.00    +0.000 A 
ATOM      8  F   UNL     1       0.118  10.168  23.009  0.00  0.00    +0.000 F 
ATOM      9  C   UNL     1       0.255  10.575  20.664  0.00  0.00    +0.000 A 
ATOM     10  C   UNL     1       0.684  10.124  19.415  0.00  0.00    +0.000 A 
ATOM     11  C   UNL     1       1.384   8.922  19.313  0.00  0.00    +0.000 A 
ATOM     12  F   UNL     1       1.790   8.507  18.102  0.00  0.00    +0.000 F 
BRANCH   9  13
ATOM     13  O   UNL     1      -0.445  11.749  20.653  0.00  0.00    +0.000 OA
BRANCH  13  14
ATOM     14  C   UNL     1      -1.435  11.874  19.639  0.00  0.00    +0.000 C 
ATOM     15  F   UNL     1      -2.631  12.130  20.224  0.00  0.00    +0.000 F 
ATOM     16  F   UNL     1      -1.118  12.978  18.914  0.00  0.00    +0.000 F 
ENDBRANCH  13  14
ENDBRANCH   9  13
ENDBRANCH   3   5
BRANCH   2  17
ATOM     17  C   UNL     1       2.539   4.474  20.065  0.00  0.00    +0.000 A 
ATOM     18  C   UNL     1       2.694   3.522  21.084  0.00  0.00    +0.000 A 
ATOM     19  C   UNL     1       3.518   2.423  20.886  0.00  0.00    +0.000 A 
ATOM     20  C   UNL     1       4.169   2.266  19.665  0.00  0.00    +0.000 A 
ATOM     21  C   UNL     1       3.977   3.181  18.616  0.00  0.00    +0.000 A 
ATOM     22  C   UNL     1       3.197   4.320  18.843  0.00  0.00    +0.000 A 
BRANCH  21  23
ATOM     23  N   UNL     1       4.569   2.995  17.350  0.00  0.00    +0.000 N 
ATOM     24  C   UNL     1       5.501   3.854  16.748  0.00  0.00    +0.000 A 
ATOM     25  C   UNL     1       6.486   4.518  17.492  0.00  0.00    +0.000 A 
ATOM     26  N   UNL     1       7.367   5.397  16.962  0.00  0.00    +0.000 NA
ATOM     27  C   UNL     1       7.258   5.570  15.630  0.00  0.00    +0.000 A 
ATOM     28  C   UNL     1       6.322   4.885  14.872  0.00  0.00    +0.000 A 
ATOM     29  N   UNL     1       5.429   4.017  15.410  0.00  0.00    +0.000 NA
ATOM     30  H   UNL     1       3.914   2.682  16.637  0.00  0.00    +0.000 HD
ENDBRANCH  21  23
ENDBRANCH   2  17
TORSDOF 5
ENDMDL
MODEL 6
REMARK VINA RESULT:      -7.5      6.565      9.421
REMARK  Name = 
REMARK  5 active torsions:
REMARK  status: ('A' for Active; 'I' for Inactive)
REMARK    1  A    between atoms: C_2  and  C_16
REMARK    2  A    between atoms: N_3  and  C_4
REMARK    3  A    between atoms: C_8  and  O_9
REMARK    4  A    between atoms: O_9  and  C_10
REMARK    5  A    between atoms: C_20  and  N_21
REMARK                            x       y       z     vdW  Elec       q    Type
REMARK                         _______ _______ _______ _____ _____    ______ ____
ROOT
ATOM      1  O   UNL     1       7.530   9.556  17.120  0.00  0.00    +0.000 OA
ATOM      2  C   UNL     1       7.990   8.849  18.011  0.00  0.00    +0.000 C 
ATOM      3  N   UNL     1       8.977   9.214  18.912  0.00  0.00    +0.000 N 
ATOM      4  H   UNL     1       9.408   8.483  19.472  0.00  0.00    +0.000 HD
ENDROOT
BRANCH   3   5
ATOM      5  C   UNL     1       9.599  10.478  18.967  0.00  0.00    +0.000 A 
ATOM      6  C   UNL     1      10.121  11.126  17.848  0.00  0.00    +0.000 A 
ATOM      7  C   UNL     1      10.776  12.348  17.985  0.00  0.00    +0.000 A 
ATOM      8  F   UNL     1      11.297  12.897  16.880  0.00  0.00    +0.000 F 
ATOM      9  C   UNL     1      10.915  12.959  19.232  0.00  0.00    +0.000 A 
ATOM     10  C   UNL     1      10.380  12.324  20.354  0.00  0.00    +0.000 A 
ATOM     11  C   UNL     1       9.716  11.106  20.212  0.00  0.00    +0.000 A 
ATOM     12  F   UNL     1       9.207  10.513  21.304  0.00  0.00    +0.000 F 
BRANCH   9  13
ATOM     13  O   UNL     1      11.569  14.134  19.481  0.00  0.00    +0.000 OA
BRANCH  13  14
ATOM     14  C   UNL     1      10.882  15.320  19.102  0.00  0.00    +0.000 C 
ATOM     15  F   UNL     1      11.262  15.664  17.847  0.00  0.00    +0.000 F 
ATOM     16  F   UNL     1       9.563  15.007  19.033  0.00  0.00    +0.000 F 
ENDBRANCH  13  14
ENDBRANCH   9  13
ENDBRANCH   3   5
BRANCH   2  17
ATOM     17  C   UNL     1       7.506   7.452  18.089  0.00  0.00    +0.000 A 
ATOM     18  C   UNL     1       8.292   6.539  18.807  0.00  0.00    +0.000 A 
ATOM     19  C   UNL     1       7.916   5.205  18.877  0.00  0.00    +0.000 A 
ATOM     20  C   UNL     1       6.746   4.790  18.246  0.00  0.00    +0.000 A 
ATOM     21  C   UNL     1       5.920   5.705  17.572  0.00  0.00    +0.000 A 
ATOM     22  C   UNL     1       6.337   7.034  17.452  0.00  0.00    +0.000 A 
BRANCH  21  23
ATOM     23  N   UNL     1       4.695   5.313  16.994  0.00  0.00    +0.000 N 
ATOM     24  C   UNL     1       3.562   4.875  17.696  0.00  0.00    +0.000 A 
ATOM     25  C   UNL     1       3.196   5.426  18.932  0.00  0.00    +0.000 A 
ATOM     26  N   UNL     1       2.146   4.996  19.669  0.00  0.00    +0.000 NA
ATOM     27  C   UNL     1       1.433   4.001  19.106  0.00  0.00    +0.000 A 
ATOM     28  C   UNL     1       1.752   3.478  17.862  0.00  0.00    +0.000 A 
ATOM     29  N   UNL     1       2.815   3.901  17.135  0.00  0.00    +0.000 NA
ATOM     30  H   UNL     1       4.804   4.732  16.166  0.00  0.00    +0.000 HD
ENDBRANCH  21  23
ENDBRANCH   2  17
TORSDOF 5
ENDMDL
MODEL 7
REMARK VINA RESULT:      -7.4      4.051      9.327
REMARK  Name = 
REMARK  5 active torsions:
REMARK  status: ('A' for Active; 'I' for Inactive)
REMARK    1  A    between atoms: C_2  and  C_16
REMARK    2  A    between atoms: N_3  and  C_4
REMARK    3  A    between atoms: C_8  and  O_9
REMARK    4  A    between atoms: O_9  and  C_10
REMARK    5  A    between atoms: C_20  and  N_21
REMARK                            x       y       z     vdW  Elec       q    Type
REMARK                         _______ _______ _______ _____ _____    ______ ____
ROOT
ATOM      1  O   UNL     1       0.555   5.441  20.639  0.00  0.00    +0.000 OA
ATOM      2  C   UNL     1       1.724   5.651  20.332  0.00  0.00    +0.000 C 
ATOM      3  N   UNL     1       2.313   6.895  20.172  0.00  0.00    +0.000 N 
ATOM      4  H   UNL     1       3.228   6.939  19.730  0.00  0.00    +0.000 HD
ENDROOT
BRANCH   3   5
ATOM      5  C   UNL     1       1.662   8.131  20.362  0.00  0.00    +0.000 A 
ATOM      6  C   UNL     1       1.235   8.591  21.607  0.00  0.00    +0.000 A 
ATOM      7  C   UNL     1       0.544   9.796  21.712  0.00  0.00    +0.000 A 
ATOM      8  F   UNL     1       0.119  10.160  22.929  0.00  0.00    +0.000 F 
ATOM      9  C   UNL     1       0.275  10.577  20.587  0.00  0.00    +0.000 A 
ATOM     10  C   UNL     1       0.713  10.131  19.340  0.00  0.00    +0.000 A 
ATOM     11  C   UNL     1       1.413   8.929  19.239  0.00  0.00    +0.000 A 
ATOM     12  F   UNL     1       1.829   8.518  18.030  0.00  0.00    +0.000 F 
BRANCH   9  13
ATOM     13  O   UNL     1      -0.425  11.751  20.576  0.00  0.00    +0.000 OA
BRANCH  13  14
ATOM     14  C   UNL     1       0.273  12.896  21.049  0.00  0.00    +0.000 C 
ATOM     15  F   UNL     1      -0.026  13.081  22.359  0.00  0.00    +0.000 F 
ATOM     16  F   UNL     1       1.598  12.600  20.996  0.00  0.00    +0.000 F 
ENDBRANCH  13  14
ENDBRANCH   9  13
ENDBRANCH   3   5
BRANCH   2  17
ATOM     17  C   UNL     1       2.571   4.475  20.031  0.00  0.00    +0.000 A 
ATOM     18  C   UNL     1       2.742   3.526  21.050  0.00  0.00    +0.000 A 
ATOM     19  C   UNL     1       3.563   2.427  20.843  0.00  0.00    +0.000 A 
ATOM     20  C   UNL     1       4.196   2.266  19.613  0.00  0.00    +0.000 A 
ATOM     21  C   UNL     1       3.988   3.178  18.564  0.00  0.00    +0.000 A 
ATOM     22  C   UNL     1       3.211   4.317  18.799  0.00  0.00    +0.000 A 
BRANCH  21  23
ATOM     23  N   UNL     1       4.560   2.988  17.290  0.00  0.00    +0.000 N 
ATOM     24  C   UNL     1       5.502   3.831  16.682  0.00  0.00    +0.000 A 
ATOM     25  C   UNL     1       6.510   4.471  17.418  0.00  0.00    +0.000 A 
ATOM     26  N   UNL     1       7.402   5.336  16.883  0.00  0.00    +0.000 NA
ATOM     27  C   UNL     1       7.280   5.519  15.553  0.00  0.00    +0.000 A 
ATOM     28  C   UNL     1       6.321   4.858  14.802  0.00  0.00    +0.000 A 
ATOM     29  N   UNL     1       5.418   4.005  15.346  0.00  0.00    +0.000 NA
ATOM     30  H   UNL     1       3.891   2.693  16.583  0.00  0.00    +0.000 HD
ENDBRANCH  21  23
ENDBRANCH   2  17
TORSDOF 5
ENDMDL
MODEL 8
REMARK VINA RESULT:      -7.4      4.420      9.494
REMARK  Name = 
REMARK  5 active torsions:
REMARK  status: ('A' for Active; 'I' for Inactive)
REMARK    1  A    between atoms: C_2  and  C_16
REMARK    2  A    between atoms: N_3  and  C_4
REMARK    3  A    between atoms: C_8  and  O_9
REMARK    4  A    between atoms: O_9  and  C_10
REMARK    5  A    between atoms: C_20  and  N_21
REMARK                            x       y       z     vdW  Elec       q    Type
REMARK                         _______ _______ _______ _____ _____    ______ ____
ROOT
ATOM      1  O   UNL     1       2.697   9.010  17.949  0.00  0.00    +0.000 OA
ATOM      2  C   UNL     1       2.045   8.397  18.788  0.00  0.00    +0.000 C 
ATOM      3  N   UNL     1       1.080   8.937  19.624  0.00  0.00    +0.000 N 
ATOM      4  H   UNL     1       0.752   8.374  20.403  0.00  0.00    +0.000 HD
ENDROOT
BRANCH   3   5
ATOM      5  C   UNL     1       0.672  10.287  19.625  0.00  0.00    +0.000 A 
ATOM      6  C   UNL     1       1.045  11.201  20.610  0.00  0.00    +0.000 A 
ATOM      7  C   UNL     1       0.556  12.505  20.581  0.00  0.00    +0.000 A 
ATOM      8  F   UNL     1       0.914  13.322  21.580  0.00  0.00    +0.000 F 
ATOM      9  C   UNL     1      -0.304  12.933  19.568  0.00  0.00    +0.000 A 
ATOM     10  C   UNL     1      -0.669  12.028  18.571  0.00  0.00    +0.000 A 
ATOM     11  C   UNL     1      -0.169  10.726  18.597  0.00  0.00    +0.000 A 
ATOM     12  F   UNL     1      -0.531   9.872  17.626  0.00  0.00    +0.000 F 
BRANCH   9  13
ATOM     13  O   UNL     1      -0.869  14.174  19.467  0.00  0.00    +0.000 OA
BRANCH  13  14
ATOM     14  C   UNL     1       0.012  15.231  19.108  0.00  0.00    +0.000 C 
ATOM     15  F   UNL     1       1.057  14.714  18.416  0.00  0.00    +0.000 F 
ATOM     16  F   UNL     1      -0.665  16.030  18.242  0.00  0.00    +0.000 F 
ENDBRANCH  13  14
ENDBRANCH   9  13
ENDBRANCH   3   5
BRANCH   2  17
ATOM     17  C   UNL     1       2.364   6.965  18.986  0.00  0.00    +0.000 A 
ATOM     18  C   UNL     1       2.049   6.402  20.231  0.00  0.00    +0.000 A 
ATOM     19  C   UNL     1       2.367   5.077  20.493  0.00  0.00    +0.000 A 
ATOM     20  C   UNL     1       2.981   4.312  19.504  0.00  0.00    +0.000 A 
ATOM     21  C   UNL     1       3.249   4.847  18.233  0.00  0.00    +0.000 A 
ATOM     22  C   UNL     1       2.985   6.199  17.997  0.00  0.00    +0.000 A 
BRANCH  21  23
ATOM     23  N   UNL     1       3.800   4.063  17.199  0.00  0.00    +0.000 N 
ATOM     24  C   UNL     1       5.038   4.281  16.577  0.00  0.00    +0.000 A 
ATOM     25  C   UNL     1       6.155   4.740  17.289  0.00  0.00    +0.000 A 
ATOM     26  N   UNL     1       7.351   5.018  16.722  0.00  0.00    +0.000 NA
ATOM     27  C   UNL     1       7.412   4.783  15.396  0.00  0.00    +0.000 A 
ATOM     28  C   UNL     1       6.333   4.283  14.685  0.00  0.00    +0.000 A 
ATOM     29  N   UNL     1       5.131   4.022  15.256  0.00  0.00    +0.000 NA
ATOM     30  H   UNL     1       3.124   3.800  16.484  0.00  0.00    +0.000 HD
ENDBRANCH  21  23
ENDBRANCH   2  17
TORSDOF 5
ENDMDL
MODEL 9
REMARK VINA RESULT:      -7.4      5.567     10.742
REMARK  Name = 
REMARK  5 active torsions:
REMARK  status: ('A' for Active; 'I' for Inactive)
REMARK    1  A    between atoms: C_2  and  C_16
REMARK    2  A    between atoms: N_3  and  C_4
REMARK    3  A    between atoms: C_8  and  O_9
REMARK    4  A    between atoms: O_9  and  C_10
REMARK    5  A    between atoms: C_20  and  N_21
REMARK                            x       y       z     vdW  Elec       q    Type
REMARK                         _______ _______ _______ _____ _____    ______ ____
ROOT
ATOM      1  O   UNL     1      -0.307   9.410  21.789  0.00  0.00    +0.000 OA
ATOM      2  C   UNL     1       0.201   9.981  20.831  0.00  0.00    +0.000 C 
ATOM      3  N   UNL     1      -0.014  11.299  20.460  0.00  0.00    +0.000 N 
ATOM      4  H   UNL     1       0.308  11.598  19.544  0.00  0.00    +0.000 HD
ENDROOT
BRANCH   3   5
ATOM      5  C   UNL     1      -0.842  12.210  21.148  0.00  0.00    +0.000 A 
ATOM      6  C   UNL     1      -0.436  12.910  22.283  0.00  0.00    +0.000 A 
ATOM      7  C   UNL     1      -1.327  13.750  22.947  0.00  0.00    +0.000 A 
ATOM      8  F   UNL     1      -0.891  14.359  24.059  0.00  0.00    +0.000 F 
ATOM      9  C   UNL     1      -2.635  13.923  22.493  0.00  0.00    +0.000 A 
ATOM     10  C   UNL     1      -3.043  13.238  21.348  0.00  0.00    +0.000 A 
ATOM     11  C   UNL     1      -2.146  12.406  20.679  0.00  0.00    +0.000 A 
ATOM     12  F   UNL     1      -2.559  11.757  19.578  0.00  0.00    +0.000 F 
BRANCH   9  13
ATOM     13  O   UNL     1      -3.596  14.691  23.089  0.00  0.00    +0.000 OA
BRANCH  13  14
ATOM     14  C   UNL     1      -4.165  14.162  24.280  0.00  0.00    +0.000 C 
ATOM     15  F   UNL     1      -3.946  12.824  24.313  0.00  0.00    +0.000 F 
ATOM     16  F   UNL     1      -3.466  14.691  25.318  0.00  0.00    +0.000 F 
ENDBRANCH  13  14
ENDBRANCH   9  13
ENDBRANCH   3   5
BRANCH   2  17
ATOM     17  C   UNL     1       1.067   9.177  19.938  0.00  0.00    +0.000 A 
ATOM     18  C   UNL     1       1.351   9.705  18.671  0.00  0.00    +0.000 A 
ATOM     19  C   UNL     1       2.117   8.977  17.772  0.00  0.00    +0.000 A 
ATOM     20  C   UNL     1       2.614   7.732  18.148  0.00  0.00    +0.000 A 
ATOM     21  C   UNL     1       2.385   7.216  19.435  0.00  0.00    +0.000 A 
ATOM     22  C   UNL     1       1.560   7.926  20.313  0.00  0.00    +0.000 A 
BRANCH  21  23
ATOM     23  N   UNL     1       2.945   5.992  19.855  0.00  0.00    +0.000 N 
ATOM     24  C   UNL     1       2.426   4.718  19.581  0.00  0.00    +0.000 A 
ATOM     25  C   UNL     1       1.816   4.412  18.356  0.00  0.00    +0.000 A 
ATOM     26  N   UNL     1       1.253   3.217  18.070  0.00  0.00    +0.000 NA
ATOM     27  C   UNL     1       1.350   2.300  19.054  0.00  0.00    +0.000 A 
ATOM     28  C   UNL     1       1.991   2.569  20.252  0.00  0.00    +0.000 A 
ATOM     29  N   UNL     1       2.540   3.775  20.540  0.00  0.00    +0.000 NA
ATOM     30  H   UNL     1       3.273   6.005  20.818  0.00  0.00    +0.000 HD
ENDBRANCH  21  23
ENDBRANCH   2  17
TORSDOF 5
ENDMDL
