MODEL 1
REMARK VINA RESULT:      -7.5      0.000      0.000
REMARK  Name = 
REMARK  8 active torsions:
REMARK  status: ('A' for Active; 'I' for Inactive)
REMARK    1  A    between atoms: C_1  and  N_2
REMARK    2  A    between atoms: C_6  and  C_7
REMARK    3  A    between atoms: C_7  and  C_8
REMARK    4  A    between atoms: C_12  and  N_13
REMARK    5  A    between atoms: C_18  and  C_19
REMARK    6  A    between atoms: C_22  and  C_23
REMARK    7  A    between atoms: C_23  and  C_24
REMARK    8  A    between atoms: C_23  and  C_25
REMARK                            x       y       z     vdW  Elec       q    Type
REMARK                         _______ _______ _______ _____ _____    ______ ____
ROOT
ATOM      1  N   UNL     1      -2.090  12.404  18.803  0.00  0.00    +0.000 N 
ATOM      2  C   UNL     1      -0.738  11.933  18.391  0.00  0.00    +0.000 C 
ATOM      3  C   UNL     1      -0.287  11.132  19.578  0.00  0.00    +0.000 A 
ATOM      4  C   UNL     1      -0.963  11.634  20.700  0.00  0.00    +0.000 A 
ATOM      5  C   UNL     1      -0.855  11.079  21.952  0.00  0.00    +0.000 A 
ATOM      6  C   UNL     1      -0.049   9.955  22.082  0.00  0.00    +0.000 A 
ATOM      7  C   UNL     1       0.612   9.408  20.957  0.00  0.00    +0.000 A 
ATOM      8  C   UNL     1       0.518   9.999  19.683  0.00  0.00    +0.000 A 
ATOM      9  C   UNL     1      -2.023  12.565  20.220  0.00  0.00    +0.000 C 
ATOM     10  O   UNL     1      -2.795  13.132  20.961  0.00  0.00    +0.000 OA
ENDROOT
BRANCH   1  15
ATOM     11  C   UNL     1      -5.408  11.850  17.697  0.00  0.00    +0.000 A 
ATOM     12  C   UNL     1      -4.996  11.746  16.360  0.00  0.00    +0.000 A 
ATOM     13  C   UNL     1      -3.767  11.169  16.068  0.00  0.00    +0.000 A 
ATOM     14  C   UNL     1      -2.896  10.856  17.103  0.00  0.00    +0.000 A 
ATOM     15  C   UNL     1      -3.117  11.470  18.336  0.00  0.00    +0.000 A 
ATOM     16  C   UNL     1      -4.439  11.739  18.703  0.00  0.00    +0.000 A 
BRANCH  11  17
ATOM     17  C   UNL     1      -6.877  11.969  18.021  0.00  0.00    +0.000 C 
BRANCH  17  23
ATOM     18  C   UNL     1      -7.326   9.307  19.860  0.00  0.00    +0.000 C 
ATOM     19  N   UNL     1      -7.449  10.705  20.197  0.00  0.00    +0.000 N 
ATOM     20  C   UNL     1      -7.873  11.123  21.424  0.00  0.00    +0.000 A 
ATOM     21  N   UNL     1      -7.905  12.430  21.459  0.00  0.00    +0.000 NA
ATOM     22  N   UNL     1      -7.517  12.885  20.227  0.00  0.00    +0.000 NA
ATOM     23  C   UNL     1      -7.243  11.848  19.460  0.00  0.00    +0.000 A 
ENDBRANCH  17  23
ENDBRANCH  11  17
ENDBRANCH   1  15
BRANCH   8  24
ATOM     24  C   UNL     1       1.284   9.413  18.496  0.00  0.00    +0.000 C 
ATOM     25  C   UNL     1       2.183  10.501  17.911  0.00  0.00    +0.000 C 
ATOM     26  C   UNL     1       2.125   8.177  18.850  0.00  0.00    +0.000 C 
ATOM     27  F   UNL     1       0.442   9.032  17.487  0.00  0.00    +0.000 F 
ENDBRANCH   8  24
BRANCH   6  28
ATOM     28  C   UNL     1       0.086   9.294  23.395  0.00  0.00    +0.000 C 
ATOM     29  O   UNL     1       1.027   9.530  24.141  0.00  0.00    +0.000 OA
ENDBRANCH   6  28
TORSDOF 5
ENDMDL
MODEL 2
REMARK VINA RESULT:      -7.4      5.664      9.323
REMARK  Name = 
REMARK  8 active torsions:
REMARK  status: ('A' for Active; 'I' for Inactive)
REMARK    1  A    between atoms: C_1  and  N_2
REMARK    2  A    between atoms: C_6  and  C_7
REMARK    3  A    between atoms: C_7  and  C_8
REMARK    4  A    between atoms: C_12  and  N_13
REMARK    5  A    between atoms: C_18  and  C_19
REMARK    6  A    between atoms: C_22  and  C_23
REMARK    7  A    between atoms: C_23  and  C_24
REMARK    8  A    between atoms: C_23  and  C_25
REMARK                            x       y       z     vdW  Elec       q    Type
REMARK                         _______ _______ _______ _____ _____    ______ ____
ROOT
ATOM      1  N   UNL     1       3.182   3.613  19.143  0.00  0.00    +0.000 N 
ATOM      2  C   UNL     1       4.553   4.112  19.441  0.00  0.00    +0.000 C 
ATOM      3  C   UNL     1       5.179   4.201  18.079  0.00  0.00    +0.000 A 
ATOM      4  C   UNL     1       4.518   3.277  17.256  0.00  0.00    +0.000 A 
ATOM      5  C   UNL     1       4.777   3.147  15.913  0.00  0.00    +0.000 A 
ATOM      6  C   UNL     1       5.728   3.999  15.364  0.00  0.00    +0.000 A 
ATOM      7  C   UNL     1       6.379   4.965  16.167  0.00  0.00    +0.000 A 
ATOM      8  C   UNL     1       6.128   5.073  17.548  0.00  0.00    +0.000 A 
ATOM      9  C   UNL     1       3.319   2.784  17.990  0.00  0.00    +0.000 C 
ATOM     10  O   UNL     1       2.530   1.994  17.519  0.00  0.00    +0.000 OA
ENDROOT
BRANCH   1  15
ATOM     11  C   UNL     1       2.194   6.883  20.080  0.00  0.00    +0.000 A 
ATOM     12  C   UNL     1       2.735   7.434  18.908  0.00  0.00    +0.000 A 
ATOM     13  C   UNL     1       2.684   6.706  17.726  0.00  0.00    +0.000 A 
ATOM     14  C   UNL     1       2.253   5.387  17.755  0.00  0.00    +0.000 A 
ATOM     15  C   UNL     1       2.255   4.736  18.989  0.00  0.00    +0.000 A 
ATOM     16  C   UNL     1       1.980   5.499  20.127  0.00  0.00    +0.000 A 
BRANCH  11  17
ATOM     17  C   UNL     1       1.763   7.792  21.204  0.00  0.00    +0.000 C 
BRANCH  17  23
ATOM     18  C   UNL     1      -0.261   9.615  23.007  0.00  0.00    +0.000 C 
ATOM     19  N   UNL     1       0.058   9.688  21.601  0.00  0.00    +0.000 N 
ATOM     20  C   UNL     1      -0.556  10.571  20.761  0.00  0.00    +0.000 A 
ATOM     21  N   UNL     1      -0.092  10.419  19.548  0.00  0.00    +0.000 NA
ATOM     22  N   UNL     1       0.828   9.406  19.580  0.00  0.00    +0.000 NA
ATOM     23  C   UNL     1       0.921   8.959  20.817  0.00  0.00    +0.000 A 
ENDBRANCH  17  23
ENDBRANCH  11  17
ENDBRANCH   1  15
BRANCH   8  24
ATOM     24  C   UNL     1       6.885   6.094  18.398  0.00  0.00    +0.000 C 
ATOM     25  C   UNL     1       8.048   5.386  19.091  0.00  0.00    +0.000 C 
ATOM     26  C   UNL     1       7.409   7.298  17.602  0.00  0.00    +0.000 C 
ATOM     27  F   UNL     1       6.100   6.603  19.397  0.00  0.00    +0.000 F 
ENDBRANCH   8  24
BRANCH   6  28
ATOM     28  C   UNL     1       6.032   3.931  13.922  0.00  0.00    +0.000 C 
ATOM     29  O   UNL     1       6.933   4.589  13.420  0.00  0.00    +0.000 OA
ENDBRANCH   6  28
TORSDOF 5
ENDMDL
MODEL 3
REMARK VINA RESULT:      -7.3      5.862      9.669
REMARK  Name = 
REMARK  8 active torsions:
REMARK  status: ('A' for Active; 'I' for Inactive)
REMARK    1  A    between atoms: C_1  and  N_2
REMARK    2  A    between atoms: C_6  and  C_7
REMARK    3  A    between atoms: C_7  and  C_8
REMARK    4  A    between atoms: C_12  and  N_13
REMARK    5  A    between atoms: C_18  and  C_19
REMARK    6  A    between atoms: C_22  and  C_23
REMARK    7  A    between atoms: C_23  and  C_24
REMARK    8  A    between atoms: C_23  and  C_25
REMARK                            x       y       z     vdW  Elec       q    Type
REMARK                         _______ _______ _______ _____ _____    ______ ____
ROOT
ATOM      1  N   UNL     1       4.354   3.674  19.338  0.00  0.00    +0.000 N 
ATOM      2  C   UNL     1       5.628   4.435  19.206  0.00  0.00    +0.000 C 
ATOM      3  C   UNL     1       5.798   4.546  17.718  0.00  0.00    +0.000 A 
ATOM      4  C   UNL     1       5.119   3.463  17.140  0.00  0.00    +0.000 A 
ATOM      5  C   UNL     1       4.994   3.293  15.782  0.00  0.00    +0.000 A 
ATOM      6  C   UNL     1       5.557   4.267  14.965  0.00  0.00    +0.000 A 
ATOM      7  C   UNL     1       6.213   5.387  15.528  0.00  0.00    +0.000 A 
ATOM      8  C   UNL     1       6.361   5.540  16.919  0.00  0.00    +0.000 A 
ATOM      9  C   UNL     1       4.307   2.808  18.204  0.00  0.00    +0.000 C 
ATOM     10  O   UNL     1       3.584   1.858  17.998  0.00  0.00    +0.000 OA
ENDROOT
BRANCH   1  15
ATOM     11  C   UNL     1       2.755   6.665  18.319  0.00  0.00    +0.000 A 
ATOM     12  C   UNL     1       1.833   5.960  17.529  0.00  0.00    +0.000 A 
ATOM     13  C   UNL     1       1.386   4.715  17.952  0.00  0.00    +0.000 A 
ATOM     14  C   UNL     1       1.975   4.116  19.056  0.00  0.00    +0.000 A 
ATOM     15  C   UNL     1       3.222   4.595  19.458  0.00  0.00    +0.000 A 
ATOM     16  C   UNL     1       3.484   5.957  19.282  0.00  0.00    +0.000 A 
BRANCH  11  17
ATOM     17  C   UNL     1       2.859   8.164  18.188  0.00  0.00    +0.000 C 
BRANCH  17  23
ATOM     18  C   UNL     1       1.460   8.415  21.129  0.00  0.00    +0.000 C 
ATOM     19  N   UNL     1       1.088   9.006  19.866  0.00  0.00    +0.000 N 
ATOM     20  C   UNL     1      -0.040   9.759  19.720  0.00  0.00    +0.000 A 
ATOM     21  N   UNL     1      -0.145  10.159  18.479  0.00  0.00    +0.000 NA
ATOM     22  N   UNL     1       0.918   9.645  17.788  0.00  0.00    +0.000 NA
ATOM     23  C   UNL     1       1.665   8.945  18.619  0.00  0.00    +0.000 A 
ENDBRANCH  17  23
ENDBRANCH  11  17
ENDBRANCH   1  15
BRANCH   8  24
ATOM     24  C   UNL     1       7.119   6.736  17.494  0.00  0.00    +0.000 C 
ATOM     25  C   UNL     1       6.131   7.881  17.712  0.00  0.00    +0.000 C 
ATOM     26  C   UNL     1       7.859   6.431  18.805  0.00  0.00    +0.000 C 
ATOM     27  F   UNL     1       8.060   7.208  16.620  0.00  0.00    +0.000 F 
ENDBRANCH   8  24
BRANCH   6  28
ATOM     28  C   UNL     1       5.433   4.159  13.500  0.00  0.00    +0.000 C 
ATOM     29  O   UNL     1       6.111   3.372  12.851  0.00  0.00    +0.000 OA
ENDBRANCH   6  28
TORSDOF 5
ENDMDL
MODEL 4
REMARK VINA RESULT:      -7.2      5.864      9.651
REMARK  Name = 
REMARK  8 active torsions:
REMARK  status: ('A' for Active; 'I' for Inactive)
REMARK    1  A    between atoms: C_1  and  N_2
REMARK    2  A    between atoms: C_6  and  C_7
REMARK    3  A    between atoms: C_7  and  C_8
REMARK    4  A    between atoms: C_12  and  N_13
REMARK    5  A    between atoms: C_18  and  C_19
REMARK    6  A    between atoms: C_22  and  C_23
REMARK    7  A    between atoms: C_23  and  C_24
REMARK    8  A    between atoms: C_23  and  C_25
REMARK                            x       y       z     vdW  Elec       q    Type
REMARK                         _______ _______ _______ _____ _____    ______ ____
ROOT
ATOM      1  N   UNL     1       3.774   3.281  19.380  0.00  0.00    +0.000 N 
ATOM      2  C   UNL     1       5.113   3.921  19.500  0.00  0.00    +0.000 C 
ATOM      3  C   UNL     1       5.507   4.144  18.068  0.00  0.00    +0.000 A 
ATOM      4  C   UNL     1       4.829   3.187  17.296  0.00  0.00    +0.000 A 
ATOM      5  C   UNL     1       4.889   3.150  15.925  0.00  0.00    +0.000 A 
ATOM      6  C   UNL     1       5.645   4.130  15.294  0.00  0.00    +0.000 A 
ATOM      7  C   UNL     1       6.306   5.128  16.050  0.00  0.00    +0.000 A 
ATOM      8  C   UNL     1       6.262   5.143  17.456  0.00  0.00    +0.000 A 
ATOM      9  C   UNL     1       3.819   2.525  18.169  0.00  0.00    +0.000 C 
ATOM     10  O   UNL     1       3.056   1.672  17.773  0.00  0.00    +0.000 OA
ENDROOT
BRANCH   1  15
ATOM     11  C   UNL     1       2.599   6.490  18.455  0.00  0.00    +0.000 A 
ATOM     12  C   UNL     1       1.745   5.950  17.481  0.00  0.00    +0.000 A 
ATOM     13  C   UNL     1       1.136   4.724  17.714  0.00  0.00    +0.000 A 
ATOM     14  C   UNL     1       1.507   3.976  18.823  0.00  0.00    +0.000 A 
ATOM     15  C   UNL     1       2.719   4.294  19.436  0.00  0.00    +0.000 A 
ATOM     16  C   UNL     1       3.119   5.634  19.433  0.00  0.00    +0.000 A 
BRANCH  11  17
ATOM     17  C   UNL     1       2.848   7.978  18.489  0.00  0.00    +0.000 C 
BRANCH  17  23
ATOM     18  C   UNL     1       1.334   8.480  21.339  0.00  0.00    +0.000 C 
ATOM     19  N   UNL     1       1.043   8.999  20.024  0.00  0.00    +0.000 N 
ATOM     20  C   UNL     1      -0.044   9.787  19.778  0.00  0.00    +0.000 A 
ATOM     21  N   UNL     1      -0.077  10.107  18.510  0.00  0.00    +0.000 NA
ATOM     22  N   UNL     1       0.993   9.506  17.903  0.00  0.00    +0.000 NA
ATOM     23  C   UNL     1       1.671   8.833  18.812  0.00  0.00    +0.000 A 
ENDBRANCH  17  23
ENDBRANCH  11  17
ENDBRANCH   1  15
BRANCH   8  24
ATOM     24  C   UNL     1       7.027   6.205  18.246  0.00  0.00    +0.000 C 
ATOM     25  C   UNL     1       8.174   5.526  18.993  0.00  0.00    +0.000 C 
ATOM     26  C   UNL     1       7.575   7.349  17.379  0.00  0.00    +0.000 C 
ATOM     27  F   UNL     1       6.243   6.788  19.204  0.00  0.00    +0.000 F 
ENDBRANCH   8  24
BRANCH   6  28
ATOM     28  C   UNL     1       5.727   4.163  13.821  0.00  0.00    +0.000 C 
ATOM     29  O   UNL     1       6.800   4.184  13.235  0.00  0.00    +0.000 OA
ENDBRANCH   6  28
TORSDOF 5
ENDMDL
MODEL 5
REMARK VINA RESULT:      -7.1      5.955      9.687
REMARK  Name = 
REMARK  8 active torsions:
REMARK  status: ('A' for Active; 'I' for Inactive)
REMARK    1  A    between atoms: C_1  and  N_2
REMARK    2  A    between atoms: C_6  and  C_7
REMARK    3  A    between atoms: C_7  and  C_8
REMARK    4  A    between atoms: C_12  and  N_13
REMARK    5  A    between atoms: C_18  and  C_19
REMARK    6  A    between atoms: C_22  and  C_23
REMARK    7  A    between atoms: C_23  and  C_24
REMARK    8  A    between atoms: C_23  and  C_25
REMARK                            x       y       z     vdW  Elec       q    Type
REMARK                         _______ _______ _______ _____ _____    ______ ____
ROOT
ATOM      1  N   UNL     1       3.988   3.201  19.416  0.00  0.00    +0.000 N 
ATOM      2  C   UNL     1       5.242   4.003  19.452  0.00  0.00    +0.000 C 
ATOM      3  C   UNL     1       5.541   4.219  17.996  0.00  0.00    +0.000 A 
ATOM      4  C   UNL     1       4.953   3.160  17.289  0.00  0.00    +0.000 A 
ATOM      5  C   UNL     1       4.956   3.079  15.917  0.00  0.00    +0.000 A 
ATOM      6  C   UNL     1       5.557   4.121  15.220  0.00  0.00    +0.000 A 
ATOM      7  C   UNL     1       6.122   5.218  15.912  0.00  0.00    +0.000 A 
ATOM      8  C   UNL     1       6.139   5.280  17.318  0.00  0.00    +0.000 A 
ATOM      9  C   UNL     1       4.071   2.413  18.229  0.00  0.00    +0.000 C 
ATOM     10  O   UNL     1       3.402   1.459  17.897  0.00  0.00    +0.000 OA
ENDROOT
BRANCH   1  15
ATOM     11  C   UNL     1       2.513   6.351  18.750  0.00  0.00    +0.000 A 
ATOM     12  C   UNL     1       1.802   5.840  17.653  0.00  0.00    +0.000 A 
ATOM     13  C   UNL     1       1.327   4.536  17.697  0.00  0.00    +0.000 A 
ATOM     14  C   UNL     1       1.701   3.707  18.746  0.00  0.00    +0.000 A 
ATOM     15  C   UNL     1       2.819   4.080  19.492  0.00  0.00    +0.000 A 
ATOM     16  C   UNL     1       3.057   5.446  19.670  0.00  0.00    +0.000 A 
BRANCH  11  17
ATOM     17  C   UNL     1       2.582   7.842  18.968  0.00  0.00    +0.000 C 
BRANCH  17  23
ATOM     18  C   UNL     1       0.773  10.538  18.609  0.00  0.00    +0.000 C 
ATOM     19  N   UNL     1       0.814   9.579  19.686  0.00  0.00    +0.000 N 
ATOM     20  C   UNL     1       0.078   9.733  20.825  0.00  0.00    +0.000 A 
ATOM     21  N   UNL     1       0.310   8.734  21.638  0.00  0.00    +0.000 NA
ATOM     22  N   UNL     1       1.229   7.917  21.037  0.00  0.00    +0.000 NA
ATOM     23  C   UNL     1       1.539   8.424  19.860  0.00  0.00    +0.000 A 
ENDBRANCH  17  23
ENDBRANCH  11  17
ENDBRANCH   1  15
BRANCH   8  24
ATOM     24  C   UNL     1       6.802   6.455  18.037  0.00  0.00    +0.000 C 
ATOM     25  C   UNL     1       7.828   5.907  19.027  0.00  0.00    +0.000 C 
ATOM     26  C   UNL     1       7.477   7.460  17.091  0.00  0.00    +0.000 C 
ATOM     27  F   UNL     1       5.901   7.169  18.779  0.00  0.00    +0.000 F 
ENDBRANCH   8  24
BRANCH   6  28
ATOM     28  C   UNL     1       5.569   4.109  13.745  0.00  0.00    +0.000 C 
ATOM     29  O   UNL     1       6.613   4.111  13.108  0.00  0.00    +0.000 OA
ENDBRANCH   6  28
TORSDOF 5
ENDMDL
MODEL 6
REMARK VINA RESULT:      -7.1      4.509      7.508
REMARK  Name = 
REMARK  8 active torsions:
REMARK  status: ('A' for Active; 'I' for Inactive)
REMARK    1  A    between atoms: C_1  and  N_2
REMARK    2  A    between atoms: C_6  and  C_7
REMARK    3  A    between atoms: C_7  and  C_8
REMARK    4  A    between atoms: C_12  and  N_13
REMARK    5  A    between atoms: C_18  and  C_19
REMARK    6  A    between atoms: C_22  and  C_23
REMARK    7  A    between atoms: C_23  and  C_24
REMARK    8  A    between atoms: C_23  and  C_25
REMARK                            x       y       z     vdW  Elec       q    Type
REMARK                         _______ _______ _______ _____ _____    ______ ____
ROOT
ATOM      1  N   UNL     1       1.952   7.180  18.382  0.00  0.00    +0.000 N 
ATOM      2  C   UNL     1       1.853   5.704  18.557  0.00  0.00    +0.000 C 
ATOM      3  C   UNL     1       3.288   5.265  18.508  0.00  0.00    +0.000 A 
ATOM      4  C   UNL     1       3.991   6.222  17.760  0.00  0.00    +0.000 A 
ATOM      5  C   UNL     1       5.352   6.183  17.581  0.00  0.00    +0.000 A 
ATOM      6  C   UNL     1       6.046   5.149  18.199  0.00  0.00    +0.000 A 
ATOM      7  C   UNL     1       5.362   4.195  18.989  0.00  0.00    +0.000 A 
ATOM      8  C   UNL     1       3.964   4.226  19.145  0.00  0.00    +0.000 A 
ATOM      9  C   UNL     1       3.091   7.390  17.548  0.00  0.00    +0.000 C 
ATOM     10  O   UNL     1       3.431   8.393  16.960  0.00  0.00    +0.000 OA
ENDROOT
BRANCH   1  15
ATOM     11  C   UNL     1       0.823   9.762  20.527  0.00  0.00    +0.000 A 
ATOM     12  C   UNL     1       0.006   8.875  21.244  0.00  0.00    +0.000 A 
ATOM     13  C   UNL     1       0.428   7.566  21.439  0.00  0.00    +0.000 A 
ATOM     14  C   UNL     1       1.565   7.110  20.787  0.00  0.00    +0.000 A 
ATOM     15  C   UNL     1       2.011   7.843  19.686  0.00  0.00    +0.000 A 
ATOM     16  C   UNL     1       1.827   9.228  19.708  0.00  0.00    +0.000 A 
BRANCH  11  17
ATOM     17  C   UNL     1       0.675  11.249  20.733  0.00  0.00    +0.000 C 
BRANCH  17  23
ATOM     18  C   UNL     1      -2.291  12.119  19.675  0.00  0.00    +0.000 C 
ATOM     19  N   UNL     1      -1.755  12.072  21.014  0.00  0.00    +0.000 N 
ATOM     20  C   UNL     1      -2.471  12.489  22.099  0.00  0.00    +0.000 A 
ATOM     21  N   UNL     1      -1.750  12.351  23.182  0.00  0.00    +0.000 NA
ATOM     22  N   UNL     1      -0.531  11.855  22.807  0.00  0.00    +0.000 NA
ATOM     23  C   UNL     1      -0.527  11.688  21.498  0.00  0.00    +0.000 A 
ENDBRANCH  17  23
ENDBRANCH  11  17
ENDBRANCH   1  15
BRANCH   8  24
ATOM     24  C   UNL     1       3.249   3.151  19.964  0.00  0.00    +0.000 C 
ATOM     25  C   UNL     1       4.267   2.082  20.362  0.00  0.00    +0.000 C 
ATOM     26  C   UNL     1       2.545   3.691  21.218  0.00  0.00    +0.000 C 
ATOM     27  F   UNL     1       2.290   2.507  19.230  0.00  0.00    +0.000 F 
ENDBRANCH   8  24
BRANCH   6  28
ATOM     28  C   UNL     1       7.513   5.067  18.069  0.00  0.00    +0.000 C 
ATOM     29  O   UNL     1       8.047   4.394  17.199  0.00  0.00    +0.000 OA
ENDBRANCH   6  28
TORSDOF 5
ENDMDL
MODEL 7
REMARK VINA RESULT:      -7.0      2.697      4.126
REMARK  Name = 
REMARK  8 active torsions:
REMARK  status: ('A' for Active; 'I' for Inactive)
REMARK    1  A    between atoms: C_1  and  N_2
REMARK    2  A    between atoms: C_6  and  C_7
REMARK    3  A    between atoms: C_7  and  C_8
REMARK    4  A    between atoms: C_12  and  N_13
REMARK    5  A    between atoms: C_18  and  C_19
REMARK    6  A    between atoms: C_22  and  C_23
REMARK    7  A    between atoms: C_23  and  C_24
REMARK    8  A    between atoms: C_23  and  C_25
REMARK                            x       y       z     vdW  Elec       q    Type
REMARK                         _______ _______ _______ _____ _____    ______ ____
ROOT
ATOM      1  N   UNL     1      -0.558  14.335  20.577  0.00  0.00    +0.000 N 
ATOM      2  C   UNL     1      -1.033  13.686  19.324  0.00  0.00    +0.000 C 
ATOM      3  C   UNL     1      -0.690  12.241  19.545  0.00  0.00    +0.000 A 
ATOM      4  C   UNL     1       0.387  12.202  20.443  0.00  0.00    +0.000 A 
ATOM      5  C   UNL     1       0.911  11.032  20.937  0.00  0.00    +0.000 A 
ATOM      6  C   UNL     1       0.313   9.845  20.529  0.00  0.00    +0.000 A 
ATOM      7  C   UNL     1      -0.799   9.863  19.654  0.00  0.00    +0.000 A 
ATOM      8  C   UNL     1      -1.312  11.064  19.131  0.00  0.00    +0.000 A 
ATOM      9  C   UNL     1       0.574  13.572  20.997  0.00  0.00    +0.000 C 
ATOM     10  O   UNL     1       1.413  13.845  21.827  0.00  0.00    +0.000 OA
ENDROOT
BRANCH   1  15
ATOM     11  C   UNL     1      -3.803  13.341  21.589  0.00  0.00    +0.000 A 
ATOM     12  C   UNL     1      -3.285  12.451  22.542  0.00  0.00    +0.000 A 
ATOM     13  C   UNL     1      -2.116  12.778  23.216  0.00  0.00    +0.000 A 
ATOM     14  C   UNL     1      -1.391  13.894  22.824  0.00  0.00    +0.000 A 
ATOM     15  C   UNL     1      -1.646  14.412  21.554  0.00  0.00    +0.000 A 
ATOM     16  C   UNL     1      -2.952  14.323  21.064  0.00  0.00    +0.000 A 
BRANCH  11  17
ATOM     17  C   UNL     1      -5.269  13.291  21.236  0.00  0.00    +0.000 C 
BRANCH  17  23
ATOM     18  C   UNL     1      -6.168  15.191  23.737  0.00  0.00    +0.000 C 
ATOM     19  N   UNL     1      -6.540  13.834  23.415  0.00  0.00    +0.000 N 
ATOM     20  C   UNL     1      -7.338  13.086  24.231  0.00  0.00    +0.000 A 
ATOM     21  N   UNL     1      -7.508  11.897  23.713  0.00  0.00    +0.000 NA
ATOM     22  N   UNL     1      -6.794  11.849  22.546  0.00  0.00    +0.000 NA
ATOM     23  C   UNL     1      -6.205  13.015  22.363  0.00  0.00    +0.000 A 
ENDBRANCH  17  23
ENDBRANCH  11  17
ENDBRANCH   1  15
BRANCH   8  24
ATOM     24  C   UNL     1      -2.483  11.046  18.149  0.00  0.00    +0.000 C 
ATOM     25  C   UNL     1      -2.017  11.642  16.821  0.00  0.00    +0.000 C 
ATOM     26  C   UNL     1      -3.074   9.648  17.913  0.00  0.00    +0.000 C 
ATOM     27  F   UNL     1      -3.517  11.835  18.577  0.00  0.00    +0.000 F 
ENDBRANCH   8  24
BRANCH   6  28
ATOM     28  C   UNL     1       0.810   8.556  21.046  0.00  0.00    +0.000 C 
ATOM     29  O   UNL     1       1.783   7.998  20.559  0.00  0.00    +0.000 OA
ENDBRANCH   6  28
TORSDOF 5
ENDMDL
MODEL 8
REMARK VINA RESULT:      -7.0      2.191      3.036
REMARK  Name = 
REMARK  8 active torsions:
REMARK  status: ('A' for Active; 'I' for Inactive)
REMARK    1  A    between atoms: C_1  and  N_2
REMARK    2  A    between atoms: C_6  and  C_7
REMARK    3  A    between atoms: C_7  and  C_8
REMARK    4  A    between atoms: C_12  and  N_13
REMARK    5  A    between atoms: C_18  and  C_19
REMARK    6  A    between atoms: C_22  and  C_23
REMARK    7  A    between atoms: C_23  and  C_24
REMARK    8  A    between atoms: C_23  and  C_25
REMARK                            x       y       z     vdW  Elec       q    Type
REMARK                         _______ _______ _______ _____ _____    ______ ____
ROOT
ATOM      1  N   UNL     1      -0.359  11.069  18.257  0.00  0.00    +0.000 N 
ATOM      2  C   UNL     1       0.356  10.380  19.367  0.00  0.00    +0.000 C 
ATOM      3  C   UNL     1      -0.026  11.196  20.569  0.00  0.00    +0.000 A 
ATOM      4  C   UNL     1      -0.330  12.488  20.114  0.00  0.00    +0.000 A 
ATOM      5  C   UNL     1      -0.801  13.482  20.937  0.00  0.00    +0.000 A 
ATOM      6  C   UNL     1      -1.000  13.160  22.274  0.00  0.00    +0.000 A 
ATOM      7  C   UNL     1      -0.737  11.852  22.746  0.00  0.00    +0.000 A 
ATOM      8  C   UNL     1      -0.228  10.847  21.903  0.00  0.00    +0.000 A 
ATOM      9  C   UNL     1      -0.398  12.448  18.626  0.00  0.00    +0.000 C 
ATOM     10  O   UNL     1      -0.674  13.412  17.947  0.00  0.00    +0.000 OA
ENDROOT
BRANCH   1  15
ATOM     11  C   UNL     1      -3.799  11.443  17.503  0.00  0.00    +0.000 A 
ATOM     12  C   UNL     1      -3.603  11.021  16.179  0.00  0.00    +0.000 A 
ATOM     13  C   UNL     1      -2.651  10.049  15.907  0.00  0.00    +0.000 A 
ATOM     14  C   UNL     1      -1.795   9.629  16.916  0.00  0.00    +0.000 A 
ATOM     15  C   UNL     1      -1.668  10.453  18.035  0.00  0.00    +0.000 A 
ATOM     16  C   UNL     1      -2.793  11.177  18.441  0.00  0.00    +0.000 A 
BRANCH  11  17
ATOM     17  C   UNL     1      -5.113  12.067  17.904  0.00  0.00    +0.000 C 
BRANCH  17  23
ATOM     18  C   UNL     1      -7.130  10.548  19.976  0.00  0.00    +0.000 C 
ATOM     19  N   UNL     1      -6.202  11.630  20.202  0.00  0.00    +0.000 N 
ATOM     20  C   UNL     1      -6.092  12.253  21.411  0.00  0.00    +0.000 A 
ATOM     21  N   UNL     1      -5.193  13.200  21.339  0.00  0.00    +0.000 NA
ATOM     22  N   UNL     1      -4.713  13.217  20.057  0.00  0.00    +0.000 NA
ATOM     23  C   UNL     1      -5.322  12.274  19.365  0.00  0.00    +0.000 A 
ENDBRANCH  17  23
ENDBRANCH  11  17
ENDBRANCH   1  15
BRANCH   8  24
ATOM     24  C   UNL     1       0.093   9.458  22.455  0.00  0.00    +0.000 C 
ATOM     25  C   UNL     1      -0.808   8.437  21.762  0.00  0.00    +0.000 C 
ATOM     26  C   UNL     1       1.565   9.050  22.290  0.00  0.00    +0.000 C 
ATOM     27  F   UNL     1      -0.185   9.367  23.791  0.00  0.00    +0.000 F 
ENDBRANCH   8  24
BRANCH   6  28
ATOM     28  C   UNL     1      -1.531  14.174  23.204  0.00  0.00    +0.000 C 
ATOM     29  O   UNL     1      -0.985  14.421  24.270  0.00  0.00    +0.000 OA
ENDBRANCH   6  28
TORSDOF 5
ENDMDL
MODEL 9
REMARK VINA RESULT:      -6.9      5.675      9.307
REMARK  Name = 
REMARK  8 active torsions:
REMARK  status: ('A' for Active; 'I' for Inactive)
REMARK    1  A    between atoms: C_1  and  N_2
REMARK    2  A    between atoms: C_6  and  C_7
REMARK    3  A    between atoms: C_7  and  C_8
REMARK    4  A    between atoms: C_12  and  N_13
REMARK    5  A    between atoms: C_18  and  C_19
REMARK    6  A    between atoms: C_22  and  C_23
REMARK    7  A    between atoms: C_23  and  C_24
REMARK    8  A    between atoms: C_23  and  C_25
REMARK                            x       y       z     vdW  Elec       q    Type
REMARK                         _______ _______ _______ _____ _____    ______ ____
ROOT
ATOM      1  N   UNL     1       3.077   3.900  18.932  0.00  0.00    +0.000 N 
ATOM      2  C   UNL     1       4.461   4.315  19.294  0.00  0.00    +0.000 C 
ATOM      3  C   UNL     1       5.160   4.344  17.965  0.00  0.00    +0.000 A 
ATOM      4  C   UNL     1       4.483   3.451  17.120  0.00  0.00    +0.000 A 
ATOM      5  C   UNL     1       4.801   3.285  15.794  0.00  0.00    +0.000 A 
ATOM      6  C   UNL     1       5.831   4.067  15.284  0.00  0.00    +0.000 A 
ATOM      7  C   UNL     1       6.502   5.001  16.109  0.00  0.00    +0.000 A 
ATOM      8  C   UNL     1       6.188   5.145  17.473  0.00  0.00    +0.000 A 
ATOM      9  C   UNL     1       3.219   3.047  17.796  0.00  0.00    +0.000 C 
ATOM     10  O   UNL     1       2.405   2.302  17.295  0.00  0.00    +0.000 OA
ENDROOT
BRANCH   1  15
ATOM     11  C   UNL     1       1.794   6.974  20.135  0.00  0.00    +0.000 A 
ATOM     12  C   UNL     1       2.676   7.712  19.331  0.00  0.00    +0.000 A 
ATOM     13  C   UNL     1       3.019   7.229  18.075  0.00  0.00    +0.000 A 
ATOM     14  C   UNL     1       2.621   5.953  17.702  0.00  0.00    +0.000 A 
ATOM     15  C   UNL     1       2.234   5.078  18.716  0.00  0.00    +0.000 A 
ATOM     16  C   UNL     1       1.595   5.620  19.836  0.00  0.00    +0.000 A 
BRANCH  11  17
ATOM     17  C   UNL     1       1.010   7.670  21.221  0.00  0.00    +0.000 C 
BRANCH  17  23
ATOM     18  C   UNL     1      -0.395   9.527  18.930  0.00  0.00    +0.000 C 
ATOM     19  N   UNL     1       0.336   9.902  20.116  0.00  0.00    +0.000 N 
ATOM     20  C   UNL     1       0.612  11.204  20.418  0.00  0.00    +0.000 A 
ATOM     21  N   UNL     1       1.293  11.263  21.534  0.00  0.00    +0.000 NA
ATOM     22  N   UNL     1       1.489   9.979  21.967  0.00  0.00    +0.000 NA
ATOM     23  C   UNL     1       0.916   9.153  21.113  0.00  0.00    +0.000 A 
ENDBRANCH  17  23
ENDBRANCH  11  17
ENDBRANCH   1  15
BRANCH   8  24
ATOM     24  C   UNL     1       6.965   6.128  18.349  0.00  0.00    +0.000 C 
ATOM     25  C   UNL     1       8.096   5.373  19.046  0.00  0.00    +0.000 C 
ATOM     26  C   UNL     1       7.537   7.328  17.579  0.00  0.00    +0.000 C 
ATOM     27  F   UNL     1       6.184   6.646  19.346  0.00  0.00    +0.000 F 
ENDBRANCH   8  24
BRANCH   6  28
ATOM     28  C   UNL     1       6.202   3.957  13.861  0.00  0.00    +0.000 C 
ATOM     29  O   UNL     1       5.372   3.719  12.994  0.00  0.00    +0.000 OA
ENDBRANCH   6  28
TORSDOF 5
ENDMDL
