MODEL 1
REMARK VINA RESULT:      -8.8      0.000      0.000
REMARK  Name = 
REMARK  7 active torsions:
REMARK  status: ('A' for Active; 'I' for Inactive)
REMARK    1  A    between atoms: C_1  and  C_2
REMARK    2  A    between atoms: C_2  and  C_3
REMARK    3  A    between atoms: C_7  and  C_8
REMARK    4  A    between atoms: N_14  and  C_15
REMARK    5  A    between atoms: C_19  and  C_20
REMARK    6  A    between atoms: C_20  and  C_21
REMARK    7  A    between atoms: C_21  and  C_22
REMARK                            x       y       z     vdW  Elec       q    Type
REMARK                         _______ _______ _______ _____ _____    ______ ____
ROOT
ATOM      1  C   UNL     1      -0.121  11.293  19.247  0.00  0.00    +0.000 A 
ATOM      2  C   UNL     1       0.698  10.458  18.483  0.00  0.00    +0.000 A 
ATOM      3  C   UNL     1       1.206   9.331  19.094  0.00  0.00    +0.000 A 
ATOM      4  C   UNL     1       0.938   8.993  20.418  0.00  0.00    +0.000 A 
ATOM      5  C   UNL     1       0.168   9.830  21.216  0.00  0.00    +0.000 A 
ATOM      6  C   UNL     1      -0.364  10.987  20.608  0.00  0.00    +0.000 A 
ATOM      7  C   UNL     1       1.556   7.665  20.721  0.00  0.00    +0.000 C 
ATOM      8  N   UNL     1       2.240   7.324  19.478  0.00  0.00    +0.000 N 
ATOM      9  C   UNL     1       2.056   8.296  18.499  0.00  0.00    +0.000 C 
ATOM     10  O   UNL     1       2.453   8.359  17.352  0.00  0.00    +0.000 OA
ENDROOT
BRANCH   8  11
ATOM     11  C   UNL     1       3.040   6.164  19.355  0.00  0.00    +0.000 A 
ATOM     12  C   UNL     1       2.738   4.990  20.047  0.00  0.00    +0.000 A 
ATOM     13  C   UNL     1       3.499   3.840  19.850  0.00  0.00    +0.000 A 
ATOM     14  C   UNL     1       4.579   3.856  18.971  0.00  0.00    +0.000 A 
ATOM     15  C   UNL     1       4.949   5.020  18.271  0.00  0.00    +0.000 A 
ATOM     16  C   UNL     1       4.148   6.160  18.496  0.00  0.00    +0.000 A 
BRANCH  15  17
ATOM     17  C   UNL     1       6.179   5.056  17.250  0.00  0.00    +0.000 C 
ATOM     18  C   UNL     1       6.272   6.296  16.319  0.00  0.00    +0.000 C 
ATOM     19  O   UNL     1       6.574   5.457  15.178  0.00  0.00    +0.000 OA
ATOM     20  C   UNL     1       6.063   4.302  15.897  0.00  0.00    +0.000 C 
BRANCH  17  21
ATOM     21  C   UNL     1       7.500   4.790  17.989  0.00  0.00    +0.000 C 
BRANCH  21  22
ATOM     22  C   UNL     1       7.798   5.721  19.138  0.00  0.00    +0.000 C 
ATOM     23  O   UNL     1       7.739   5.403  20.321  0.00  0.00    +0.000 OA
ENDBRANCH  21  22
ENDBRANCH  17  21
ENDBRANCH  15  17
ENDBRANCH   8  11
BRANCH   5  24
ATOM     24  C   UNL     1      -0.120   9.546  22.668  0.00  0.00    +0.000 C 
ATOM     25  F   UNL     1      -0.784  10.551  23.302  0.00  0.00    +0.000 F 
ATOM     26  F   UNL     1      -0.884   8.433  22.836  0.00  0.00    +0.000 F 
ATOM     27  F   UNL     1       1.013   9.337  23.393  0.00  0.00    +0.000 F 
ENDBRANCH   5  24
BRANCH   1  29
ATOM     28  C   UNL     1      -1.893  11.980  17.640  0.00  0.00    +0.000 C 
ATOM     29  C   UNL     1      -0.804  12.464  18.588  0.00  0.00    +0.000 C 
ENDBRANCH   1  29
TORSDOF 6
ENDMDL
MODEL 2
REMARK VINA RESULT:      -8.7      1.108      1.935
REMARK  Name = 
REMARK  7 active torsions:
REMARK  status: ('A' for Active; 'I' for Inactive)
REMARK    1  A    between atoms: C_1  and  C_2
REMARK    2  A    between atoms: C_2  and  C_3
REMARK    3  A    between atoms: C_7  and  C_8
REMARK    4  A    between atoms: N_14  and  C_15
REMARK    5  A    between atoms: C_19  and  C_20
REMARK    6  A    between atoms: C_20  and  C_21
REMARK    7  A    between atoms: C_21  and  C_22
REMARK                            x       y       z     vdW  Elec       q    Type
REMARK                         _______ _______ _______ _____ _____    ______ ____
ROOT
ATOM      1  C   UNL     1       0.019  11.927  19.640  0.00  0.00    +0.000 A 
ATOM      2  C   UNL     1       0.758  11.194  18.709  0.00  0.00    +0.000 A 
ATOM      3  C   UNL     1       1.175   9.932  19.078  0.00  0.00    +0.000 A 
ATOM      4  C   UNL     1       0.889   9.365  20.316  0.00  0.00    +0.000 A 
ATOM      5  C   UNL     1       0.198  10.089  21.280  0.00  0.00    +0.000 A 
ATOM      6  C   UNL     1      -0.239  11.382  20.921  0.00  0.00    +0.000 A 
ATOM      7  C   UNL     1       1.396   7.958  20.341  0.00  0.00    +0.000 C 
ATOM      8  N   UNL     1       2.040   7.812  19.040  0.00  0.00    +0.000 N 
ATOM      9  C   UNL     1       1.930   8.968  18.274  0.00  0.00    +0.000 C 
ATOM     10  O   UNL     1       2.323   9.222  17.151  0.00  0.00    +0.000 OA
ENDROOT
BRANCH   8  11
ATOM     11  C   UNL     1       2.739   6.638  18.675  0.00  0.00    +0.000 A 
ATOM     12  C   UNL     1       2.080   5.422  18.489  0.00  0.00    +0.000 A 
ATOM     13  C   UNL     1       2.781   4.298  18.057  0.00  0.00    +0.000 A 
ATOM     14  C   UNL     1       4.152   4.376  17.822  0.00  0.00    +0.000 A 
ATOM     15  C   UNL     1       4.874   5.567  18.025  0.00  0.00    +0.000 A 
ATOM     16  C   UNL     1       4.123   6.681  18.457  0.00  0.00    +0.000 A 
BRANCH  15  17
ATOM     17  C   UNL     1       6.445   5.678  17.750  0.00  0.00    +0.000 C 
ATOM     18  C   UNL     1       7.359   5.811  18.998  0.00  0.00    +0.000 C 
ATOM     19  O   UNL     1       8.134   6.856  18.360  0.00  0.00    +0.000 OA
ATOM     20  C   UNL     1       7.058   7.063  17.405  0.00  0.00    +0.000 C 
BRANCH  17  21
ATOM     21  C   UNL     1       6.909   4.551  16.814  0.00  0.00    +0.000 C 
BRANCH  21  22
ATOM     22  C   UNL     1       6.875   4.877  15.341  0.00  0.00    +0.000 C 
ATOM     23  O   UNL     1       7.800   5.394  14.724  0.00  0.00    +0.000 OA
ENDBRANCH  21  22
ENDBRANCH  17  21
ENDBRANCH  15  17
ENDBRANCH   8  11
BRANCH   5  24
ATOM     24  C   UNL     1      -0.102   9.551  22.656  0.00  0.00    +0.000 C 
ATOM     25  F   UNL     1      -0.777  10.425  23.451  0.00  0.00    +0.000 F 
ATOM     26  F   UNL     1      -0.863   8.424  22.616  0.00  0.00    +0.000 F 
ATOM     27  F   UNL     1       1.025   9.220  23.343  0.00  0.00    +0.000 F 
ENDBRANCH   5  24
BRANCH   1  29
ATOM     28  C   UNL     1      -1.700  13.645  20.180  0.00  0.00    +0.000 C 
ATOM     29  C   UNL     1      -0.569  13.256  19.237  0.00  0.00    +0.000 C 
ENDBRANCH   1  29
TORSDOF 6
ENDMDL
MODEL 3
REMARK VINA RESULT:      -8.7      2.266      3.103
REMARK  Name = 
REMARK  7 active torsions:
REMARK  status: ('A' for Active; 'I' for Inactive)
REMARK    1  A    between atoms: C_1  and  C_2
REMARK    2  A    between atoms: C_2  and  C_3
REMARK    3  A    between atoms: C_7  and  C_8
REMARK    4  A    between atoms: N_14  and  C_15
REMARK    5  A    between atoms: C_19  and  C_20
REMARK    6  A    between atoms: C_20  and  C_21
REMARK    7  A    between atoms: C_21  and  C_22
REMARK                            x       y       z     vdW  Elec       q    Type
REMARK                         _______ _______ _______ _____ _____    ______ ____
ROOT
ATOM      1  C   UNL     1       0.187   9.415  22.005  0.00  0.00    +0.000 A 
ATOM      2  C   UNL     1       0.673   8.110  21.898  0.00  0.00    +0.000 A 
ATOM      3  C   UNL     1       1.271   7.748  20.709  0.00  0.00    +0.000 A 
ATOM      4  C   UNL     1       1.414   8.615  19.631  0.00  0.00    +0.000 A 
ATOM      5  C   UNL     1       0.897   9.904  19.690  0.00  0.00    +0.000 A 
ATOM      6  C   UNL     1       0.283  10.294  20.899  0.00  0.00    +0.000 A 
ATOM      7  C   UNL     1       2.197   7.934  18.553  0.00  0.00    +0.000 C 
ATOM      8  N   UNL     1       2.422   6.599  19.097  0.00  0.00    +0.000 N 
ATOM      9  C   UNL     1       1.879   6.458  20.369  0.00  0.00    +0.000 C 
ATOM     10  O   UNL     1       1.873   5.513  21.135  0.00  0.00    +0.000 OA
ENDROOT
BRANCH   8  11
ATOM     11  C   UNL     1       3.062   5.582  18.350  0.00  0.00    +0.000 A 
ATOM     12  C   UNL     1       2.378   4.440  17.933  0.00  0.00    +0.000 A 
ATOM     13  C   UNL     1       3.012   3.490  17.137  0.00  0.00    +0.000 A 
ATOM     14  C   UNL     1       4.341   3.665  16.761  0.00  0.00    +0.000 A 
ATOM     15  C   UNL     1       5.090   4.781  17.179  0.00  0.00    +0.000 A 
ATOM     16  C   UNL     1       4.408   5.720  17.980  0.00  0.00    +0.000 A 
BRANCH  15  17
ATOM     17  C   UNL     1       6.614   5.005  16.750  0.00  0.00    +0.000 C 
ATOM     18  C   UNL     1       6.970   6.394  16.154  0.00  0.00    +0.000 C 
ATOM     19  O   UNL     1       7.754   5.778  15.103  0.00  0.00    +0.000 OA
ATOM     20  C   UNL     1       7.089   4.510  15.356  0.00  0.00    +0.000 C 
BRANCH  17  21
ATOM     21  C   UNL     1       7.560   4.610  17.896  0.00  0.00    +0.000 C 
BRANCH  21  22
ATOM     22  C   UNL     1       7.708   5.634  18.994  0.00  0.00    +0.000 C 
ATOM     23  O   UNL     1       7.719   5.369  20.192  0.00  0.00    +0.000 OA
ENDBRANCH  21  22
ENDBRANCH  17  21
ENDBRANCH  15  17
ENDBRANCH   8  11
BRANCH   5  24
ATOM     24  C   UNL     1       0.977  10.876  18.540  0.00  0.00    +0.000 C 
ATOM     25  F   UNL     1       0.512  12.120  18.841  0.00  0.00    +0.000 F 
ATOM     26  F   UNL     1       2.252  11.053  18.101  0.00  0.00    +0.000 F 
ATOM     27  F   UNL     1       0.260  10.464  17.459  0.00  0.00    +0.000 F 
ENDBRANCH   5  24
BRANCH   1  29
ATOM     28  C   UNL     1      -1.291  11.081  23.117  0.00  0.00    +0.000 C 
ATOM     29  C   UNL     1      -0.357   9.897  23.325  0.00  0.00    +0.000 C 
ENDBRANCH   1  29
TORSDOF 6
ENDMDL
MODEL 4
REMARK VINA RESULT:      -8.6      2.207      3.217
REMARK  Name = 
REMARK  7 active torsions:
REMARK  status: ('A' for Active; 'I' for Inactive)
REMARK    1  A    between atoms: C_1  and  C_2
REMARK    2  A    between atoms: C_2  and  C_3
REMARK    3  A    between atoms: C_7  and  C_8
REMARK    4  A    between atoms: N_14  and  C_15
REMARK    5  A    between atoms: C_19  and  C_20
REMARK    6  A    between atoms: C_20  and  C_21
REMARK    7  A    between atoms: C_21  and  C_22
REMARK                            x       y       z     vdW  Elec       q    Type
REMARK                         _______ _______ _______ _____ _____    ______ ____
ROOT
ATOM      1  C   UNL     1      -0.218  12.373  20.054  0.00  0.00    +0.000 A 
ATOM      2  C   UNL     1       0.524  11.740  19.055  0.00  0.00    +0.000 A 
ATOM      3  C   UNL     1       0.958  10.455  19.300  0.00  0.00    +0.000 A 
ATOM      4  C   UNL     1       0.687   9.769  20.481  0.00  0.00    +0.000 A 
ATOM      5  C   UNL     1      -0.007  10.391  21.512  0.00  0.00    +0.000 A 
ATOM      6  C   UNL     1      -0.462  11.706  21.279  0.00  0.00    +0.000 A 
ATOM      7  C   UNL     1       1.211   8.372  20.370  0.00  0.00    +0.000 C 
ATOM      8  N   UNL     1       1.848   8.358  19.057  0.00  0.00    +0.000 N 
ATOM      9  C   UNL     1       1.720   9.580  18.404  0.00  0.00    +0.000 C 
ATOM     10  O   UNL     1       2.102   9.944  17.309  0.00  0.00    +0.000 OA
ENDROOT
BRANCH   8  11
ATOM     11  C   UNL     1       2.559   7.233  18.579  0.00  0.00    +0.000 A 
ATOM     12  C   UNL     1       3.651   7.368  17.722  0.00  0.00    +0.000 A 
ATOM     13  C   UNL     1       4.380   6.249  17.325  0.00  0.00    +0.000 A 
ATOM     14  C   UNL     1       4.013   4.981  17.771  0.00  0.00    +0.000 A 
ATOM     15  C   UNL     1       2.901   4.782  18.610  0.00  0.00    +0.000 A 
ATOM     16  C   UNL     1       2.196   5.943  18.990  0.00  0.00    +0.000 A 
BRANCH  15  17
ATOM     17  C   UNL     1       2.471   3.336  19.140  0.00  0.00    +0.000 C 
ATOM     18  C   UNL     1       2.443   2.192  18.090  0.00  0.00    +0.000 C 
ATOM     19  O   UNL     1       1.174   1.713  18.599  0.00  0.00    +0.000 OA
ATOM     20  C   UNL     1       0.962   2.989  19.259  0.00  0.00    +0.000 C 
BRANCH  17  21
ATOM     21  C   UNL     1       3.288   2.954  20.386  0.00  0.00    +0.000 C 
BRANCH  21  22
ATOM     22  C   UNL     1       4.562   2.192  20.116  0.00  0.00    +0.000 C 
ATOM     23  O   UNL     1       5.230   1.632  20.979  0.00  0.00    +0.000 OA
ENDBRANCH  21  22
ENDBRANCH  17  21
ENDBRANCH  15  17
ENDBRANCH   8  11
BRANCH   5  24
ATOM     24  C   UNL     1      -0.291   9.720  22.833  0.00  0.00    +0.000 C 
ATOM     25  F   UNL     1       0.828   9.432  23.552  0.00  0.00    +0.000 F 
ATOM     26  F   UNL     1      -1.067  10.487  23.645  0.00  0.00    +0.000 F 
ATOM     27  F   UNL     1      -0.952   8.540  22.686  0.00  0.00    +0.000 F 
ENDBRANCH   5  24
BRANCH   1  29
ATOM     28  C   UNL     1      -0.052  14.445  18.685  0.00  0.00    +0.000 C 
ATOM     29  C   UNL     1      -0.825  13.726  19.782  0.00  0.00    +0.000 C 
ENDBRANCH   1  29
TORSDOF 6
ENDMDL
MODEL 5
REMARK VINA RESULT:      -8.5      0.659      1.065
REMARK  Name = 
REMARK  7 active torsions:
REMARK  status: ('A' for Active; 'I' for Inactive)
REMARK    1  A    between atoms: C_1  and  C_2
REMARK    2  A    between atoms: C_2  and  C_3
REMARK    3  A    between atoms: C_7  and  C_8
REMARK    4  A    between atoms: N_14  and  C_15
REMARK    5  A    between atoms: C_19  and  C_20
REMARK    6  A    between atoms: C_20  and  C_21
REMARK    7  A    between atoms: C_21  and  C_22
REMARK                            x       y       z     vdW  Elec       q    Type
REMARK                         _______ _______ _______ _____ _____    ______ ____
ROOT
ATOM      1  C   UNL     1      -0.081  11.650  19.440  0.00  0.00    +0.000 A 
ATOM      2  C   UNL     1       0.704  10.820  18.636  0.00  0.00    +0.000 A 
ATOM      3  C   UNL     1       1.146   9.635  19.184  0.00  0.00    +0.000 A 
ATOM      4  C   UNL     1       0.844   9.232  20.481  0.00  0.00    +0.000 A 
ATOM      5  C   UNL     1       0.106  10.059  21.321  0.00  0.00    +0.000 A 
ATOM      6  C   UNL     1      -0.358  11.276  20.778  0.00  0.00    +0.000 A 
ATOM      7  C   UNL     1       1.389   7.859  20.710  0.00  0.00    +0.000 C 
ATOM      8  N   UNL     1       2.071   7.557  19.456  0.00  0.00    +0.000 N 
ATOM      9  C   UNL     1       1.950   8.594  18.536  0.00  0.00    +0.000 C 
ATOM     10  O   UNL     1       2.365   8.705  17.399  0.00  0.00    +0.000 OA
ENDROOT
BRANCH   8  11
ATOM     11  C   UNL     1       2.813   6.367  19.271  0.00  0.00    +0.000 A 
ATOM     12  C   UNL     1       2.498   5.195  19.960  0.00  0.00    +0.000 A 
ATOM     13  C   UNL     1       3.197   4.017  19.704  0.00  0.00    +0.000 A 
ATOM     14  C   UNL     1       4.229   4.004  18.769  0.00  0.00    +0.000 A 
ATOM     15  C   UNL     1       4.611   5.165  18.069  0.00  0.00    +0.000 A 
ATOM     16  C   UNL     1       3.873   6.332  18.355  0.00  0.00    +0.000 A 
BRANCH  15  17
ATOM     17  C   UNL     1       5.786   5.167  16.984  0.00  0.00    +0.000 C 
ATOM     18  C   UNL     1       5.860   6.402  16.046  0.00  0.00    +0.000 C 
ATOM     19  O   UNL     1       6.081   5.554  14.893  0.00  0.00    +0.000 OA
ATOM     20  C   UNL     1       5.579   4.414  15.641  0.00  0.00    +0.000 C 
BRANCH  17  21
ATOM     21  C   UNL     1       7.137   4.869  17.653  0.00  0.00    +0.000 C 
BRANCH  21  22
ATOM     22  C   UNL     1       7.512   5.785  18.791  0.00  0.00    +0.000 C 
ATOM     23  O   UNL     1       8.131   6.836  18.660  0.00  0.00    +0.000 OA
ENDBRANCH  21  22
ENDBRANCH  17  21
ENDBRANCH  15  17
ENDBRANCH   8  11
BRANCH   5  24
ATOM     24  C   UNL     1      -0.215   9.704  22.750  0.00  0.00    +0.000 C 
ATOM     25  F   UNL     1      -1.014   8.608  22.876  0.00  0.00    +0.000 F 
ATOM     26  F   UNL     1       0.902   9.434  23.479  0.00  0.00    +0.000 F 
ATOM     27  F   UNL     1      -0.858  10.709  23.405  0.00  0.00    +0.000 F 
ENDBRANCH   5  24
BRANCH   1  29
ATOM     28  C   UNL     1       0.359  13.975  18.670  0.00  0.00    +0.000 C 
ATOM     29  C   UNL     1      -0.696  12.891  18.846  0.00  0.00    +0.000 C 
ENDBRANCH   1  29
TORSDOF 6
ENDMDL
MODEL 6
REMARK VINA RESULT:      -8.5      1.144      1.328
REMARK  Name = 
REMARK  7 active torsions:
REMARK  status: ('A' for Active; 'I' for Inactive)
REMARK    1  A    between atoms: C_1  and  C_2
REMARK    2  A    between atoms: C_2  and  C_3
REMARK    3  A    between atoms: C_7  and  C_8
REMARK    4  A    between atoms: N_14  and  C_15
REMARK    5  A    between atoms: C_19  and  C_20
REMARK    6  A    between atoms: C_20  and  C_21
REMARK    7  A    between atoms: C_21  and  C_22
REMARK                            x       y       z     vdW  Elec       q    Type
REMARK                         _______ _______ _______ _____ _____    ______ ____
ROOT
ATOM      1  C   UNL     1      -0.080  11.639  19.353  0.00  0.00    +0.000 A 
ATOM      2  C   UNL     1       0.714  10.853  18.514  0.00  0.00    +0.000 A 
ATOM      3  C   UNL     1       1.196   9.665  19.021  0.00  0.00    +0.000 A 
ATOM      4  C   UNL     1       0.924   9.218  20.311  0.00  0.00    +0.000 A 
ATOM      5  C   UNL     1       0.178  10.001  21.184  0.00  0.00    +0.000 A 
ATOM      6  C   UNL     1      -0.326  11.220  20.683  0.00  0.00    +0.000 A 
ATOM      7  C   UNL     1       1.509   7.854  20.492  0.00  0.00    +0.000 C 
ATOM      8  N   UNL     1       2.179   7.606  19.220  0.00  0.00    +0.000 N 
ATOM      9  C   UNL     1       2.017   8.665  18.332  0.00  0.00    +0.000 C 
ATOM     10  O   UNL     1       2.411   8.820  17.192  0.00  0.00    +0.000 OA
ENDROOT
BRANCH   8  11
ATOM     11  C   UNL     1       2.950   6.442  18.990  0.00  0.00    +0.000 A 
ATOM     12  C   UNL     1       2.444   5.168  19.250  0.00  0.00    +0.000 A 
ATOM     13  C   UNL     1       3.195   4.035  18.945  0.00  0.00    +0.000 A 
ATOM     14  C   UNL     1       4.466   4.166  18.391  0.00  0.00    +0.000 A 
ATOM     15  C   UNL     1       5.040   5.427  18.139  0.00  0.00    +0.000 A 
ATOM     16  C   UNL     1       4.242   6.546  18.458  0.00  0.00    +0.000 A 
BRANCH  15  17
ATOM     17  C   UNL     1       6.493   5.597  17.494  0.00  0.00    +0.000 C 
ATOM     18  C   UNL     1       6.551   5.789  15.954  0.00  0.00    +0.000 C 
ATOM     19  O   UNL     1       7.651   4.852  15.846  0.00  0.00    +0.000 OA
ATOM     20  C   UNL     1       7.330   4.331  17.164  0.00  0.00    +0.000 C 
BRANCH  17  21
ATOM     21  C   UNL     1       7.289   6.681  18.239  0.00  0.00    +0.000 C 
BRANCH  21  22
ATOM     22  C   UNL     1       7.555   7.943  17.457  0.00  0.00    +0.000 C 
ATOM     23  O   UNL     1       8.113   8.936  17.911  0.00  0.00    +0.000 OA
ENDBRANCH  21  22
ENDBRANCH  17  21
ENDBRANCH  15  17
ENDBRANCH   8  11
BRANCH   5  24
ATOM     24  C   UNL     1      -0.111   9.597  22.607  0.00  0.00    +0.000 C 
ATOM     25  F   UNL     1      -0.788  10.541  23.318  0.00  0.00    +0.000 F 
ATOM     26  F   UNL     1      -0.866   8.467  22.681  0.00  0.00    +0.000 F 
ATOM     27  F   UNL     1       1.021   9.340  23.317  0.00  0.00    +0.000 F 
ENDBRANCH   5  24
BRANCH   1  29
ATOM     28  C   UNL     1      -0.032  14.127  19.321  0.00  0.00    +0.000 C 
ATOM     29  C   UNL     1      -0.736  12.880  18.804  0.00  0.00    +0.000 C 
ENDBRANCH   1  29
TORSDOF 6
ENDMDL
MODEL 7
REMARK VINA RESULT:      -8.5      2.378      3.340
REMARK  Name = 
REMARK  7 active torsions:
REMARK  status: ('A' for Active; 'I' for Inactive)
REMARK    1  A    between atoms: C_1  and  C_2
REMARK    2  A    between atoms: C_2  and  C_3
REMARK    3  A    between atoms: C_7  and  C_8
REMARK    4  A    between atoms: N_14  and  C_15
REMARK    5  A    between atoms: C_19  and  C_20
REMARK    6  A    between atoms: C_20  and  C_21
REMARK    7  A    between atoms: C_21  and  C_22
REMARK                            x       y       z     vdW  Elec       q    Type
REMARK                         _______ _______ _______ _____ _____    ______ ____
ROOT
ATOM      1  C   UNL     1      -0.135  12.472  20.161  0.00  0.00    +0.000 A 
ATOM      2  C   UNL     1       0.620  11.872  19.150  0.00  0.00    +0.000 A 
ATOM      3  C   UNL     1       1.017  10.566  19.341  0.00  0.00    +0.000 A 
ATOM      4  C   UNL     1       0.699   9.828  20.477  0.00  0.00    +0.000 A 
ATOM      5  C   UNL     1      -0.008  10.414  21.521  0.00  0.00    +0.000 A 
ATOM      6  C   UNL     1      -0.426  11.750  21.344  0.00  0.00    +0.000 A 
ATOM      7  C   UNL     1       1.193   8.427  20.309  0.00  0.00    +0.000 C 
ATOM      8  N   UNL     1       1.864   8.463  19.014  0.00  0.00    +0.000 N 
ATOM      9  C   UNL     1       1.783   9.719  18.421  0.00  0.00    +0.000 C 
ATOM     10  O   UNL     1       2.203  10.129  17.356  0.00  0.00    +0.000 OA
ENDROOT
BRANCH   8  11
ATOM     11  C   UNL     1       2.562   7.346  18.498  0.00  0.00    +0.000 A 
ATOM     12  C   UNL     1       3.662   7.497  17.653  0.00  0.00    +0.000 A 
ATOM     13  C   UNL     1       4.376   6.383  17.218  0.00  0.00    +0.000 A 
ATOM     14  C   UNL     1       3.988   5.105  17.613  0.00  0.00    +0.000 A 
ATOM     15  C   UNL     1       2.868   4.891  18.438  0.00  0.00    +0.000 A 
ATOM     16  C   UNL     1       2.177   6.047  18.858  0.00  0.00    +0.000 A 
BRANCH  15  17
ATOM     17  C   UNL     1       2.413   3.432  18.910  0.00  0.00    +0.000 C 
ATOM     18  C   UNL     1       2.304   2.348  17.804  0.00  0.00    +0.000 C 
ATOM     19  O   UNL     1       1.042   1.881  18.341  0.00  0.00    +0.000 OA
ATOM     20  C   UNL     1       0.900   3.127  19.076  0.00  0.00    +0.000 C 
BRANCH  17  21
ATOM     21  C   UNL     1       3.269   2.960  20.097  0.00  0.00    +0.000 C 
BRANCH  21  22
ATOM     22  C   UNL     1       2.504   2.622  21.352  0.00  0.00    +0.000 C 
ATOM     23  O   UNL     1       2.230   3.427  22.236  0.00  0.00    +0.000 OA
ENDBRANCH  21  22
ENDBRANCH  17  21
ENDBRANCH  15  17
ENDBRANCH   8  11
BRANCH   5  24
ATOM     24  C   UNL     1      -0.344   9.685  22.798  0.00  0.00    +0.000 C 
ATOM     25  F   UNL     1      -1.203  10.365  23.606  0.00  0.00    +0.000 F 
ATOM     26  F   UNL     1      -0.929   8.479  22.566  0.00  0.00    +0.000 F 
ATOM     27  F   UNL     1       0.756   9.431  23.557  0.00  0.00    +0.000 F 
ENDBRANCH   5  24
BRANCH   1  29
ATOM     28  C   UNL     1      -0.130  14.467  18.674  0.00  0.00    +0.000 C 
ATOM     29  C   UNL     1      -0.702  13.851  19.943  0.00  0.00    +0.000 C 
ENDBRANCH   1  29
TORSDOF 6
ENDMDL
MODEL 8
REMARK VINA RESULT:      -8.3      1.994      3.635
REMARK  Name = 
REMARK  7 active torsions:
REMARK  status: ('A' for Active; 'I' for Inactive)
REMARK    1  A    between atoms: C_1  and  C_2
REMARK    2  A    between atoms: C_2  and  C_3
REMARK    3  A    between atoms: C_7  and  C_8
REMARK    4  A    between atoms: N_14  and  C_15
REMARK    5  A    between atoms: C_19  and  C_20
REMARK    6  A    between atoms: C_20  and  C_21
REMARK    7  A    between atoms: C_21  and  C_22
REMARK                            x       y       z     vdW  Elec       q    Type
REMARK                         _______ _______ _______ _____ _____    ______ ____
ROOT
ATOM      1  C   UNL     1      -0.368  11.804  19.456  0.00  0.00    +0.000 A 
ATOM      2  C   UNL     1       0.437  11.085  18.569  0.00  0.00    +0.000 A 
ATOM      3  C   UNL     1       0.995   9.909  19.024  0.00  0.00    +0.000 A 
ATOM      4  C   UNL     1       0.789   9.412  20.308  0.00  0.00    +0.000 A 
ATOM      5  C   UNL     1       0.034  10.130  21.228  0.00  0.00    +0.000 A 
ATOM      6  C   UNL     1      -0.548  11.335  20.780  0.00  0.00    +0.000 A 
ATOM      7  C   UNL     1       1.448   8.075  20.429  0.00  0.00    +0.000 C 
ATOM      8  N   UNL     1       2.088   7.899  19.129  0.00  0.00    +0.000 N 
ATOM      9  C   UNL     1       1.842   8.973  18.279  0.00  0.00    +0.000 C 
ATOM     10  O   UNL     1       2.190   9.181  17.133  0.00  0.00    +0.000 OA
ENDROOT
BRANCH   8  11
ATOM     11  C   UNL     1       2.908   6.783  18.840  0.00  0.00    +0.000 A 
ATOM     12  C   UNL     1       4.024   6.892  18.009  0.00  0.00    +0.000 A 
ATOM     13  C   UNL     1       4.857   5.795  17.801  0.00  0.00    +0.000 A 
ATOM     14  C   UNL     1       4.574   4.575  18.409  0.00  0.00    +0.000 A 
ATOM     15  C   UNL     1       3.444   4.399  19.231  0.00  0.00    +0.000 A 
ATOM     16  C   UNL     1       2.631   5.537  19.418  0.00  0.00    +0.000 A 
BRANCH  15  17
ATOM     17  C   UNL     1       3.108   3.009  19.946  0.00  0.00    +0.000 C 
ATOM     18  C   UNL     1       2.358   3.091  21.303  0.00  0.00    +0.000 C 
ATOM     19  O   UNL     1       3.233   2.093  21.883  0.00  0.00    +0.000 OA
ATOM     20  C   UNL     1       4.195   2.323  20.818  0.00  0.00    +0.000 C 
BRANCH  17  21
ATOM     21  C   UNL     1       2.416   2.051  18.962  0.00  0.00    +0.000 C 
BRANCH  21  22
ATOM     22  C   UNL     1       0.932   2.263  18.788  0.00  0.00    +0.000 C 
ATOM     23  O   UNL     1       0.434   3.145  18.097  0.00  0.00    +0.000 OA
ENDBRANCH  21  22
ENDBRANCH  17  21
ENDBRANCH  15  17
ENDBRANCH   8  11
BRANCH   5  24
ATOM     24  C   UNL     1      -0.187   9.671  22.647  0.00  0.00    +0.000 C 
ATOM     25  F   UNL     1      -0.927   8.532  22.744  0.00  0.00    +0.000 F 
ATOM     26  F   UNL     1       0.981   9.410  23.294  0.00  0.00    +0.000 F 
ATOM     27  F   UNL     1      -0.836  10.600  23.400  0.00  0.00    +0.000 F 
ENDBRANCH   5  24
BRANCH   1  29
ATOM     28  C   UNL     1      -0.168  14.224  18.909  0.00  0.00    +0.000 C 
ATOM     29  C   UNL     1      -1.104  13.024  18.966  0.00  0.00    +0.000 C 
ENDBRANCH   1  29
TORSDOF 6
ENDMDL
MODEL 9
REMARK VINA RESULT:      -8.3      2.443      3.256
REMARK  Name = 
REMARK  7 active torsions:
REMARK  status: ('A' for Active; 'I' for Inactive)
REMARK    1  A    between atoms: C_1  and  C_2
REMARK    2  A    between atoms: C_2  and  C_3
REMARK    3  A    between atoms: C_7  and  C_8
REMARK    4  A    between atoms: N_14  and  C_15
REMARK    5  A    between atoms: C_19  and  C_20
REMARK    6  A    between atoms: C_20  and  C_21
REMARK    7  A    between atoms: C_21  and  C_22
REMARK                            x       y       z     vdW  Elec       q    Type
REMARK                         _______ _______ _______ _____ _____    ______ ____
ROOT
ATOM      1  C   UNL     1      -0.178   9.855  22.067  0.00  0.00    +0.000 A 
ATOM      2  C   UNL     1       0.294   8.543  21.972  0.00  0.00    +0.000 A 
ATOM      3  C   UNL     1       0.948   8.184  20.812  0.00  0.00    +0.000 A 
ATOM      4  C   UNL     1       1.161   9.059  19.752  0.00  0.00    +0.000 A 
ATOM      5  C   UNL     1       0.660  10.355  19.798  0.00  0.00    +0.000 A 
ATOM      6  C   UNL     1      -0.011  10.743  20.978  0.00  0.00    +0.000 A 
ATOM      7  C   UNL     1       1.988   8.378  18.709  0.00  0.00    +0.000 C 
ATOM      8  N   UNL     1       2.165   7.034  19.250  0.00  0.00    +0.000 N 
ATOM      9  C   UNL     1       1.553   6.888  20.491  0.00  0.00    +0.000 C 
ATOM     10  O   UNL     1       1.494   5.936  21.245  0.00  0.00    +0.000 OA
ENDROOT
BRANCH   8  11
ATOM     11  C   UNL     1       2.828   6.015  18.527  0.00  0.00    +0.000 A 
ATOM     12  C   UNL     1       2.148   4.889  18.059  0.00  0.00    +0.000 A 
ATOM     13  C   UNL     1       2.809   3.937  17.286  0.00  0.00    +0.000 A 
ATOM     14  C   UNL     1       4.160   4.094  16.986  0.00  0.00    +0.000 A 
ATOM     15  C   UNL     1       4.903   5.192  17.458  0.00  0.00    +0.000 A 
ATOM     16  C   UNL     1       4.193   6.133  18.233  0.00  0.00    +0.000 A 
BRANCH  15  17
ATOM     17  C   UNL     1       6.452   5.394  17.116  0.00  0.00    +0.000 C 
ATOM     18  C   UNL     1       7.045   4.471  16.017  0.00  0.00    +0.000 C 
ATOM     19  O   UNL     1       8.228   4.225  16.817  0.00  0.00    +0.000 OA
ATOM     20  C   UNL     1       7.521   4.692  17.997  0.00  0.00    +0.000 C 
BRANCH  17  21
ATOM     21  C   UNL     1       6.755   6.877  16.848  0.00  0.00    +0.000 C 
BRANCH  21  22
ATOM     22  C   UNL     1       7.768   7.507  17.771  0.00  0.00    +0.000 C 
ATOM     23  O   UNL     1       7.957   8.715  17.872  0.00  0.00    +0.000 OA
ENDBRANCH  21  22
ENDBRANCH  17  21
ENDBRANCH  15  17
ENDBRANCH   8  11
BRANCH   5  24
ATOM     24  C   UNL     1       0.814  11.337  18.664  0.00  0.00    +0.000 C 
ATOM     25  F   UNL     1       0.099  11.008  17.554  0.00  0.00    +0.000 F 
ATOM     26  F   UNL     1       0.410  12.590  19.007  0.00  0.00    +0.000 F 
ATOM     27  F   UNL     1       2.106  11.457  18.252  0.00  0.00    +0.000 F 
ENDBRANCH   5  24
BRANCH   1  29
ATOM     28  C   UNL     1      -1.648  11.562  23.126  0.00  0.00    +0.000 C 
ATOM     29  C   UNL     1      -0.782  10.332  23.363  0.00  0.00    +0.000 C 
ENDBRANCH   1  29
TORSDOF 6
ENDMDL
