MODEL 1
REMARK VINA RESULT:      -7.3      0.000      0.000
REMARK  Name = 
REMARK  2 active torsions:
REMARK  status: ('A' for Active; 'I' for Inactive)
REMARK    1  A    between atoms: C_2  and  C_3
REMARK    2  A    between atoms: C_5  and  C_6
REMARK                            x       y       z     vdW  Elec       q    Type
REMARK                         _______ _______ _______ _____ _____    ______ ____
ROOT
ATOM      1  C   UNL     1       1.505  15.726  19.502  0.00  0.00    +0.000 A 
ATOM      2  C   UNL     1       2.864  15.436  19.359  0.00  0.00    +0.000 A 
ATOM      3  C   UNL     1       3.644  16.170  18.486  0.00  0.00    +0.000 A 
ATOM      4  N   UNL     1       3.099  17.129  17.709  0.00  0.00    +0.000 NA
ATOM      5  C   UNL     1       1.773  17.352  17.755  0.00  0.00    +0.000 A 
ATOM      6  C   UNL     1       1.247  18.267  16.852  0.00  0.00    +0.000 A 
ATOM      7  C   UNL     1      -0.118  18.555  16.796  0.00  0.00    +0.000 A 
ATOM      8  C   UNL     1      -0.982  17.934  17.683  0.00  0.00    +0.000 A 
ATOM      9  C   UNL     1      -0.476  17.024  18.610  0.00  0.00    +0.000 A 
ATOM     10  C   UNL     1       0.904  16.690  18.651  0.00  0.00    +0.000 A 
ENDROOT
BRANCH   1  12
ATOM     11  O   UNL     1       0.671  15.226  21.647  0.00  0.00    +0.000 OA
ATOM     12  C   UNL     1       0.731  14.883  20.469  0.00  0.00    +0.000 C 
ATOM     13  N   UNL     1       0.004  13.781  19.994  0.00  0.00    +0.000 N 
ATOM     14  C   UNL     1      -0.951  13.146  20.927  0.00  0.00    +0.000 C 
ATOM     15  C   UNL     1      -0.376  11.861  21.544  0.00  0.00    +0.000 C 
ATOM     16  N   UNL     1       0.192  11.026  20.497  0.00  0.00    +0.000 N 
ATOM     17  C   UNL     1       0.366   9.652  20.528  0.00  0.00    +0.000 C 
ATOM     18  O   UNL     1      -0.058   8.866  21.356  0.00  0.00    +0.000 OA
ATOM     19  N   UNL     1       1.117   9.316  19.406  0.00  0.00    +0.000 N 
ATOM     20  C   UNL     1       1.329  10.462  18.559  0.00  0.00    +0.000 C 
ATOM     21  C   UNL     1       1.077  11.617  19.516  0.00  0.00    +0.000 C 
ATOM     22  C   UNL     1       0.462  12.878  18.910  0.00  0.00    +0.000 C 
ATOM     23  H   UNL     1       1.274   8.343  19.169  0.00  0.00    +0.000 HD
ENDBRANCH   1  12
BRANCH   3  24
ATOM     24  C   UNL     1       5.099  15.967  18.380  0.00  0.00    +0.000 A 
ATOM     25  C   UNL     1       5.652  14.788  17.858  0.00  0.00    +0.000 A 
ATOM     26  C   UNL     1       7.033  14.648  17.730  0.00  0.00    +0.000 A 
ATOM     27  C   UNL     1       7.843  15.696  18.127  0.00  0.00    +0.000 A 
ATOM     28  N   UNL     1       7.370  16.847  18.642  0.00  0.00    +0.000 NA
ATOM     29  C   UNL     1       6.025  16.943  18.765  0.00  0.00    +0.000 A 
ENDBRANCH   3  24
TORSDOF 2
ENDMDL
MODEL 2
REMARK VINA RESULT:      -7.2      6.524      8.866
REMARK  Name = 
REMARK  2 active torsions:
REMARK  status: ('A' for Active; 'I' for Inactive)
REMARK    1  A    between atoms: C_2  and  C_3
REMARK    2  A    between atoms: C_5  and  C_6
REMARK                            x       y       z     vdW  Elec       q    Type
REMARK                         _______ _______ _______ _____ _____    ______ ____
ROOT
ATOM      1  C   UNL     1       1.075   8.936  18.823  0.00  0.00    +0.000 A 
ATOM      2  C   UNL     1       0.057   9.246  17.918  0.00  0.00    +0.000 A 
ATOM      3  C   UNL     1      -1.067   9.932  18.342  0.00  0.00    +0.000 A 
ATOM      4  N   UNL     1      -1.232  10.254  19.641  0.00  0.00    +0.000 NA
ATOM      5  C   UNL     1      -0.311   9.872  20.546  0.00  0.00    +0.000 A 
ATOM      6  C   UNL     1      -0.586  10.126  21.883  0.00  0.00    +0.000 A 
ATOM      7  C   UNL     1       0.287   9.749  22.906  0.00  0.00    +0.000 A 
ATOM      8  C   UNL     1       1.482   9.127  22.587  0.00  0.00    +0.000 A 
ATOM      9  C   UNL     1       1.788   8.876  21.249  0.00  0.00    +0.000 A 
ATOM     10  C   UNL     1       0.891   9.215  20.201  0.00  0.00    +0.000 A 
ENDROOT
BRANCH   1  12
ATOM     11  O   UNL     1       2.839   8.630  17.293  0.00  0.00    +0.000 OA
ATOM     12  C   UNL     1       2.256   8.192  18.281  0.00  0.00    +0.000 C 
ATOM     13  N   UNL     1       2.741   7.071  18.973  0.00  0.00    +0.000 N 
ATOM     14  C   UNL     1       4.055   6.535  18.560  0.00  0.00    +0.000 C 
ATOM     15  C   UNL     1       3.908   5.291  17.668  0.00  0.00    +0.000 C 
ATOM     16  N   UNL     1       2.967   4.362  18.272  0.00  0.00    +0.000 N 
ATOM     17  C   UNL     1       2.907   2.991  18.080  0.00  0.00    +0.000 C 
ATOM     18  O   UNL     1       3.712   2.285  17.500  0.00  0.00    +0.000 OA
ATOM     19  N   UNL     1       1.740   2.549  18.695  0.00  0.00    +0.000 N 
ATOM     20  C   UNL     1       1.093   3.618  19.412  0.00  0.00    +0.000 C 
ATOM     21  C   UNL     1       1.695   4.852  18.759  0.00  0.00    +0.000 C 
ATOM     22  C   UNL     1       1.883   6.073  19.658  0.00  0.00    +0.000 C 
ATOM     23  H   UNL     1       1.547   1.557  18.771  0.00  0.00    +0.000 HD
ENDBRANCH   1  12
BRANCH   3  24
ATOM     24  C   UNL     1      -2.116  10.367  17.403  0.00  0.00    +0.000 A 
ATOM     25  C   UNL     1      -2.202   9.867  16.097  0.00  0.00    +0.000 A 
ATOM     26  C   UNL     1      -3.236  10.267  15.250  0.00  0.00    +0.000 A 
ATOM     27  C   UNL     1      -4.171  11.165  15.730  0.00  0.00    +0.000 A 
ATOM     28  N   UNL     1      -4.134  11.685  16.972  0.00  0.00    +0.000 NA
ATOM     29  C   UNL     1      -3.110  11.284  17.761  0.00  0.00    +0.000 A 
ENDBRANCH   3  24
TORSDOF 2
ENDMDL
MODEL 3
REMARK VINA RESULT:      -7.1      3.562      6.308
REMARK  Name = 
REMARK  2 active torsions:
REMARK  status: ('A' for Active; 'I' for Inactive)
REMARK    1  A    between atoms: C_2  and  C_3
REMARK    2  A    between atoms: C_5  and  C_6
REMARK                            x       y       z     vdW  Elec       q    Type
REMARK                         _______ _______ _______ _____ _____    ______ ____
ROOT
ATOM      1  C   UNL     1      -0.452  13.237  22.002  0.00  0.00    +0.000 A 
ATOM      2  C   UNL     1       0.345  14.043  21.185  0.00  0.00    +0.000 A 
ATOM      3  C   UNL     1       1.223  13.469  20.285  0.00  0.00    +0.000 A 
ATOM      4  N   UNL     1       1.377  12.130  20.226  0.00  0.00    +0.000 NA
ATOM      5  C   UNL     1       0.696  11.341  21.078  0.00  0.00    +0.000 A 
ATOM      6  C   UNL     1       0.978   9.982  21.055  0.00  0.00    +0.000 A 
ATOM      7  C   UNL     1       0.349   9.077  21.913  0.00  0.00    +0.000 A 
ATOM      8  C   UNL     1      -0.609   9.535  22.801  0.00  0.00    +0.000 A 
ATOM      9  C   UNL     1      -0.922  10.894  22.832  0.00  0.00    +0.000 A 
ATOM     10  C   UNL     1      -0.261  11.832  21.995  0.00  0.00    +0.000 A 
ENDROOT
BRANCH   1  12
ATOM     11  O   UNL     1      -0.988  14.195  24.086  0.00  0.00    +0.000 OA
ATOM     12  C   UNL     1      -1.376  13.940  22.949  0.00  0.00    +0.000 C 
ATOM     13  N   UNL     1      -2.623  14.388  22.489  0.00  0.00    +0.000 N 
ATOM     14  C   UNL     1      -3.381  15.304  23.369  0.00  0.00    +0.000 C 
ATOM     15  C   UNL     1      -4.493  14.568  24.134  0.00  0.00    +0.000 C 
ATOM     16  N   UNL     1      -5.256  13.738  23.215  0.00  0.00    +0.000 N 
ATOM     17  C   UNL     1      -6.566  13.312  23.366  0.00  0.00    +0.000 C 
ATOM     18  O   UNL     1      -7.372  13.669  24.206  0.00  0.00    +0.000 OA
ATOM     19  N   UNL     1      -6.809  12.391  22.353  0.00  0.00    +0.000 N 
ATOM     20  C   UNL     1      -5.692  12.307  21.448  0.00  0.00    +0.000 C 
ATOM     21  C   UNL     1      -4.558  12.878  22.284  0.00  0.00    +0.000 C 
ATOM     22  C   UNL     1      -3.478  13.649  21.527  0.00  0.00    +0.000 C 
ATOM     23  H   UNL     1      -7.744  12.027  22.207  0.00  0.00    +0.000 HD
ENDBRANCH   1  12
BRANCH   3  24
ATOM     24  C   UNL     1       2.007  14.277  19.335  0.00  0.00    +0.000 A 
ATOM     25  C   UNL     1       1.629  15.578  18.974  0.00  0.00    +0.000 A 
ATOM     26  C   UNL     1       2.420  16.332  18.106  0.00  0.00    +0.000 A 
ATOM     27  C   UNL     1       3.581  15.767  17.613  0.00  0.00    +0.000 A 
ATOM     28  N   UNL     1       3.990  14.520  17.918  0.00  0.00    +0.000 NA
ATOM     29  C   UNL     1       3.191  13.813  18.752  0.00  0.00    +0.000 A 
ENDBRANCH   3  24
TORSDOF 2
ENDMDL
MODEL 4
REMARK VINA RESULT:      -7.0      2.635      7.523
REMARK  Name = 
REMARK  2 active torsions:
REMARK  status: ('A' for Active; 'I' for Inactive)
REMARK    1  A    between atoms: C_2  and  C_3
REMARK    2  A    between atoms: C_5  and  C_6
REMARK                            x       y       z     vdW  Elec       q    Type
REMARK                         _______ _______ _______ _____ _____    ______ ____
ROOT
ATOM      1  C   UNL     1       0.515  11.182  19.681  0.00  0.00    +0.000 A 
ATOM      2  C   UNL     1       1.345  10.238  19.072  0.00  0.00    +0.000 A 
ATOM      3  C   UNL     1       1.473   8.972  19.612  0.00  0.00    +0.000 A 
ATOM      4  N   UNL     1       0.858   8.647  20.768  0.00  0.00    +0.000 NA
ATOM      5  C   UNL     1       0.138   9.576  21.425  0.00  0.00    +0.000 A 
ATOM      6  C   UNL     1      -0.376   9.224  22.666  0.00  0.00    +0.000 A 
ATOM      7  C   UNL     1      -1.115  10.118  23.445  0.00  0.00    +0.000 A 
ATOM      8  C   UNL     1      -1.372  11.390  22.962  0.00  0.00    +0.000 A 
ATOM      9  C   UNL     1      -0.880  11.761  21.710  0.00  0.00    +0.000 A 
ATOM     10  C   UNL     1      -0.092  10.877  20.926  0.00  0.00    +0.000 A 
ENDROOT
BRANCH   1  12
ATOM     11  O   UNL     1      -0.128  12.637  17.944  0.00  0.00    +0.000 OA
ATOM     12  C   UNL     1       0.434  12.529  19.031  0.00  0.00    +0.000 C 
ATOM     13  N   UNL     1       0.902  13.657  19.721  0.00  0.00    +0.000 N 
ATOM     14  C   UNL     1       0.559  14.984  19.165  0.00  0.00    +0.000 C 
ATOM     15  C   UNL     1       1.735  15.597  18.387  0.00  0.00    +0.000 C 
ATOM     16  N   UNL     1       2.952  15.497  19.177  0.00  0.00    +0.000 N 
ATOM     17  C   UNL     1       4.074  16.304  19.087  0.00  0.00    +0.000 C 
ATOM     18  O   UNL     1       4.201  17.333  18.449  0.00  0.00    +0.000 OA
ATOM     19  N   UNL     1       5.053  15.723  19.886  0.00  0.00    +0.000 N 
ATOM     20  C   UNL     1       4.529  14.596  20.614  0.00  0.00    +0.000 C 
ATOM     21  C   UNL     1       3.294  14.238  19.803  0.00  0.00    +0.000 C 
ATOM     22  C   UNL     1       2.109  13.671  20.584  0.00  0.00    +0.000 C 
ATOM     23  H   UNL     1       5.928  16.206  20.054  0.00  0.00    +0.000 HD
ENDBRANCH   1  12
BRANCH   3  24
ATOM     24  C   UNL     1       2.256   7.915  18.948  0.00  0.00    +0.000 A 
ATOM     25  C   UNL     1       2.948   8.141  17.750  0.00  0.00    +0.000 A 
ATOM     26  C   UNL     1       3.717   7.130  17.173  0.00  0.00    +0.000 A 
ATOM     27  C   UNL     1       3.780   5.904  17.810  0.00  0.00    +0.000 A 
ATOM     28  N   UNL     1       3.131   5.628  18.957  0.00  0.00    +0.000 NA
ATOM     29  C   UNL     1       2.384   6.628  19.481  0.00  0.00    +0.000 A 
ENDBRANCH   3  24
TORSDOF 2
ENDMDL
MODEL 5
REMARK VINA RESULT:      -7.0      3.541      6.188
REMARK  Name = 
REMARK  2 active torsions:
REMARK  status: ('A' for Active; 'I' for Inactive)
REMARK    1  A    between atoms: C_2  and  C_3
REMARK    2  A    between atoms: C_5  and  C_6
REMARK                            x       y       z     vdW  Elec       q    Type
REMARK                         _______ _______ _______ _____ _____    ______ ____
ROOT
ATOM      1  C   UNL     1      -1.027  13.630  21.086  0.00  0.00    +0.000 A 
ATOM      2  C   UNL     1      -0.651  14.830  20.480  0.00  0.00    +0.000 A 
ATOM      3  C   UNL     1       0.087  14.818  19.311  0.00  0.00    +0.000 A 
ATOM      4  N   UNL     1       0.514  13.657  18.774  0.00  0.00    +0.000 NA
ATOM      5  C   UNL     1       0.251  12.495  19.401  0.00  0.00    +0.000 A 
ATOM      6  C   UNL     1       0.812  11.341  18.869  0.00  0.00    +0.000 A 
ATOM      7  C   UNL     1       0.626  10.086  19.453  0.00  0.00    +0.000 A 
ATOM      8  C   UNL     1      -0.165   9.973  20.584  0.00  0.00    +0.000 A 
ATOM      9  C   UNL     1      -0.753  11.115  21.128  0.00  0.00    +0.000 A 
ATOM     10  C   UNL     1      -0.538  12.404  20.569  0.00  0.00    +0.000 A 
ENDROOT
BRANCH   1  12
ATOM     11  O   UNL     1      -1.274  13.521  23.426  0.00  0.00    +0.000 OA
ATOM     12  C   UNL     1      -1.826  13.733  22.350  0.00  0.00    +0.000 C 
ATOM     13  N   UNL     1      -3.157  14.172  22.290  0.00  0.00    +0.000 N 
ATOM     14  C   UNL     1      -3.816  14.516  23.569  0.00  0.00    +0.000 C 
ATOM     15  C   UNL     1      -4.740  13.387  24.054  0.00  0.00    +0.000 C 
ATOM     16  N   UNL     1      -5.591  12.945  22.961  0.00  0.00    +0.000 N 
ATOM     17  C   UNL     1      -6.830  12.333  23.062  0.00  0.00    +0.000 C 
ATOM     18  O   UNL     1      -7.509  12.188  24.062  0.00  0.00    +0.000 OA
ATOM     19  N   UNL     1      -7.178  11.915  21.782  0.00  0.00    +0.000 N 
ATOM     20  C   UNL     1      -6.221  12.371  20.807  0.00  0.00    +0.000 C 
ATOM     21  C   UNL     1      -5.003  12.666  21.668  0.00  0.00    +0.000 C 
ATOM     22  C   UNL     1      -4.110  13.818  21.210  0.00  0.00    +0.000 C 
ATOM     23  H   UNL     1      -8.100  11.534  21.602  0.00  0.00    +0.000 HD
ENDBRANCH   1  12
BRANCH   3  24
ATOM     24  C   UNL     1       0.418  16.056  18.584  0.00  0.00    +0.000 A 
ATOM     25  C   UNL     1      -0.569  16.943  18.133  0.00  0.00    +0.000 A 
ATOM     26  C   UNL     1      -0.217  18.129  17.488  0.00  0.00    +0.000 A 
ATOM     27  C   UNL     1       1.125  18.408  17.305  0.00  0.00    +0.000 A 
ATOM     28  N   UNL     1       2.116  17.590  17.709  0.00  0.00    +0.000 NA
ATOM     29  C   UNL     1       1.737  16.442  18.320  0.00  0.00    +0.000 A 
ENDBRANCH   3  24
TORSDOF 2
ENDMDL
MODEL 6
REMARK VINA RESULT:      -6.9      1.262      1.613
REMARK  Name = 
REMARK  2 active torsions:
REMARK  status: ('A' for Active; 'I' for Inactive)
REMARK    1  A    between atoms: C_2  and  C_3
REMARK    2  A    between atoms: C_5  and  C_6
REMARK                            x       y       z     vdW  Elec       q    Type
REMARK                         _______ _______ _______ _____ _____    ______ ____
ROOT
ATOM      1  C   UNL     1       1.352  16.477  19.774  0.00  0.00    +0.000 A 
ATOM      2  C   UNL     1       2.668  16.022  19.662  0.00  0.00    +0.000 A 
ATOM      3  C   UNL     1       3.450  16.410  18.591  0.00  0.00    +0.000 A 
ATOM      4  N   UNL     1       2.942  17.177  17.604  0.00  0.00    +0.000 NA
ATOM      5  C   UNL     1       1.646  17.539  17.641  0.00  0.00    +0.000 A 
ATOM      6  C   UNL     1       1.145  18.228  16.544  0.00  0.00    +0.000 A 
ATOM      7  C   UNL     1      -0.191  18.629  16.466  0.00  0.00    +0.000 A 
ATOM      8  C   UNL     1      -1.045  18.361  17.522  0.00  0.00    +0.000 A 
ATOM      9  C   UNL     1      -0.561  17.685  18.642  0.00  0.00    +0.000 A 
ATOM     10  C   UNL     1       0.784  17.234  18.718  0.00  0.00    +0.000 A 
ENDROOT
BRANCH   1  12
ATOM     11  O   UNL     1       0.655  16.634  22.018  0.00  0.00    +0.000 OA
ATOM     12  C   UNL     1       0.573  16.008  20.965  0.00  0.00    +0.000 C 
ATOM     13  N   UNL     1      -0.315  14.931  20.826  0.00  0.00    +0.000 N 
ATOM     14  C   UNL     1      -1.253  14.678  21.941  0.00  0.00    +0.000 C 
ATOM     15  C   UNL     1      -0.779  13.518  22.832  0.00  0.00    +0.000 C 
ATOM     16  N   UNL     1      -0.404  12.384  22.003  0.00  0.00    +0.000 N 
ATOM     17  C   UNL     1      -0.389  11.048  22.372  0.00  0.00    +0.000 C 
ATOM     18  O   UNL     1      -0.827  10.554  23.395  0.00  0.00    +0.000 OA
ATOM     19  N   UNL     1       0.219  10.350  21.333  0.00  0.00    +0.000 N 
ATOM     20  C   UNL     1       0.487  11.214  20.213  0.00  0.00    +0.000 C 
ATOM     21  C   UNL     1       0.454  12.592  20.856  0.00  0.00    +0.000 C 
ATOM     22  C   UNL     1      -0.061  13.736  19.985  0.00  0.00    +0.000 C 
ATOM     23  H   UNL     1       0.241   9.337  21.343  0.00  0.00    +0.000 HD
ENDBRANCH   1  12
BRANCH   3  24
ATOM     24  C   UNL     1       4.872  16.037  18.487  0.00  0.00    +0.000 A 
ATOM     25  C   UNL     1       5.891  16.813  19.056  0.00  0.00    +0.000 A 
ATOM     26  C   UNL     1       7.222  16.405  18.977  0.00  0.00    +0.000 A 
ATOM     27  C   UNL     1       7.512  15.219  18.327  0.00  0.00    +0.000 A 
ATOM     28  N   UNL     1       6.576  14.438  17.755  0.00  0.00    +0.000 NA
ATOM     29  C   UNL     1       5.296  14.871  17.839  0.00  0.00    +0.000 A 
ENDBRANCH   3  24
TORSDOF 2
ENDMDL
MODEL 7
REMARK VINA RESULT:      -6.8      4.312      7.818
REMARK  Name = 
REMARK  2 active torsions:
REMARK  status: ('A' for Active; 'I' for Inactive)
REMARK    1  A    between atoms: C_2  and  C_3
REMARK    2  A    between atoms: C_5  and  C_6
REMARK                            x       y       z     vdW  Elec       q    Type
REMARK                         _______ _______ _______ _____ _____    ______ ____
ROOT
ATOM      1  C   UNL     1      -1.026  11.858  22.332  0.00  0.00    +0.000 A 
ATOM      2  C   UNL     1      -2.321  11.979  22.842  0.00  0.00    +0.000 A 
ATOM      3  C   UNL     1      -2.985  13.190  22.775  0.00  0.00    +0.000 A 
ATOM      4  N   UNL     1      -2.375  14.288  22.282  0.00  0.00    +0.000 NA
ATOM      5  C   UNL     1      -1.092  14.216  21.882  0.00  0.00    +0.000 A 
ATOM      6  C   UNL     1      -0.477  15.399  21.493  0.00  0.00    +0.000 A 
ATOM      7  C   UNL     1       0.858  15.444  21.085  0.00  0.00    +0.000 A 
ATOM      8  C   UNL     1       1.595  14.272  21.037  0.00  0.00    +0.000 A 
ATOM      9  C   UNL     1       0.995  13.068  21.407  0.00  0.00    +0.000 A 
ATOM     10  C   UNL     1      -0.350  13.014  21.864  0.00  0.00    +0.000 A 
ENDROOT
BRANCH   1  12
ATOM     11  O   UNL     1       0.148  10.187  23.506  0.00  0.00    +0.000 OA
ATOM     12  C   UNL     1      -0.378  10.512  22.444  0.00  0.00    +0.000 C 
ATOM     13  N   UNL     1      -0.478   9.608  21.377  0.00  0.00    +0.000 N 
ATOM     14  C   UNL     1      -0.066   8.211  21.630  0.00  0.00    +0.000 C 
ATOM     15  C   UNL     1       1.342   7.924  21.081  0.00  0.00    +0.000 C 
ATOM     16  N   UNL     1       1.446   8.415  19.716  0.00  0.00    +0.000 N 
ATOM     17  C   UNL     1       2.309   7.965  18.731  0.00  0.00    +0.000 C 
ATOM     18  O   UNL     1       3.029   6.984  18.764  0.00  0.00    +0.000 OA
ATOM     19  N   UNL     1       2.195   8.847  17.661  0.00  0.00    +0.000 N 
ATOM     20  C   UNL     1       1.150   9.812  17.892  0.00  0.00    +0.000 C 
ATOM     21  C   UNL     1       0.988   9.752  19.403  0.00  0.00    +0.000 C 
ATOM     22  C   UNL     1      -0.420   9.991  19.944  0.00  0.00    +0.000 C 
ATOM     23  H   UNL     1       2.661   8.649  16.784  0.00  0.00    +0.000 HD
ENDBRANCH   1  12
BRANCH   3  24
ATOM     24  C   UNL     1      -4.385  13.337  23.207  0.00  0.00    +0.000 A 
ATOM     25  C   UNL     1      -5.182  14.416  22.801  0.00  0.00    +0.000 A 
ATOM     26  C   UNL     1      -6.518  14.500  23.192  0.00  0.00    +0.000 A 
ATOM     27  C   UNL     1      -7.037  13.494  23.987  0.00  0.00    +0.000 A 
ATOM     28  N   UNL     1      -6.317  12.439  24.415  0.00  0.00    +0.000 NA
ATOM     29  C   UNL     1      -5.021  12.398  24.027  0.00  0.00    +0.000 A 
ENDBRANCH   3  24
TORSDOF 2
ENDMDL
MODEL 8
REMARK VINA RESULT:      -6.8      3.767      8.365
REMARK  Name = 
REMARK  2 active torsions:
REMARK  status: ('A' for Active; 'I' for Inactive)
REMARK    1  A    between atoms: C_2  and  C_3
REMARK    2  A    between atoms: C_5  and  C_6
REMARK                            x       y       z     vdW  Elec       q    Type
REMARK                         _______ _______ _______ _____ _____    ______ ____
ROOT
ATOM      1  C   UNL     1      -1.931  11.918  19.400  0.00  0.00    +0.000 A 
ATOM      2  C   UNL     1      -2.680  12.531  20.408  0.00  0.00    +0.000 A 
ATOM      3  C   UNL     1      -4.057  12.597  20.309  0.00  0.00    +0.000 A 
ATOM      4  N   UNL     1      -4.696  12.135  19.214  0.00  0.00    +0.000 NA
ATOM      5  C   UNL     1      -3.983  11.637  18.186  0.00  0.00    +0.000 A 
ATOM      6  C   UNL     1      -4.680  11.285  17.038  0.00  0.00    +0.000 A 
ATOM      7  C   UNL     1      -4.038  10.782  15.903  0.00  0.00    +0.000 A 
ATOM      8  C   UNL     1      -2.665  10.599  15.923  0.00  0.00    +0.000 A 
ATOM      9  C   UNL     1      -1.946  10.930  17.072  0.00  0.00    +0.000 A 
ATOM     10  C   UNL     1      -2.580  11.481  18.217  0.00  0.00    +0.000 A 
ENDROOT
BRANCH   1  12
ATOM     11  O   UNL     1       0.052  11.029  20.307  0.00  0.00    +0.000 OA
ATOM     12  C   UNL     1      -0.445  11.890  19.586  0.00  0.00    +0.000 C 
ATOM     13  N   UNL     1       0.358  12.774  18.850  0.00  0.00    +0.000 N 
ATOM     14  C   UNL     1       1.817  12.532  18.859  0.00  0.00    +0.000 C 
ATOM     15  C   UNL     1       2.546  13.476  19.830  0.00  0.00    +0.000 C 
ATOM     16  N   UNL     1       2.095  14.842  19.617  0.00  0.00    +0.000 N 
ATOM     17  C   UNL     1       2.791  16.005  19.907  0.00  0.00    +0.000 C 
ATOM     18  O   UNL     1       3.955  16.110  20.245  0.00  0.00    +0.000 OA
ATOM     19  N   UNL     1       1.904  17.061  19.724  0.00  0.00    +0.000 N 
ATOM     20  C   UNL     1       0.651  16.600  19.181  0.00  0.00    +0.000 C 
ATOM     21  C   UNL     1       0.678  15.120  19.529  0.00  0.00    +0.000 C 
ATOM     22  C   UNL     1      -0.006  14.178  18.539  0.00  0.00    +0.000 C 
ATOM     23  H   UNL     1       2.231  18.018  19.778  0.00  0.00    +0.000 HD
ENDBRANCH   1  12
BRANCH   3  24
ATOM     24  C   UNL     1      -4.893  13.142  21.393  0.00  0.00    +0.000 A 
ATOM     25  C   UNL     1      -4.584  12.941  22.746  0.00  0.00    +0.000 A 
ATOM     26  C   UNL     1      -5.372  13.510  23.746  0.00  0.00    +0.000 A 
ATOM     27  C   UNL     1      -6.460  14.277  23.373  0.00  0.00    +0.000 A 
ATOM     28  N   UNL     1      -6.809  14.497  22.091  0.00  0.00    +0.000 NA
ATOM     29  C   UNL     1      -6.030  13.918  21.147  0.00  0.00    +0.000 A 
ENDBRANCH   3  24
TORSDOF 2
ENDMDL
MODEL 9
REMARK VINA RESULT:      -6.8      2.440      4.631
REMARK  Name = 
REMARK  2 active torsions:
REMARK  status: ('A' for Active; 'I' for Inactive)
REMARK    1  A    between atoms: C_2  and  C_3
REMARK    2  A    between atoms: C_5  and  C_6
REMARK                            x       y       z     vdW  Elec       q    Type
REMARK                         _______ _______ _______ _____ _____    ______ ____
ROOT
ATOM      1  C   UNL     1      -0.600  12.581  21.237  0.00  0.00    +0.000 A 
ATOM      2  C   UNL     1       0.359  13.234  20.458  0.00  0.00    +0.000 A 
ATOM      3  C   UNL     1       0.106  14.498  19.958  0.00  0.00    +0.000 A 
ATOM      4  N   UNL     1      -1.089  15.094  20.153  0.00  0.00    +0.000 NA
ATOM      5  C   UNL     1      -2.062  14.437  20.811  0.00  0.00    +0.000 A 
ATOM      6  C   UNL     1      -3.308  15.047  20.883  0.00  0.00    +0.000 A 
ATOM      7  C   UNL     1      -4.396  14.444  21.518  0.00  0.00    +0.000 A 
ATOM      8  C   UNL     1      -4.231  13.210  22.125  0.00  0.00    +0.000 A 
ATOM      9  C   UNL     1      -2.984  12.584  22.081  0.00  0.00    +0.000 A 
ATOM     10  C   UNL     1      -1.881  13.167  21.402  0.00  0.00    +0.000 A 
ENDROOT
BRANCH   1  12
ATOM     11  O   UNL     1       0.058  11.071  22.920  0.00  0.00    +0.000 OA
ATOM     12  C   UNL     1      -0.246  11.215  21.739  0.00  0.00    +0.000 C 
ATOM     13  N   UNL     1      -0.372  10.112  20.881  0.00  0.00    +0.000 N 
ATOM     14  C   UNL     1      -0.275   8.766  21.488  0.00  0.00    +0.000 C 
ATOM     15  C   UNL     1       1.112   8.140  21.267  0.00  0.00    +0.000 C 
ATOM     16  N   UNL     1       1.494   8.273  19.870  0.00  0.00    +0.000 N 
ATOM     17  C   UNL     1       2.380   7.473  19.167  0.00  0.00    +0.000 C 
ATOM     18  O   UNL     1       2.886   6.426  19.530  0.00  0.00    +0.000 OA
ATOM     19  N   UNL     1       2.585   8.085  17.935  0.00  0.00    +0.000 N 
ATOM     20  C   UNL     1       1.725   9.229  17.773  0.00  0.00    +0.000 C 
ATOM     21  C   UNL     1       1.349   9.553  19.210  0.00  0.00    +0.000 C 
ATOM     22  C   UNL     1      -0.047  10.132  19.434  0.00  0.00    +0.000 C 
ATOM     23  H   UNL     1       3.119   7.615  17.214  0.00  0.00    +0.000 HD
ENDBRANCH   1  12
BRANCH   3  24
ATOM     24  C   UNL     1       1.125  15.263  19.220  0.00  0.00    +0.000 A 
ATOM     25  C   UNL     1       2.210  14.643  18.585  0.00  0.00    +0.000 A 
ATOM     26  C   UNL     1       3.131  15.394  17.855  0.00  0.00    +0.000 A 
ATOM     27  C   UNL     1       2.949  16.762  17.773  0.00  0.00    +0.000 A 
ATOM     28  N   UNL     1       1.932  17.414  18.369  0.00  0.00    +0.000 NA
ATOM     29  C   UNL     1       1.065  16.654  19.079  0.00  0.00    +0.000 A 
ENDBRANCH   3  24
TORSDOF 2
ENDMDL
