MODEL 1
REMARK VINA RESULT:      -8.3      0.000      0.000
REMARK  Name = 
REMARK  9 active torsions:
REMARK  status: ('A' for Active; 'I' for Inactive)
REMARK    1  A    between atoms: C_1  and  N_2
REMARK    2  A    between atoms: C_6  and  C_7
REMARK    3  A    between atoms: C_7  and  C_8
REMARK    4  A    between atoms: C_8  and  C_9
REMARK    5  A    between atoms: C_9  and  O_10
REMARK    6  A    between atoms: C_9  and  C_11
REMARK    7  A    between atoms: C_11  and  C_12
REMARK    8  A    between atoms: C_16  and  N_17
REMARK    9  A    between atoms: C_24  and  C_25
REMARK                            x       y       z     vdW  Elec       q    Type
REMARK                         _______ _______ _______ _____ _____    ______ ____
ROOT
ATOM      1  C   UNL     1       4.980   5.776  18.153  0.00  0.00    +0.000 A 
ATOM      2  C   UNL     1       4.315   4.556  17.990  0.00  0.00    +0.000 A 
ATOM      3  C   UNL     1       2.945   4.483  18.166  0.00  0.00    +0.000 A 
ATOM      4  C   UNL     1       2.232   5.630  18.520  0.00  0.00    +0.000 A 
ATOM      5  C   UNL     1       2.856   6.873  18.695  0.00  0.00    +0.000 A 
ATOM      6  C   UNL     1       4.239   6.937  18.468  0.00  0.00    +0.000 A 
ENDROOT
BRANCH   5   7
ATOM      7  N   UNL     1       2.112   7.999  19.153  0.00  0.00    +0.000 N 
ATOM      8  C   UNL     1       1.471   8.075  20.472  0.00  0.00    +0.000 C 
ATOM      9  C   UNL     1       0.682   9.352  20.395  0.00  0.00    +0.000 A 
ATOM     10  C   UNL     1       0.862   9.915  19.142  0.00  0.00    +0.000 A 
ATOM     11  C   UNL     1       0.242  11.077  18.762  0.00  0.00    +0.000 A 
ATOM     12  N   UNL     1      -0.568  11.738  19.614  0.00  0.00    +0.000 NA
ATOM     13  C   UNL     1      -0.735  11.195  20.853  0.00  0.00    +0.000 A 
ATOM     14  C   UNL     1      -0.140  10.011  21.301  0.00  0.00    +0.000 A 
ATOM     15  C   UNL     1       1.765   9.099  18.360  0.00  0.00    +0.000 C 
ATOM     16  O   UNL     1       2.092   9.432  17.240  0.00  0.00    +0.000 OA
BRANCH  14  17
ATOM     17  C   UNL     1      -0.410   9.563  22.700  0.00  0.00    +0.000 C 
ATOM     18  F   UNL     1      -1.006   8.345  22.784  0.00  0.00    +0.000 F 
ATOM     19  F   UNL     1       0.736   9.464  23.432  0.00  0.00    +0.000 F 
ATOM     20  F   UNL     1      -1.207  10.429  23.384  0.00  0.00    +0.000 F 
ENDBRANCH  14  17
ENDBRANCH   5   7
BRANCH   1  21
ATOM     21  C   UNL     1       6.489   5.799  18.083  0.00  0.00    +0.000 C 
BRANCH  21  22
ATOM     22  C   UNL     1       7.043   6.957  17.231  0.00  0.00    +0.000 C 
BRANCH  22  23
ATOM     23  O   UNL     1       7.726   6.427  16.089  0.00  0.00    +0.000 OA
ATOM     24  H   UNL     1       8.055   5.542  16.327  0.00  0.00    +0.000 HD
ENDBRANCH  22  23
BRANCH  22  25
ATOM     25  C   UNL     1       8.009   7.864  18.012  0.00  0.00    +0.000 C 
BRANCH  25  26
ATOM     26  C   UNL     1       7.999   9.318  17.531  0.00  0.00    +0.000 C 
BRANCH  26  32
ATOM     27  C   UNL     1       8.220  12.432  17.347  0.00  0.00    +0.000 C 
ATOM     28  N   UNL     1       8.825  11.586  18.340  0.00  0.00    +0.000 N 
ATOM     29  C   UNL     1       9.599  12.006  19.377  0.00  0.00    +0.000 A 
ATOM     30  N   UNL     1       9.933  10.979  20.121  0.00  0.00    +0.000 NA
ATOM     31  N   UNL     1       9.390   9.857  19.544  0.00  0.00    +0.000 NA
ATOM     32  C   UNL     1       8.732  10.224  18.461  0.00  0.00    +0.000 A 
ENDBRANCH  26  32
ENDBRANCH  25  26
ENDBRANCH  22  25
ENDBRANCH  21  22
ENDBRANCH   1  21
TORSDOF 8
ENDMDL
MODEL 2
REMARK VINA RESULT:      -8.1      3.463      4.329
REMARK  Name = 
REMARK  9 active torsions:
REMARK  status: ('A' for Active; 'I' for Inactive)
REMARK    1  A    between atoms: C_1  and  N_2
REMARK    2  A    between atoms: C_6  and  C_7
REMARK    3  A    between atoms: C_7  and  C_8
REMARK    4  A    between atoms: C_8  and  C_9
REMARK    5  A    between atoms: C_9  and  O_10
REMARK    6  A    between atoms: C_9  and  C_11
REMARK    7  A    between atoms: C_11  and  C_12
REMARK    8  A    between atoms: C_16  and  N_17
REMARK    9  A    between atoms: C_24  and  C_25
REMARK                            x       y       z     vdW  Elec       q    Type
REMARK                         _______ _______ _______ _____ _____    ______ ____
ROOT
ATOM      1  C   UNL     1       4.363   5.604  18.572  0.00  0.00    +0.000 A 
ATOM      2  C   UNL     1       3.954   4.471  19.284  0.00  0.00    +0.000 A 
ATOM      3  C   UNL     1       2.830   4.524  20.088  0.00  0.00    +0.000 A 
ATOM      4  C   UNL     1       2.114   5.717  20.198  0.00  0.00    +0.000 A 
ATOM      5  C   UNL     1       2.488   6.878  19.505  0.00  0.00    +0.000 A 
ATOM      6  C   UNL     1       3.603   6.792  18.660  0.00  0.00    +0.000 A 
ENDROOT
BRANCH   5   7
ATOM      7  N   UNL     1       1.792   8.103  19.719  0.00  0.00    +0.000 N 
ATOM      8  C   UNL     1       1.166   8.477  20.994  0.00  0.00    +0.000 C 
ATOM      9  C   UNL     1       0.428   9.742  20.652  0.00  0.00    +0.000 A 
ATOM     10  C   UNL     1       0.619  10.025  19.310  0.00  0.00    +0.000 A 
ATOM     11  C   UNL     1       0.042  11.106  18.696  0.00  0.00    +0.000 A 
ATOM     12  N   UNL     1      -0.734  11.962  19.392  0.00  0.00    +0.000 NA
ATOM     13  C   UNL     1      -0.911  11.695  20.717  0.00  0.00    +0.000 A 
ATOM     14  C   UNL     1      -0.360  10.607  21.402  0.00  0.00    +0.000 A 
ATOM     15  C   UNL     1       1.483   9.027  18.715  0.00  0.00    +0.000 C 
ATOM     16  O   UNL     1       1.813   9.107  17.550  0.00  0.00    +0.000 OA
BRANCH  14  17
ATOM     17  C   UNL     1      -0.636  10.471  22.863  0.00  0.00    +0.000 C 
ATOM     18  F   UNL     1      -1.635   9.599  23.157  0.00  0.00    +0.000 F 
ATOM     19  F   UNL     1       0.456  10.025  23.547  0.00  0.00    +0.000 F 
ATOM     20  F   UNL     1      -0.974  11.654  23.446  0.00  0.00    +0.000 F 
ENDBRANCH  14  17
ENDBRANCH   5   7
BRANCH   1  21
ATOM     21  C   UNL     1       5.664   5.554  17.807  0.00  0.00    +0.000 C 
BRANCH  21  22
ATOM     22  C   UNL     1       6.236   4.129  17.670  0.00  0.00    +0.000 C 
BRANCH  22  23
ATOM     23  O   UNL     1       7.664   4.175  17.782  0.00  0.00    +0.000 OA
ATOM     24  H   UNL     1       7.889   4.904  18.387  0.00  0.00    +0.000 HD
ENDBRANCH  22  23
BRANCH  22  25
ATOM     25  C   UNL     1       5.863   3.462  16.336  0.00  0.00    +0.000 C 
BRANCH  25  26
ATOM     26  C   UNL     1       5.423   4.461  15.261  0.00  0.00    +0.000 C 
BRANCH  26  32
ATOM     27  C   UNL     1       5.659   3.374  12.338  0.00  0.00    +0.000 C 
ATOM     28  N   UNL     1       6.591   4.238  13.010  0.00  0.00    +0.000 N 
ATOM     29  C   UNL     1       7.741   4.734  12.477  0.00  0.00    +0.000 A 
ATOM     30  N   UNL     1       8.317   5.534  13.343  0.00  0.00    +0.000 NA
ATOM     31  N   UNL     1       7.543   5.542  14.478  0.00  0.00    +0.000 NA
ATOM     32  C   UNL     1       6.508   4.747  14.280  0.00  0.00    +0.000 A 
ENDBRANCH  26  32
ENDBRANCH  25  26
ENDBRANCH  22  25
ENDBRANCH  21  22
ENDBRANCH   1  21
TORSDOF 8
ENDMDL
MODEL 3
REMARK VINA RESULT:      -8.1      3.802      5.026
REMARK  Name = 
REMARK  9 active torsions:
REMARK  status: ('A' for Active; 'I' for Inactive)
REMARK    1  A    between atoms: C_1  and  N_2
REMARK    2  A    between atoms: C_6  and  C_7
REMARK    3  A    between atoms: C_7  and  C_8
REMARK    4  A    between atoms: C_8  and  C_9
REMARK    5  A    between atoms: C_9  and  O_10
REMARK    6  A    between atoms: C_9  and  C_11
REMARK    7  A    between atoms: C_11  and  C_12
REMARK    8  A    between atoms: C_16  and  N_17
REMARK    9  A    between atoms: C_24  and  C_25
REMARK                            x       y       z     vdW  Elec       q    Type
REMARK                         _______ _______ _______ _____ _____    ______ ____
ROOT
ATOM      1  C   UNL     1       2.397   6.904  19.499  0.00  0.00    +0.000 A 
ATOM      2  C   UNL     1       3.150   7.049  18.329  0.00  0.00    +0.000 A 
ATOM      3  C   UNL     1       2.993   8.172  17.537  0.00  0.00    +0.000 A 
ATOM      4  C   UNL     1       2.070   9.153  17.903  0.00  0.00    +0.000 A 
ATOM      5  C   UNL     1       1.293   9.050  19.066  0.00  0.00    +0.000 A 
ATOM      6  C   UNL     1       1.499   7.926  19.880  0.00  0.00    +0.000 A 
ENDROOT
BRANCH   5   7
ATOM      7  N   UNL     1       0.292  10.021  19.356  0.00  0.00    +0.000 N 
ATOM      8  C   UNL     1       0.182  10.726  20.639  0.00  0.00    +0.000 C 
ATOM      9  C   UNL     1      -1.110  11.484  20.502  0.00  0.00    +0.000 A 
ATOM     10  C   UNL     1      -1.664  11.205  19.264  0.00  0.00    +0.000 A 
ATOM     11  C   UNL     1      -2.864  11.730  18.860  0.00  0.00    +0.000 A 
ATOM     12  N   UNL     1      -3.555  12.567  19.660  0.00  0.00    +0.000 NA
ATOM     13  C   UNL     1      -3.005  12.855  20.874  0.00  0.00    +0.000 A 
ATOM     14  C   UNL     1      -1.792  12.348  21.350  0.00  0.00    +0.000 A 
ATOM     15  C   UNL     1      -0.796  10.313  18.525  0.00  0.00    +0.000 C 
ATOM     16  O   UNL     1      -1.075   9.971  17.395  0.00  0.00    +0.000 OA
BRANCH  14  17
ATOM     17  C   UNL     1      -1.318  12.783  22.698  0.00  0.00    +0.000 C 
ATOM     18  F   UNL     1      -2.241  13.485  23.406  0.00  0.00    +0.000 F 
ATOM     19  F   UNL     1      -0.980  11.722  23.485  0.00  0.00    +0.000 F 
ATOM     20  F   UNL     1      -0.204  13.562  22.637  0.00  0.00    +0.000 F 
ENDBRANCH  14  17
ENDBRANCH   5   7
BRANCH   1  21
ATOM     21  C   UNL     1       2.494   5.610  20.273  0.00  0.00    +0.000 C 
BRANCH  21  22
ATOM     22  C   UNL     1       1.997   4.386  19.478  0.00  0.00    +0.000 C 
BRANCH  22  23
ATOM     23  O   UNL     1       0.902   3.778  20.172  0.00  0.00    +0.000 OA
ATOM     24  H   UNL     1       1.232   3.474  21.036  0.00  0.00    +0.000 HD
ENDBRANCH  22  23
BRANCH  22  25
ATOM     25  C   UNL     1       3.094   3.332  19.258  0.00  0.00    +0.000 C 
BRANCH  25  26
ATOM     26  C   UNL     1       3.787   3.452  17.897  0.00  0.00    +0.000 C 
BRANCH  26  32
ATOM     27  C   UNL     1       5.763   4.106  15.563  0.00  0.00    +0.000 C 
ATOM     28  N   UNL     1       6.020   4.249  16.970  0.00  0.00    +0.000 N 
ATOM     29  C   UNL     1       7.177   4.702  17.524  0.00  0.00    +0.000 A 
ATOM     30  N   UNL     1       7.047   4.762  18.829  0.00  0.00    +0.000 NA
ATOM     31  N   UNL     1       5.786   4.314  19.138  0.00  0.00    +0.000 NA
ATOM     32  C   UNL     1       5.172   3.991  18.015  0.00  0.00    +0.000 A 
ENDBRANCH  26  32
ENDBRANCH  25  26
ENDBRANCH  22  25
ENDBRANCH  21  22
ENDBRANCH   1  21
TORSDOF 8
ENDMDL
MODEL 4
REMARK VINA RESULT:      -8.0      3.348      4.388
REMARK  Name = 
REMARK  9 active torsions:
REMARK  status: ('A' for Active; 'I' for Inactive)
REMARK    1  A    between atoms: C_1  and  N_2
REMARK    2  A    between atoms: C_6  and  C_7
REMARK    3  A    between atoms: C_7  and  C_8
REMARK    4  A    between atoms: C_8  and  C_9
REMARK    5  A    between atoms: C_9  and  O_10
REMARK    6  A    between atoms: C_9  and  C_11
REMARK    7  A    between atoms: C_11  and  C_12
REMARK    8  A    between atoms: C_16  and  N_17
REMARK    9  A    between atoms: C_24  and  C_25
REMARK                            x       y       z     vdW  Elec       q    Type
REMARK                         _______ _______ _______ _____ _____    ______ ____
ROOT
ATOM      1  C   UNL     1       3.645   6.557  18.120  0.00  0.00    +0.000 A 
ATOM      2  C   UNL     1       3.666   5.569  19.110  0.00  0.00    +0.000 A 
ATOM      3  C   UNL     1       2.845   5.680  20.218  0.00  0.00    +0.000 A 
ATOM      4  C   UNL     1       2.007   6.789  20.349  0.00  0.00    +0.000 A 
ATOM      5  C   UNL     1       1.954   7.803  19.383  0.00  0.00    +0.000 A 
ATOM      6  C   UNL     1       2.760   7.651  18.245  0.00  0.00    +0.000 A 
ENDROOT
BRANCH   5   7
ATOM      7  N   UNL     1       1.161   8.967  19.598  0.00  0.00    +0.000 N 
ATOM      8  C   UNL     1       0.675   9.394  20.916  0.00  0.00    +0.000 C 
ATOM      9  C   UNL     1      -0.240  10.541  20.588  0.00  0.00    +0.000 A 
ATOM     10  C   UNL     1      -0.264  10.716  19.213  0.00  0.00    +0.000 A 
ATOM     11  C   UNL     1      -1.036  11.672  18.607  0.00  0.00    +0.000 A 
ATOM     12  N   UNL     1      -1.802  12.507  19.339  0.00  0.00    +0.000 NA
ATOM     13  C   UNL     1      -1.767  12.349  20.692  0.00  0.00    +0.000 A 
ATOM     14  C   UNL     1      -1.011  11.389  21.373  0.00  0.00    +0.000 A 
ATOM     15  C   UNL     1       0.618   9.759  18.580  0.00  0.00    +0.000 C 
ATOM     16  O   UNL     1       0.776   9.763  17.377  0.00  0.00    +0.000 OA
BRANCH  14  17
ATOM     17  C   UNL     1      -1.069  11.363  22.865  0.00  0.00    +0.000 C 
ATOM     18  F   UNL     1      -0.268  10.424  23.432  0.00  0.00    +0.000 F 
ATOM     19  F   UNL     1      -0.685  12.552  23.410  0.00  0.00    +0.000 F 
ATOM     20  F   UNL     1      -2.325  11.134  23.338  0.00  0.00    +0.000 F 
ENDBRANCH  14  17
ENDBRANCH   5   7
BRANCH   1  21
ATOM     21  C   UNL     1       4.645   6.476  16.989  0.00  0.00    +0.000 C 
BRANCH  21  22
ATOM     22  C   UNL     1       6.061   6.083  17.455  0.00  0.00    +0.000 C 
BRANCH  22  23
ATOM     23  O   UNL     1       7.001   7.069  17.010  0.00  0.00    +0.000 OA
ATOM     24  H   UNL     1       7.159   6.919  16.062  0.00  0.00    +0.000 HD
ENDBRANCH  22  23
BRANCH  22  25
ATOM     25  C   UNL     1       6.500   4.705  16.932  0.00  0.00    +0.000 C 
BRANCH  25  26
ATOM     26  C   UNL     1       5.874   4.342  15.582  0.00  0.00    +0.000 C 
BRANCH  26  32
ATOM     27  C   UNL     1       5.625   3.358  12.623  0.00  0.00    +0.000 C 
ATOM     28  N   UNL     1       6.631   4.239  13.153  0.00  0.00    +0.000 N 
ATOM     29  C   UNL     1       7.649   4.800  12.445  0.00  0.00    +0.000 A 
ATOM     30  N   UNL     1       8.341   5.596  13.225  0.00  0.00    +0.000 NA
ATOM     31  N   UNL     1       7.781   5.535  14.478  0.00  0.00    +0.000 NA
ATOM     32  C   UNL     1       6.757   4.705  14.436  0.00  0.00    +0.000 A 
ENDBRANCH  26  32
ENDBRANCH  25  26
ENDBRANCH  22  25
ENDBRANCH  21  22
ENDBRANCH   1  21
TORSDOF 8
ENDMDL
MODEL 5
REMARK VINA RESULT:      -8.0      4.235      5.501
REMARK  Name = 
REMARK  9 active torsions:
REMARK  status: ('A' for Active; 'I' for Inactive)
REMARK    1  A    between atoms: C_1  and  N_2
REMARK    2  A    between atoms: C_6  and  C_7
REMARK    3  A    between atoms: C_7  and  C_8
REMARK    4  A    between atoms: C_8  and  C_9
REMARK    5  A    between atoms: C_9  and  O_10
REMARK    6  A    between atoms: C_9  and  C_11
REMARK    7  A    between atoms: C_11  and  C_12
REMARK    8  A    between atoms: C_16  and  N_17
REMARK    9  A    between atoms: C_24  and  C_25
REMARK                            x       y       z     vdW  Elec       q    Type
REMARK                         _______ _______ _______ _____ _____    ______ ____
ROOT
ATOM      1  C   UNL     1       2.301   7.104  19.587  0.00  0.00    +0.000 A 
ATOM      2  C   UNL     1       2.959   7.318  18.371  0.00  0.00    +0.000 A 
ATOM      3  C   UNL     1       2.685   8.449  17.623  0.00  0.00    +0.000 A 
ATOM      4  C   UNL     1       1.739   9.368  18.080  0.00  0.00    +0.000 A 
ATOM      5  C   UNL     1       1.054   9.194  19.292  0.00  0.00    +0.000 A 
ATOM      6  C   UNL     1       1.378   8.065  20.058  0.00  0.00    +0.000 A 
ENDROOT
BRANCH   5   7
ATOM      7  N   UNL     1       0.025  10.101  19.677  0.00  0.00    +0.000 N 
ATOM      8  C   UNL     1      -1.223  10.290  18.927  0.00  0.00    +0.000 C 
ATOM      9  C   UNL     1      -1.869  11.453  19.627  0.00  0.00    +0.000 A 
ATOM     10  C   UNL     1      -1.042  11.872  20.657  0.00  0.00    +0.000 A 
ATOM     11  C   UNL     1      -1.351  12.938  21.460  0.00  0.00    +0.000 A 
ATOM     12  N   UNL     1      -2.500  13.622  21.289  0.00  0.00    +0.000 NA
ATOM     13  C   UNL     1      -3.324  13.203  20.287  0.00  0.00    +0.000 A 
ATOM     14  C   UNL     1      -3.066  12.130  19.426  0.00  0.00    +0.000 A 
ATOM     15  C   UNL     1       0.133  11.030  20.718  0.00  0.00    +0.000 C 
ATOM     16  O   UNL     1       0.974  11.199  21.577  0.00  0.00    +0.000 OA
BRANCH  14  17
ATOM     17  C   UNL     1      -4.086  11.786  18.391  0.00  0.00    +0.000 C 
ATOM     18  F   UNL     1      -4.590  10.530  18.512  0.00  0.00    +0.000 F 
ATOM     19  F   UNL     1      -5.161  12.622  18.440  0.00  0.00    +0.000 F 
ATOM     20  F   UNL     1      -3.601  11.886  17.123  0.00  0.00    +0.000 F 
ENDBRANCH  14  17
ENDBRANCH   5   7
BRANCH   1  21
ATOM     21  C   UNL     1       2.523   5.799  20.316  0.00  0.00    +0.000 C 
BRANCH  21  22
ATOM     22  C   UNL     1       2.084   4.565  19.504  0.00  0.00    +0.000 C 
BRANCH  22  23
ATOM     23  O   UNL     1       1.074   3.852  20.227  0.00  0.00    +0.000 OA
ATOM     24  H   UNL     1       1.442   3.621  21.098  0.00  0.00    +0.000 HD
ENDBRANCH  22  23
BRANCH  22  25
ATOM     25  C   UNL     1       3.248   3.607  19.198  0.00  0.00    +0.000 C 
BRANCH  25  26
ATOM     26  C   UNL     1       3.939   3.900  17.864  0.00  0.00    +0.000 C 
BRANCH  26  32
ATOM     27  C   UNL     1       6.146   4.008  15.649  0.00  0.00    +0.000 C 
ATOM     28  N   UNL     1       6.321   4.284  17.050  0.00  0.00    +0.000 N 
ATOM     29  C   UNL     1       7.488   4.646  17.648  0.00  0.00    +0.000 A 
ATOM     30  N   UNL     1       7.276   4.878  18.922  0.00  0.00    +0.000 NA
ATOM     31  N   UNL     1       5.947   4.637  19.170  0.00  0.00    +0.000 NA
ATOM     32  C   UNL     1       5.375   4.265  18.040  0.00  0.00    +0.000 A 
ENDBRANCH  26  32
ENDBRANCH  25  26
ENDBRANCH  22  25
ENDBRANCH  21  22
ENDBRANCH   1  21
TORSDOF 8
ENDMDL
MODEL 6
REMARK VINA RESULT:      -8.0      3.324      4.519
REMARK  Name = 
REMARK  9 active torsions:
REMARK  status: ('A' for Active; 'I' for Inactive)
REMARK    1  A    between atoms: C_1  and  N_2
REMARK    2  A    between atoms: C_6  and  C_7
REMARK    3  A    between atoms: C_7  and  C_8
REMARK    4  A    between atoms: C_8  and  C_9
REMARK    5  A    between atoms: C_9  and  O_10
REMARK    6  A    between atoms: C_9  and  C_11
REMARK    7  A    between atoms: C_11  and  C_12
REMARK    8  A    between atoms: C_16  and  N_17
REMARK    9  A    between atoms: C_24  and  C_25
REMARK                            x       y       z     vdW  Elec       q    Type
REMARK                         _______ _______ _______ _____ _____    ______ ____
ROOT
ATOM      1  C   UNL     1       1.759   3.078  19.485  0.00  0.00    +0.000 A 
ATOM      2  C   UNL     1       2.127   2.623  20.756  0.00  0.00    +0.000 A 
ATOM      3  C   UNL     1       2.342   3.527  21.781  0.00  0.00    +0.000 A 
ATOM      4  C   UNL     1       2.205   4.894  21.537  0.00  0.00    +0.000 A 
ATOM      5  C   UNL     1       1.840   5.395  20.279  0.00  0.00    +0.000 A 
ATOM      6  C   UNL     1       1.582   4.462  19.265  0.00  0.00    +0.000 A 
ENDROOT
BRANCH   5   7
ATOM      7  N   UNL     1       1.807   6.800  20.042  0.00  0.00    +0.000 N 
ATOM      8  C   UNL     1       1.113   7.760  20.909  0.00  0.00    +0.000 C 
ATOM      9  C   UNL     1       1.222   9.051  20.144  0.00  0.00    +0.000 A 
ATOM     10  C   UNL     1       1.900   8.814  18.959  0.00  0.00    +0.000 A 
ATOM     11  C   UNL     1       2.129   9.798  18.034  0.00  0.00    +0.000 A 
ATOM     12  N   UNL     1       1.712  11.062  18.252  0.00  0.00    +0.000 NA
ATOM     13  C   UNL     1       1.059  11.302  19.424  0.00  0.00    +0.000 A 
ATOM     14  C   UNL     1       0.784  10.343  20.406  0.00  0.00    +0.000 A 
ATOM     15  C   UNL     1       2.292   7.422  18.886  0.00  0.00    +0.000 C 
ATOM     16  O   UNL     1       2.934   7.007  17.944  0.00  0.00    +0.000 OA
BRANCH  14  17
ATOM     17  C   UNL     1       0.075  10.777  21.646  0.00  0.00    +0.000 C 
ATOM     18  F   UNL     1       0.208  12.100  21.923  0.00  0.00    +0.000 F 
ATOM     19  F   UNL     1      -1.267  10.550  21.570  0.00  0.00    +0.000 F 
ATOM     20  F   UNL     1       0.497  10.107  22.754  0.00  0.00    +0.000 F 
ENDBRANCH  14  17
ENDBRANCH   5   7
BRANCH   1  21
ATOM     21  C   UNL     1       1.659   2.080  18.355  0.00  0.00    +0.000 C 
BRANCH  21  22
ATOM     22  C   UNL     1       2.880   2.100  17.415  0.00  0.00    +0.000 C 
BRANCH  22  23
ATOM     23  O   UNL     1       3.974   1.415  18.037  0.00  0.00    +0.000 OA
ATOM     24  H   UNL     1       4.698   1.365  17.389  0.00  0.00    +0.000 HD
ENDBRANCH  22  23
BRANCH  22  25
ATOM     25  C   UNL     1       3.328   3.524  17.048  0.00  0.00    +0.000 C 
BRANCH  25  26
ATOM     26  C   UNL     1       4.828   3.633  16.760  0.00  0.00    +0.000 C 
BRANCH  26  32
ATOM     27  C   UNL     1       6.941   5.916  16.431  0.00  0.00    +0.000 C 
ATOM     28  N   UNL     1       6.497   5.328  17.666  0.00  0.00    +0.000 N 
ATOM     29  C   UNL     1       6.926   5.675  18.910  0.00  0.00    +0.000 A 
ATOM     30  N   UNL     1       6.271   4.982  19.811  0.00  0.00    +0.000 NA
ATOM     31  N   UNL     1       5.414   4.142  19.142  0.00  0.00    +0.000 NA
ATOM     32  C   UNL     1       5.562   4.343  17.846  0.00  0.00    +0.000 A 
ENDBRANCH  26  32
ENDBRANCH  25  26
ENDBRANCH  22  25
ENDBRANCH  21  22
ENDBRANCH   1  21
TORSDOF 8
ENDMDL
MODEL 7
REMARK VINA RESULT:      -8.0      3.887      4.670
REMARK  Name = 
REMARK  9 active torsions:
REMARK  status: ('A' for Active; 'I' for Inactive)
REMARK    1  A    between atoms: C_1  and  N_2
REMARK    2  A    between atoms: C_6  and  C_7
REMARK    3  A    between atoms: C_7  and  C_8
REMARK    4  A    between atoms: C_8  and  C_9
REMARK    5  A    between atoms: C_9  and  O_10
REMARK    6  A    between atoms: C_9  and  C_11
REMARK    7  A    between atoms: C_11  and  C_12
REMARK    8  A    between atoms: C_16  and  N_17
REMARK    9  A    between atoms: C_24  and  C_25
REMARK                            x       y       z     vdW  Elec       q    Type
REMARK                         _______ _______ _______ _____ _____    ______ ____
ROOT
ATOM      1  C   UNL     1       3.496   5.334  19.312  0.00  0.00    +0.000 A 
ATOM      2  C   UNL     1       2.927   4.404  20.189  0.00  0.00    +0.000 A 
ATOM      3  C   UNL     1       1.850   4.763  20.978  0.00  0.00    +0.000 A 
ATOM      4  C   UNL     1       1.342   6.062  20.906  0.00  0.00    +0.000 A 
ATOM      5  C   UNL     1       1.881   7.027  20.044  0.00  0.00    +0.000 A 
ATOM      6  C   UNL     1       2.944   6.631  19.218  0.00  0.00    +0.000 A 
ENDROOT
BRANCH   5   7
ATOM      7  N   UNL     1       1.402   8.368  20.069  0.00  0.00    +0.000 N 
ATOM      8  C   UNL     1       0.712   8.969  21.218  0.00  0.00    +0.000 C 
ATOM      9  C   UNL     1       0.262  10.302  20.687  0.00  0.00    +0.000 A 
ATOM     10  C   UNL     1       0.655  10.413  19.363  0.00  0.00    +0.000 A 
ATOM     11  C   UNL     1       0.361  11.511  18.598  0.00  0.00    +0.000 A 
ATOM     12  N   UNL     1      -0.320  12.552  19.118  0.00  0.00    +0.000 NA
ATOM     13  C   UNL     1      -0.695  12.453  20.424  0.00  0.00    +0.000 A 
ATOM     14  C   UNL     1      -0.435  11.359  21.258  0.00  0.00    +0.000 A 
ATOM     15  C   UNL     1       1.385   9.228  18.965  0.00  0.00    +0.000 C 
ATOM     16  O   UNL     1       1.857   9.134  17.851  0.00  0.00    +0.000 OA
BRANCH  14  17
ATOM     17  C   UNL     1      -0.898  11.419  22.676  0.00  0.00    +0.000 C 
ATOM     18  F   UNL     1      -0.291  10.518  23.492  0.00  0.00    +0.000 F 
ATOM     19  F   UNL     1      -0.664  12.639  23.237  0.00  0.00    +0.000 F 
ATOM     20  F   UNL     1      -2.237  11.210  22.801  0.00  0.00    +0.000 F 
ENDBRANCH  14  17
ENDBRANCH   5   7
BRANCH   1  21
ATOM     21  C   UNL     1       4.751   4.954  18.560  0.00  0.00    +0.000 C 
BRANCH  21  22
ATOM     22  C   UNL     1       4.468   4.276  17.206  0.00  0.00    +0.000 C 
BRANCH  22  23
ATOM     23  O   UNL     1       4.769   2.878  17.299  0.00  0.00    +0.000 OA
ATOM     24  H   UNL     1       3.940   2.388  17.159  0.00  0.00    +0.000 HD
ENDBRANCH  22  23
BRANCH  22  25
ATOM     25  C   UNL     1       5.283   4.884  16.052  0.00  0.00    +0.000 C 
BRANCH  25  26
ATOM     26  C   UNL     1       6.027   3.838  15.218  0.00  0.00    +0.000 C 
BRANCH  26  32
ATOM     27  C   UNL     1       5.775   3.123  12.183  0.00  0.00    +0.000 C 
ATOM     28  N   UNL     1       6.656   4.099  12.765  0.00  0.00    +0.000 N 
ATOM     29  C   UNL     1       7.532   4.885  12.082  0.00  0.00    +0.000 A 
ATOM     30  N   UNL     1       8.132   5.702  12.915  0.00  0.00    +0.000 NA
ATOM     31  N   UNL     1       7.658   5.428  14.175  0.00  0.00    +0.000 NA
ATOM     32  C   UNL     1       6.777   4.450  14.084  0.00  0.00    +0.000 A 
ENDBRANCH  26  32
ENDBRANCH  25  26
ENDBRANCH  22  25
ENDBRANCH  21  22
ENDBRANCH   1  21
TORSDOF 8
ENDMDL
MODEL 8
REMARK VINA RESULT:      -8.0      4.674      8.841
REMARK  Name = 
REMARK  9 active torsions:
REMARK  status: ('A' for Active; 'I' for Inactive)
REMARK    1  A    between atoms: C_1  and  N_2
REMARK    2  A    between atoms: C_6  and  C_7
REMARK    3  A    between atoms: C_7  and  C_8
REMARK    4  A    between atoms: C_8  and  C_9
REMARK    5  A    between atoms: C_9  and  O_10
REMARK    6  A    between atoms: C_9  and  C_11
REMARK    7  A    between atoms: C_11  and  C_12
REMARK    8  A    between atoms: C_16  and  N_17
REMARK    9  A    between atoms: C_24  and  C_25
REMARK                            x       y       z     vdW  Elec       q    Type
REMARK                         _______ _______ _______ _____ _____    ______ ____
ROOT
ATOM      1  C   UNL     1       0.464  10.789  20.117  0.00  0.00    +0.000 A 
ATOM      2  C   UNL     1       0.273  10.775  21.503  0.00  0.00    +0.000 A 
ATOM      3  C   UNL     1       0.643   9.667  22.244  0.00  0.00    +0.000 A 
ATOM      4  C   UNL     1       1.194   8.558  21.600  0.00  0.00    +0.000 A 
ATOM      5  C   UNL     1       1.402   8.527  20.214  0.00  0.00    +0.000 A 
ATOM      6  C   UNL     1       1.063   9.676  19.485  0.00  0.00    +0.000 A 
ENDROOT
BRANCH   5   7
ATOM      7  N   UNL     1       1.873   7.341  19.580  0.00  0.00    +0.000 N 
ATOM      8  C   UNL     1       1.623   5.986  20.088  0.00  0.00    +0.000 C 
ATOM      9  C   UNL     1       2.464   5.124  19.187  0.00  0.00    +0.000 A 
ATOM     10  C   UNL     1       3.125   5.935  18.279  0.00  0.00    +0.000 A 
ATOM     11  C   UNL     1       3.992   5.435  17.343  0.00  0.00    +0.000 A 
ATOM     12  N   UNL     1       4.226   4.110  17.255  0.00  0.00    +0.000 NA
ATOM     13  C   UNL     1       3.565   3.308  18.137  0.00  0.00    +0.000 A 
ATOM     14  C   UNL     1       2.675   3.752  19.121  0.00  0.00    +0.000 A 
ATOM     15  C   UNL     1       2.756   7.317  18.493  0.00  0.00    +0.000 C 
ATOM     16  O   UNL     1       3.192   8.195  17.777  0.00  0.00    +0.000 OA
BRANCH  14  17
ATOM     17  C   UNL     1       2.015   2.737  19.995  0.00  0.00    +0.000 C 
ATOM     18  F   UNL     1       0.688   2.956  20.188  0.00  0.00    +0.000 F 
ATOM     19  F   UNL     1       2.109   1.480  19.475  0.00  0.00    +0.000 F 
ATOM     20  F   UNL     1       2.577   2.664  21.232  0.00  0.00    +0.000 F 
ENDBRANCH  14  17
ENDBRANCH   5   7
BRANCH   1  21
ATOM     21  C   UNL     1      -0.068  11.957  19.320  0.00  0.00    +0.000 C 
BRANCH  21  22
ATOM     22  C   UNL     1      -1.379  11.639  18.573  0.00  0.00    +0.000 C 
BRANCH  22  23
ATOM     23  O   UNL     1      -1.440  12.408  17.367  0.00  0.00    +0.000 OA
ATOM     24  H   UNL     1      -0.668  12.168  16.824  0.00  0.00    +0.000 HD
ENDBRANCH  22  23
BRANCH  22  25
ATOM     25  C   UNL     1      -2.632  11.933  19.415  0.00  0.00    +0.000 C 
BRANCH  25  26
ATOM     26  C   UNL     1      -2.444  13.092  20.397  0.00  0.00    +0.000 C 
BRANCH  26  32
ATOM     27  C   UNL     1      -1.295  13.482  23.281  0.00  0.00    +0.000 C 
ATOM     28  N   UNL     1      -2.613  13.020  22.937  0.00  0.00    +0.000 N 
ATOM     29  C   UNL     1      -3.589  12.678  23.820  0.00  0.00    +0.000 A 
ATOM     30  N   UNL     1      -4.682  12.361  23.166  0.00  0.00    +0.000 NA
ATOM     31  N   UNL     1      -4.408  12.473  21.825  0.00  0.00    +0.000 NA
ATOM     32  C   UNL     1      -3.153  12.858  21.688  0.00  0.00    +0.000 A 
ENDBRANCH  26  32
ENDBRANCH  25  26
ENDBRANCH  22  25
ENDBRANCH  21  22
ENDBRANCH   1  21
TORSDOF 8
ENDMDL
MODEL 9
REMARK VINA RESULT:      -7.9      4.981      9.576
REMARK  Name = 
REMARK  9 active torsions:
REMARK  status: ('A' for Active; 'I' for Inactive)
REMARK    1  A    between atoms: C_1  and  N_2
REMARK    2  A    between atoms: C_6  and  C_7
REMARK    3  A    between atoms: C_7  and  C_8
REMARK    4  A    between atoms: C_8  and  C_9
REMARK    5  A    between atoms: C_9  and  O_10
REMARK    6  A    between atoms: C_9  and  C_11
REMARK    7  A    between atoms: C_11  and  C_12
REMARK    8  A    between atoms: C_16  and  N_17
REMARK    9  A    between atoms: C_24  and  C_25
REMARK                            x       y       z     vdW  Elec       q    Type
REMARK                         _______ _______ _______ _____ _____    ______ ____
ROOT
ATOM      1  C   UNL     1       0.188  10.489  19.432  0.00  0.00    +0.000 A 
ATOM      2  C   UNL     1      -0.121  10.511  20.797  0.00  0.00    +0.000 A 
ATOM      3  C   UNL     1       0.405   9.552  21.643  0.00  0.00    +0.000 A 
ATOM      4  C   UNL     1       1.234   8.554  21.127  0.00  0.00    +0.000 A 
ATOM      5  C   UNL     1       1.569   8.492  19.767  0.00  0.00    +0.000 A 
ATOM      6  C   UNL     1       1.063   9.499  18.932  0.00  0.00    +0.000 A 
ENDROOT
BRANCH   5   7
ATOM      7  N   UNL     1       2.336   7.403  19.261  0.00  0.00    +0.000 N 
ATOM      8  C   UNL     1       3.276   7.516  18.138  0.00  0.00    +0.000 C 
ATOM      9  C   UNL     1       3.678   6.089  17.885  0.00  0.00    +0.000 A 
ATOM     10  C   UNL     1       3.006   5.269  18.778  0.00  0.00    +0.000 A 
ATOM     11  C   UNL     1       3.147   3.906  18.773  0.00  0.00    +0.000 A 
ATOM     12  N   UNL     1       3.971   3.300  17.894  0.00  0.00    +0.000 NA
ATOM     13  C   UNL     1       4.645   4.105  17.025  0.00  0.00    +0.000 A 
ATOM     14  C   UNL     1       4.542   5.499  16.971  0.00  0.00    +0.000 A 
ATOM     15  C   UNL     1       2.181   6.069  19.657  0.00  0.00    +0.000 C 
ATOM     16  O   UNL     1       1.536   5.551  20.545  0.00  0.00    +0.000 OA
BRANCH  14  17
ATOM     17  C   UNL     1       5.368   6.236  15.969  0.00  0.00    +0.000 C 
ATOM     18  F   UNL     1       4.654   7.082  15.181  0.00  0.00    +0.000 F 
ATOM     19  F   UNL     1       6.322   7.006  16.565  0.00  0.00    +0.000 F 
ATOM     20  F   UNL     1       6.042   5.404  15.129  0.00  0.00    +0.000 F 
ENDBRANCH  14  17
ENDBRANCH   5   7
BRANCH   1  21
ATOM     21  C   UNL     1      -0.503  11.468  18.513  0.00  0.00    +0.000 C 
BRANCH  21  22
ATOM     22  C   UNL     1      -1.481  10.794  17.530  0.00  0.00    +0.000 C 
BRANCH  22  23
ATOM     23  O   UNL     1      -1.903  11.747  16.547  0.00  0.00    +0.000 OA
ATOM     24  H   UNL     1      -1.495  12.602  16.771  0.00  0.00    +0.000 HD
ENDBRANCH  22  23
BRANCH  22  25
ATOM     25  C   UNL     1      -2.724  10.216  18.227  0.00  0.00    +0.000 C 
BRANCH  25  26
ATOM     26  C   UNL     1      -4.035  10.844  17.747  0.00  0.00    +0.000 C 
BRANCH  26  32
ATOM     27  C   UNL     1      -6.941  11.998  17.854  0.00  0.00    +0.000 C 
ATOM     28  N   UNL     1      -5.850  12.337  18.727  0.00  0.00    +0.000 N 
ATOM     29  C   UNL     1      -5.904  13.223  19.758  0.00  0.00    +0.000 A 
ATOM     30  N   UNL     1      -4.749  13.245  20.381  0.00  0.00    +0.000 NA
ATOM     31  N   UNL     1      -3.912  12.374  19.728  0.00  0.00    +0.000 NA
ATOM     32  C   UNL     1      -4.574  11.837  18.720  0.00  0.00    +0.000 A 
ENDBRANCH  26  32
ENDBRANCH  25  26
ENDBRANCH  22  25
ENDBRANCH  21  22
ENDBRANCH   1  21
TORSDOF 8
ENDMDL
