MODEL 1
REMARK VINA RESULT:      -8.8      0.000      0.000
REMARK  Name = 
REMARK  6 active torsions:
REMARK  status: ('A' for Active; 'I' for Inactive)
REMARK    1  A    between atoms: C_2  and  C_3
REMARK    2  A    between atoms: C_3  and  N_4
REMARK    3  A    between atoms: C_7  and  C_8
REMARK    4  A    between atoms: C_12  and  C_13
REMARK    5  A    between atoms: N_19  and  C_20
REMARK    6  A    between atoms: C_22  and  N_23
REMARK                            x       y       z     vdW  Elec       q    Type
REMARK                         _______ _______ _______ _____ _____    ______ ____
ROOT
ATOM      1  C   UNL     1       2.829   3.810  20.439  0.00  0.00    +0.000 C 
ENDROOT
BRANCH   1   2
ATOM      2  N   UNL     1       3.374   3.506  19.139  0.00  0.00    +0.000 N 
ATOM      3  N   UNL     1       3.140   2.324  18.546  0.00  0.00    +0.000 NA
ATOM      4  N   UNL     1       3.880   2.349  17.445  0.00  0.00    +0.000 NA
ATOM      5  C   UNL     1       4.544   3.556  17.431  0.00  0.00    +0.000 A 
ATOM      6  N   UNL     1       4.254   4.306  18.511  0.00  0.00    +0.000 NA
BRANCH   5   7
ATOM      7  C   UNL     1       5.436   3.970  16.349  0.00  0.00    +0.000 A 
ATOM      8  C   UNL     1       6.534   4.802  16.617  0.00  0.00    +0.000 A 
ATOM      9  C   UNL     1       7.375   5.235  15.589  0.00  0.00    +0.000 A 
ATOM     10  C   UNL     1       7.138   4.832  14.278  0.00  0.00    +0.000 A 
ATOM     11  C   UNL     1       6.061   3.986  13.977  0.00  0.00    +0.000 A 
ATOM     12  C   UNL     1       5.210   3.566  15.022  0.00  0.00    +0.000 A 
BRANCH  11  13
ATOM     13  C   UNL     1       5.819   3.526  12.558  0.00  0.00    +0.000 C 
ATOM     14  F   UNL     1       5.979   2.183  12.388  0.00  0.00    +0.000 F 
ATOM     15  F   UNL     1       4.559   3.807  12.126  0.00  0.00    +0.000 F 
ATOM     16  F   UNL     1       6.663   4.115  11.665  0.00  0.00    +0.000 F 
ENDBRANCH  11  13
ENDBRANCH   5   7
ENDBRANCH   1   2
BRANCH   1  18
ATOM     17  O   UNL     1       0.714   4.877  20.486  0.00  0.00    +0.000 OA
ATOM     18  C   UNL     1       1.934   5.026  20.421  0.00  0.00    +0.000 C 
ATOM     19  N   UNL     1       2.567   6.245  20.232  0.00  0.00    +0.000 N 
ATOM     20  H   UNL     1       3.586   6.260  20.170  0.00  0.00    +0.000 HD
BRANCH  19  21
ATOM     21  C   UNL     1       1.949   7.524  20.150  0.00  0.00    +0.000 A 
ATOM     22  C   UNL     1       1.364   8.190  21.232  0.00  0.00    +0.000 A 
ATOM     23  C   UNL     1       0.774   9.454  21.050  0.00  0.00    +0.000 A 
ATOM     24  C   UNL     1       0.763  10.068  19.787  0.00  0.00    +0.000 A 
ATOM     25  C   UNL     1       1.350   9.408  18.707  0.00  0.00    +0.000 A 
ATOM     26  C   UNL     1       1.930   8.152  18.893  0.00  0.00    +0.000 A 
ATOM     27  F   UNL     1       2.483   7.537  17.839  0.00  0.00    +0.000 F 
BRANCH  23  28
ATOM     28  N   UNL     1       0.156  10.143  22.192  0.00  0.00    +0.000 N 
ATOM     29  O   UNL     1       0.151  11.384  22.185  0.00  0.00    +0.000 OA
ATOM     30  O   UNL     1      -0.324   9.447  23.096  0.00  0.00    +0.000 OA
ENDBRANCH  23  28
ENDBRANCH  19  21
ENDBRANCH   1  18
TORSDOF 6
ENDMDL
MODEL 2
REMARK VINA RESULT:      -8.6      1.280      1.979
REMARK  Name = 
REMARK  6 active torsions:
REMARK  status: ('A' for Active; 'I' for Inactive)
REMARK    1  A    between atoms: C_2  and  C_3
REMARK    2  A    between atoms: C_3  and  N_4
REMARK    3  A    between atoms: C_7  and  C_8
REMARK    4  A    between atoms: C_12  and  C_13
REMARK    5  A    between atoms: N_19  and  C_20
REMARK    6  A    between atoms: C_22  and  N_23
REMARK                            x       y       z     vdW  Elec       q    Type
REMARK                         _______ _______ _______ _____ _____    ______ ____
ROOT
ATOM      1  C   UNL     1       3.867   4.072  19.239  0.00  0.00    +0.000 C 
ENDROOT
BRANCH   1   2
ATOM      2  N   UNL     1       4.775   4.452  18.184  0.00  0.00    +0.000 N 
ATOM      3  N   UNL     1       5.658   5.450  18.352  0.00  0.00    +0.000 NA
ATOM      4  N   UNL     1       6.228   5.597  17.163  0.00  0.00    +0.000 NA
ATOM      5  C   UNL     1       5.647   4.676  16.319  0.00  0.00    +0.000 A 
ATOM      6  N   UNL     1       4.702   3.945  16.940  0.00  0.00    +0.000 NA
BRANCH   5   7
ATOM      7  C   UNL     1       6.039   4.506  14.921  0.00  0.00    +0.000 A 
ATOM      8  C   UNL     1       7.307   4.919  14.486  0.00  0.00    +0.000 A 
ATOM      9  C   UNL     1       7.683   4.797  13.146  0.00  0.00    +0.000 A 
ATOM     10  C   UNL     1       6.799   4.246  12.222  0.00  0.00    +0.000 A 
ATOM     11  C   UNL     1       5.531   3.805  12.625  0.00  0.00    +0.000 A 
ATOM     12  C   UNL     1       5.157   3.947  13.979  0.00  0.00    +0.000 A 
BRANCH  11  13
ATOM     13  C   UNL     1       4.582   3.182  11.628  0.00  0.00    +0.000 C 
ATOM     14  F   UNL     1       4.365   3.958  10.528  0.00  0.00    +0.000 F 
ATOM     15  F   UNL     1       5.032   1.987  11.155  0.00  0.00    +0.000 F 
ATOM     16  F   UNL     1       3.351   2.938  12.157  0.00  0.00    +0.000 F 
ENDBRANCH  11  13
ENDBRANCH   5   7
ENDBRANCH   1   2
BRANCH   1  18
ATOM     17  O   UNL     1       1.574   4.663  19.291  0.00  0.00    +0.000 OA
ATOM     18  C   UNL     1       2.734   5.055  19.408  0.00  0.00    +0.000 C 
ATOM     19  N   UNL     1       3.100   6.379  19.594  0.00  0.00    +0.000 N 
ATOM     20  H   UNL     1       4.094   6.606  19.658  0.00  0.00    +0.000 HD
BRANCH  19  21
ATOM     21  C   UNL     1       2.227   7.492  19.749  0.00  0.00    +0.000 A 
ATOM     22  C   UNL     1       1.565   7.817  20.938  0.00  0.00    +0.000 A 
ATOM     23  C   UNL     1       0.718   8.939  20.993  0.00  0.00    +0.000 A 
ATOM     24  C   UNL     1       0.525   9.750  19.863  0.00  0.00    +0.000 A 
ATOM     25  C   UNL     1       1.188   9.432  18.677  0.00  0.00    +0.000 A 
ATOM     26  C   UNL     1       2.023   8.314  18.628  0.00  0.00    +0.000 A 
ATOM     27  F   UNL     1       2.646   8.027  17.477  0.00  0.00    +0.000 F 
BRANCH  23  28
ATOM     28  N   UNL     1       0.021   9.268  22.244  0.00  0.00    +0.000 N 
ATOM     29  O   UNL     1      -0.932   8.549  22.582  0.00  0.00    +0.000 OA
ATOM     30  O   UNL     1       0.422  10.246  22.889  0.00  0.00    +0.000 OA
ENDBRANCH  23  28
ENDBRANCH  19  21
ENDBRANCH   1  18
TORSDOF 6
ENDMDL
MODEL 3
REMARK VINA RESULT:      -8.5      1.050      1.580
REMARK  Name = 
REMARK  6 active torsions:
REMARK  status: ('A' for Active; 'I' for Inactive)
REMARK    1  A    between atoms: C_2  and  C_3
REMARK    2  A    between atoms: C_3  and  N_4
REMARK    3  A    between atoms: C_7  and  C_8
REMARK    4  A    between atoms: C_12  and  C_13
REMARK    5  A    between atoms: N_19  and  C_20
REMARK    6  A    between atoms: C_22  and  N_23
REMARK                            x       y       z     vdW  Elec       q    Type
REMARK                         _______ _______ _______ _____ _____    ______ ____
ROOT
ATOM      1  C   UNL     1       3.355   3.608  19.500  0.00  0.00    +0.000 C 
ENDROOT
BRANCH   1   2
ATOM      2  N   UNL     1       4.486   3.809  18.628  0.00  0.00    +0.000 N 
ATOM      3  N   UNL     1       5.703   4.092  19.121  0.00  0.00    +0.000 NA
ATOM      4  N   UNL     1       6.452   4.327  18.052  0.00  0.00    +0.000 NA
ATOM      5  C   UNL     1       5.639   4.183  16.949  0.00  0.00    +0.000 A 
ATOM      6  N   UNL     1       4.374   3.873  17.290  0.00  0.00    +0.000 NA
BRANCH   5   7
ATOM      7  C   UNL     1       6.115   4.331  15.574  0.00  0.00    +0.000 A 
ATOM      8  C   UNL     1       7.248   5.110  15.296  0.00  0.00    +0.000 A 
ATOM      9  C   UNL     1       7.693   5.289  13.985  0.00  0.00    +0.000 A 
ATOM     10  C   UNL     1       7.019   4.679  12.930  0.00  0.00    +0.000 A 
ATOM     11  C   UNL     1       5.894   3.878  13.173  0.00  0.00    +0.000 A 
ATOM     12  C   UNL     1       5.446   3.715  14.502  0.00  0.00    +0.000 A 
BRANCH  11  13
ATOM     13  C   UNL     1       5.179   3.193  12.032  0.00  0.00    +0.000 C 
ATOM     14  F   UNL     1       3.833   3.090  12.219  0.00  0.00    +0.000 F 
ATOM     15  F   UNL     1       5.339   3.848  10.848  0.00  0.00    +0.000 F 
ATOM     16  F   UNL     1       5.622   1.922  11.821  0.00  0.00    +0.000 F 
ENDBRANCH  11  13
ENDBRANCH   5   7
ENDBRANCH   1   2
BRANCH   1  18
ATOM     17  O   UNL     1       1.222   4.626  19.656  0.00  0.00    +0.000 OA
ATOM     18  C   UNL     1       2.434   4.803  19.538  0.00  0.00    +0.000 C 
ATOM     19  N   UNL     1       3.031   6.038  19.335  0.00  0.00    +0.000 N 
ATOM     20  H   UNL     1       4.046   6.077  19.226  0.00  0.00    +0.000 HD
BRANCH  19  21
ATOM     21  C   UNL     1       2.382   7.303  19.296  0.00  0.00    +0.000 A 
ATOM     22  C   UNL     1       1.675   7.862  20.366  0.00  0.00    +0.000 A 
ATOM     23  C   UNL     1       1.064   9.121  20.231  0.00  0.00    +0.000 A 
ATOM     24  C   UNL     1       1.154   9.839  19.027  0.00  0.00    +0.000 A 
ATOM     25  C   UNL     1       1.862   9.287  17.959  0.00  0.00    +0.000 A 
ATOM     26  C   UNL     1       2.462   8.034  18.099  0.00  0.00    +0.000 A 
ATOM     27  F   UNL     1       3.134   7.523  17.058  0.00  0.00    +0.000 F 
BRANCH  23  28
ATOM     28  N   UNL     1       0.318   9.697  21.358  0.00  0.00    +0.000 N 
ATOM     29  O   UNL     1       0.186   9.005  22.379  0.00  0.00    +0.000 OA
ATOM     30  O   UNL     1      -0.139  10.840  21.225  0.00  0.00    +0.000 OA
ENDBRANCH  23  28
ENDBRANCH  19  21
ENDBRANCH   1  18
TORSDOF 6
ENDMDL
MODEL 4
REMARK VINA RESULT:      -8.4      6.071      8.025
REMARK  Name = 
REMARK  6 active torsions:
REMARK  status: ('A' for Active; 'I' for Inactive)
REMARK    1  A    between atoms: C_2  and  C_3
REMARK    2  A    between atoms: C_3  and  N_4
REMARK    3  A    between atoms: C_7  and  C_8
REMARK    4  A    between atoms: C_12  and  C_13
REMARK    5  A    between atoms: N_19  and  C_20
REMARK    6  A    between atoms: C_22  and  N_23
REMARK                            x       y       z     vdW  Elec       q    Type
REMARK                         _______ _______ _______ _____ _____    ______ ____
ROOT
ATOM      1  C   UNL     1       7.985   5.763  18.518  0.00  0.00    +0.000 C 
ENDROOT
BRANCH   1   2
ATOM      2  N   UNL     1       8.054   7.193  18.347  0.00  0.00    +0.000 N 
ATOM      3  N   UNL     1       7.457   7.800  17.309  0.00  0.00    +0.000 NA
ATOM      4  N   UNL     1       7.825   9.071  17.405  0.00  0.00    +0.000 NA
ATOM      5  C   UNL     1       8.648   9.171  18.506  0.00  0.00    +0.000 A 
ATOM      6  N   UNL     1       8.827   7.983  19.114  0.00  0.00    +0.000 NA
BRANCH   5   7
ATOM      7  C   UNL     1       9.231  10.432  18.962  0.00  0.00    +0.000 A 
ATOM      8  C   UNL     1       9.291  10.730  20.332  0.00  0.00    +0.000 A 
ATOM      9  C   UNL     1       9.812  11.945  20.781  0.00  0.00    +0.000 A 
ATOM     10  C   UNL     1      10.295  12.878  19.867  0.00  0.00    +0.000 A 
ATOM     11  C   UNL     1      10.268  12.605  18.492  0.00  0.00    +0.000 A 
ATOM     12  C   UNL     1       9.726  11.379  18.049  0.00  0.00    +0.000 A 
BRANCH  11  13
ATOM     13  C   UNL     1      10.816  13.605  17.501  0.00  0.00    +0.000 C 
ATOM     14  F   UNL     1      11.000  13.088  16.253  0.00  0.00    +0.000 F 
ATOM     15  F   UNL     1       9.998  14.681  17.338  0.00  0.00    +0.000 F 
ATOM     16  F   UNL     1      12.026  14.107  17.876  0.00  0.00    +0.000 F 
ENDBRANCH  11  13
ENDBRANCH   5   7
ENDBRANCH   1   2
BRANCH   1  18
ATOM     17  O   UNL     1       6.496   4.581  17.104  0.00  0.00    +0.000 OA
ATOM     18  C   UNL     1       6.631   5.202  18.158  0.00  0.00    +0.000 C 
ATOM     19  N   UNL     1       5.592   5.520  19.020  0.00  0.00    +0.000 N 
ATOM     20  H   UNL     1       5.804   6.060  19.861  0.00  0.00    +0.000 HD
BRANCH  19  21
ATOM     21  C   UNL     1       4.227   5.141  18.889  0.00  0.00    +0.000 A 
ATOM     22  C   UNL     1       3.656   4.020  19.502  0.00  0.00    +0.000 A 
ATOM     23  C   UNL     1       2.295   3.725  19.310  0.00  0.00    +0.000 A 
ATOM     24  C   UNL     1       1.487   4.545  18.505  0.00  0.00    +0.000 A 
ATOM     25  C   UNL     1       2.052   5.666  17.896  0.00  0.00    +0.000 A 
ATOM     26  C   UNL     1       3.405   5.951  18.087  0.00  0.00    +0.000 A 
ATOM     27  F   UNL     1       3.926   7.031  17.489  0.00  0.00    +0.000 F 
BRANCH  23  28
ATOM     28  N   UNL     1       1.705   2.542  19.952  0.00  0.00    +0.000 N 
ATOM     29  O   UNL     1       1.866   2.406  21.174  0.00  0.00    +0.000 OA
ATOM     30  O   UNL     1       1.082   1.746  19.237  0.00  0.00    +0.000 OA
ENDBRANCH  23  28
ENDBRANCH  19  21
ENDBRANCH   1  18
TORSDOF 6
ENDMDL
MODEL 5
REMARK VINA RESULT:      -8.4      3.466      4.807
REMARK  Name = 
REMARK  6 active torsions:
REMARK  status: ('A' for Active; 'I' for Inactive)
REMARK    1  A    between atoms: C_2  and  C_3
REMARK    2  A    between atoms: C_3  and  N_4
REMARK    3  A    between atoms: C_7  and  C_8
REMARK    4  A    between atoms: C_12  and  C_13
REMARK    5  A    between atoms: N_19  and  C_20
REMARK    6  A    between atoms: C_22  and  N_23
REMARK                            x       y       z     vdW  Elec       q    Type
REMARK                         _______ _______ _______ _____ _____    ______ ____
ROOT
ATOM      1  C   UNL     1       7.524   5.287  17.703  0.00  0.00    +0.000 C 
ENDROOT
BRANCH   1   2
ATOM      2  N   UNL     1       6.960   5.278  16.376  0.00  0.00    +0.000 N 
ATOM      3  N   UNL     1       6.196   6.292  15.938  0.00  0.00    +0.000 NA
ATOM      4  N   UNL     1       5.761   5.895  14.749  0.00  0.00    +0.000 NA
ATOM      5  C   UNL     1       6.281   4.639  14.527  0.00  0.00    +0.000 A 
ATOM      6  N   UNL     1       7.033   4.212  15.559  0.00  0.00    +0.000 NA
BRANCH   5   7
ATOM      7  C   UNL     1       6.052   3.880  13.298  0.00  0.00    +0.000 A 
ATOM      8  C   UNL     1       7.070   3.075  12.764  0.00  0.00    +0.000 A 
ATOM      9  C   UNL     1       6.879   2.372  11.573  0.00  0.00    +0.000 A 
ATOM     10  C   UNL     1       5.661   2.452  10.902  0.00  0.00    +0.000 A 
ATOM     11  C   UNL     1       4.616   3.232  11.418  0.00  0.00    +0.000 A 
ATOM     12  C   UNL     1       4.825   3.949  12.616  0.00  0.00    +0.000 A 
BRANCH  11  13
ATOM     13  C   UNL     1       3.285   3.298  10.706  0.00  0.00    +0.000 C 
ATOM     14  F   UNL     1       2.239   2.876  11.471  0.00  0.00    +0.000 F 
ATOM     15  F   UNL     1       2.967   4.561  10.309  0.00  0.00    +0.000 F 
ATOM     16  F   UNL     1       3.253   2.531   9.580  0.00  0.00    +0.000 F 
ENDBRANCH  11  13
ENDBRANCH   5   7
ENDBRANCH   1   2
BRANCH   1  18
ATOM     17  O   UNL     1       6.810   5.367  19.961  0.00  0.00    +0.000 OA
ATOM     18  C   UNL     1       6.468   5.278  18.782  0.00  0.00    +0.000 C 
ATOM     19  N   UNL     1       5.165   5.069  18.355  0.00  0.00    +0.000 N 
ATOM     20  H   UNL     1       4.988   4.987  17.353  0.00  0.00    +0.000 HD
BRANCH  19  21
ATOM     21  C   UNL     1       4.003   4.990  19.171  0.00  0.00    +0.000 A 
ATOM     22  C   UNL     1       3.708   3.922  20.025  0.00  0.00    +0.000 A 
ATOM     23  C   UNL     1       2.529   3.933  20.793  0.00  0.00    +0.000 A 
ATOM     24  C   UNL     1       1.633   5.012  20.719  0.00  0.00    +0.000 A 
ATOM     25  C   UNL     1       1.926   6.081  19.872  0.00  0.00    +0.000 A 
ATOM     26  C   UNL     1       3.095   6.061  19.109  0.00  0.00    +0.000 A 
ATOM     27  F   UNL     1       3.353   7.098  18.301  0.00  0.00    +0.000 F 
BRANCH  23  28
ATOM     28  N   UNL     1       2.224   2.803  21.681  0.00  0.00    +0.000 N 
ATOM     29  O   UNL     1       3.155   2.044  21.994  0.00  0.00    +0.000 OA
ATOM     30  O   UNL     1       1.056   2.671  22.068  0.00  0.00    +0.000 OA
ENDBRANCH  23  28
ENDBRANCH  19  21
ENDBRANCH   1  18
TORSDOF 6
ENDMDL
MODEL 6
REMARK VINA RESULT:      -8.2      1.070      1.453
REMARK  Name = 
REMARK  6 active torsions:
REMARK  status: ('A' for Active; 'I' for Inactive)
REMARK    1  A    between atoms: C_2  and  C_3
REMARK    2  A    between atoms: C_3  and  N_4
REMARK    3  A    between atoms: C_7  and  C_8
REMARK    4  A    between atoms: C_12  and  C_13
REMARK    5  A    between atoms: N_19  and  C_20
REMARK    6  A    between atoms: C_22  and  N_23
REMARK                            x       y       z     vdW  Elec       q    Type
REMARK                         _______ _______ _______ _____ _____    ______ ____
ROOT
ATOM      1  C   UNL     1       2.299   3.613  21.047  0.00  0.00    +0.000 C 
ENDROOT
BRANCH   1   2
ATOM      2  N   UNL     1       3.428   3.467  20.162  0.00  0.00    +0.000 N 
ATOM      3  N   UNL     1       4.327   2.484  20.337  0.00  0.00    +0.000 NA
ATOM      4  N   UNL     1       5.269   2.727  19.435  0.00  0.00    +0.000 NA
ATOM      5  C   UNL     1       4.895   3.865  18.756  0.00  0.00    +0.000 A 
ATOM      6  N   UNL     1       3.734   4.370  19.213  0.00  0.00    +0.000 NA
BRANCH   5   7
ATOM      7  C   UNL     1       5.668   4.434  17.652  0.00  0.00    +0.000 A 
ATOM      8  C   UNL     1       6.579   5.475  17.888  0.00  0.00    +0.000 A 
ATOM      9  C   UNL     1       7.298   6.051  16.839  0.00  0.00    +0.000 A 
ATOM     10  C   UNL     1       7.127   5.587  15.537  0.00  0.00    +0.000 A 
ATOM     11  C   UNL     1       6.239   4.536  15.268  0.00  0.00    +0.000 A 
ATOM     12  C   UNL     1       5.508   3.970  16.335  0.00  0.00    +0.000 A 
BRANCH  11  13
ATOM     13  C   UNL     1       6.073   4.013  13.860  0.00  0.00    +0.000 C 
ATOM     14  F   UNL     1       6.901   4.613  12.958  0.00  0.00    +0.000 F 
ATOM     15  F   UNL     1       6.328   2.679  13.766  0.00  0.00    +0.000 F 
ATOM     16  F   UNL     1       4.811   4.190  13.380  0.00  0.00    +0.000 F 
ENDBRANCH  11  13
ENDBRANCH   5   7
ENDBRANCH   1   2
BRANCH   1  18
ATOM     17  O   UNL     1       0.346   4.775  20.376  0.00  0.00    +0.000 OA
ATOM     18  C   UNL     1       1.507   4.869  20.772  0.00  0.00    +0.000 C 
ATOM     19  N   UNL     1       2.199   6.064  20.900  0.00  0.00    +0.000 N 
ATOM     20  H   UNL     1       3.170   6.034  21.217  0.00  0.00    +0.000 HD
BRANCH  19  21
ATOM     21  C   UNL     1       1.691   7.373  20.670  0.00  0.00    +0.000 A 
ATOM     22  C   UNL     1       1.028   8.143  21.632  0.00  0.00    +0.000 A 
ATOM     23  C   UNL     1       0.559   9.429  21.310  0.00  0.00    +0.000 A 
ATOM     24  C   UNL     1       0.747   9.962  20.024  0.00  0.00    +0.000 A 
ATOM     25  C   UNL     1       1.412   9.198  19.063  0.00  0.00    +0.000 A 
ATOM     26  C   UNL     1       1.871   7.921  19.389  0.00  0.00    +0.000 A 
ATOM     27  F   UNL     1       2.503   7.206  18.449  0.00  0.00    +0.000 F 
BRANCH  23  28
ATOM     28  N   UNL     1      -0.142  10.228  22.325  0.00  0.00    +0.000 N 
ATOM     29  O   UNL     1       0.097   9.987  23.518  0.00  0.00    +0.000 OA
ATOM     30  O   UNL     1      -0.934  11.095  21.932  0.00  0.00    +0.000 OA
ENDBRANCH  23  28
ENDBRANCH  19  21
ENDBRANCH   1  18
TORSDOF 6
ENDMDL
MODEL 7
REMARK VINA RESULT:      -8.2      5.190      7.269
REMARK  Name = 
REMARK  6 active torsions:
REMARK  status: ('A' for Active; 'I' for Inactive)
REMARK    1  A    between atoms: C_2  and  C_3
REMARK    2  A    between atoms: C_3  and  N_4
REMARK    3  A    between atoms: C_7  and  C_8
REMARK    4  A    between atoms: C_12  and  C_13
REMARK    5  A    between atoms: N_19  and  C_20
REMARK    6  A    between atoms: C_22  and  N_23
REMARK                            x       y       z     vdW  Elec       q    Type
REMARK                         _______ _______ _______ _____ _____    ______ ____
ROOT
ATOM      1  C   UNL     1       0.585  11.687  20.881  0.00  0.00    +0.000 C 
ENDROOT
BRANCH   1   2
ATOM      2  N   UNL     1       0.926  10.293  21.028  0.00  0.00    +0.000 N 
ATOM      3  N   UNL     1       1.142   9.754  22.239  0.00  0.00    +0.000 NA
ATOM      4  N   UNL     1       1.542   8.515  21.988  0.00  0.00    +0.000 NA
ATOM      5  C   UNL     1       1.559   8.365  20.619  0.00  0.00    +0.000 A 
ATOM      6  N   UNL     1       1.190   9.491  19.981  0.00  0.00    +0.000 NA
BRANCH   5   7
ATOM      7  C   UNL     1       1.916   7.114  19.951  0.00  0.00    +0.000 A 
ATOM      8  C   UNL     1       2.562   7.135  18.706  0.00  0.00    +0.000 A 
ATOM      9  C   UNL     1       2.877   5.949  18.040  0.00  0.00    +0.000 A 
ATOM     10  C   UNL     1       2.563   4.721  18.615  0.00  0.00    +0.000 A 
ATOM     11  C   UNL     1       1.935   4.662  19.867  0.00  0.00    +0.000 A 
ATOM     12  C   UNL     1       1.608   5.868  20.525  0.00  0.00    +0.000 A 
BRANCH  11  13
ATOM     13  C   UNL     1       1.618   3.329  20.504  0.00  0.00    +0.000 C 
ATOM     14  F   UNL     1       2.645   2.436  20.432  0.00  0.00    +0.000 F 
ATOM     15  F   UNL     1       1.317   3.442  21.827  0.00  0.00    +0.000 F 
ATOM     16  F   UNL     1       0.550   2.712  19.927  0.00  0.00    +0.000 F 
ENDBRANCH  11  13
ENDBRANCH   5   7
ENDBRANCH   1   2
BRANCH   1  18
ATOM     17  O   UNL     1      -0.090  12.907  18.965  0.00  0.00    +0.000 OA
ATOM     18  C   UNL     1      -0.313  11.941  19.694  0.00  0.00    +0.000 C 
ATOM     19  N   UNL     1      -1.407  11.098  19.568  0.00  0.00    +0.000 N 
ATOM     20  H   UNL     1      -1.514  10.335  20.239  0.00  0.00    +0.000 HD
BRANCH  19  21
ATOM     21  C   UNL     1      -2.410  11.147  18.561  0.00  0.00    +0.000 A 
ATOM     22  C   UNL     1      -3.623  11.832  18.686  0.00  0.00    +0.000 A 
ATOM     23  C   UNL     1      -4.556  11.820  17.633  0.00  0.00    +0.000 A 
ATOM     24  C   UNL     1      -4.287  11.126  16.442  0.00  0.00    +0.000 A 
ATOM     25  C   UNL     1      -3.076  10.446  16.312  0.00  0.00    +0.000 A 
ATOM     26  C   UNL     1      -2.157  10.458  17.362  0.00  0.00    +0.000 A 
ATOM     27  F   UNL     1      -1.002   9.794  17.215  0.00  0.00    +0.000 F 
BRANCH  23  28
ATOM     28  N   UNL     1      -5.831  12.537  17.777  0.00  0.00    +0.000 N 
ATOM     29  O   UNL     1      -6.754  12.235  17.006  0.00  0.00    +0.000 OA
ATOM     30  O   UNL     1      -5.911  13.402  18.659  0.00  0.00    +0.000 OA
ENDBRANCH  23  28
ENDBRANCH  19  21
ENDBRANCH   1  18
TORSDOF 6
ENDMDL
MODEL 8
REMARK VINA RESULT:      -8.2      4.297      9.142
REMARK  Name = 
REMARK  6 active torsions:
REMARK  status: ('A' for Active; 'I' for Inactive)
REMARK    1  A    between atoms: C_2  and  C_3
REMARK    2  A    between atoms: C_3  and  N_4
REMARK    3  A    between atoms: C_7  and  C_8
REMARK    4  A    between atoms: C_12  and  C_13
REMARK    5  A    between atoms: N_19  and  C_20
REMARK    6  A    between atoms: C_22  and  N_23
REMARK                            x       y       z     vdW  Elec       q    Type
REMARK                         _______ _______ _______ _____ _____    ______ ____
ROOT
ATOM      1  C   UNL     1       6.329   4.515  18.587  0.00  0.00    +0.000 C 
ENDROOT
BRANCH   1   2
ATOM      2  N   UNL     1       4.980   5.024  18.572  0.00  0.00    +0.000 N 
ATOM      3  N   UNL     1       3.958   4.272  18.132  0.00  0.00    +0.000 NA
ATOM      4  N   UNL     1       2.911   5.087  18.147  0.00  0.00    +0.000 NA
ATOM      5  C   UNL     1       3.358   6.312  18.591  0.00  0.00    +0.000 A 
ATOM      6  N   UNL     1       4.680   6.305  18.850  0.00  0.00    +0.000 NA
BRANCH   5   7
ATOM      7  C   UNL     1       2.484   7.469  18.777  0.00  0.00    +0.000 A 
ATOM      8  C   UNL     1       2.305   8.396  17.739  0.00  0.00    +0.000 A 
ATOM      9  C   UNL     1       1.501   9.524  17.914  0.00  0.00    +0.000 A 
ATOM     10  C   UNL     1       0.851   9.737  19.127  0.00  0.00    +0.000 A 
ATOM     11  C   UNL     1       0.992   8.821  20.179  0.00  0.00    +0.000 A 
ATOM     12  C   UNL     1       1.819   7.691  19.995  0.00  0.00    +0.000 A 
BRANCH  11  13
ATOM     13  C   UNL     1       0.266   9.037  21.486  0.00  0.00    +0.000 C 
ATOM     14  F   UNL     1      -0.362  10.244  21.565  0.00  0.00    +0.000 F 
ATOM     15  F   UNL     1      -0.699   8.102  21.708  0.00  0.00    +0.000 F 
ATOM     16  F   UNL     1       1.097   8.982  22.564  0.00  0.00    +0.000 F 
ENDBRANCH  11  13
ENDBRANCH   5   7
ENDBRANCH   1   2
BRANCH   1  18
ATOM     17  O   UNL     1       8.095   4.114  17.059  0.00  0.00    +0.000 OA
ATOM     18  C   UNL     1       6.890   4.319  17.199  0.00  0.00    +0.000 C 
ATOM     19  N   UNL     1       5.994   4.484  16.153  0.00  0.00    +0.000 N 
ATOM     20  H   UNL     1       5.015   4.672  16.374  0.00  0.00    +0.000 HD
BRANCH  19  21
ATOM     21  C   UNL     1       6.278   4.381  14.763  0.00  0.00    +0.000 A 
ATOM     22  C   UNL     1       5.620   3.514  13.884  0.00  0.00    +0.000 A 
ATOM     23  C   UNL     1       5.974   3.482  12.523  0.00  0.00    +0.000 A 
ATOM     24  C   UNL     1       6.987   4.317  12.023  0.00  0.00    +0.000 A 
ATOM     25  C   UNL     1       7.642   5.186  12.896  0.00  0.00    +0.000 A 
ATOM     26  C   UNL     1       7.289   5.209  14.247  0.00  0.00    +0.000 A 
ATOM     27  F   UNL     1       7.936   6.049  15.066  0.00  0.00    +0.000 F 
BRANCH  23  28
ATOM     28  N   UNL     1       5.281   2.563  11.609  0.00  0.00    +0.000 N 
ATOM     29  O   UNL     1       4.165   2.899  11.186  0.00  0.00    +0.000 OA
ATOM     30  O   UNL     1       5.851   1.505  11.313  0.00  0.00    +0.000 OA
ENDBRANCH  23  28
ENDBRANCH  19  21
ENDBRANCH   1  18
TORSDOF 6
ENDMDL
MODEL 9
REMARK VINA RESULT:      -8.1      4.059      5.481
REMARK  Name = 
REMARK  6 active torsions:
REMARK  status: ('A' for Active; 'I' for Inactive)
REMARK    1  A    between atoms: C_2  and  C_3
REMARK    2  A    between atoms: C_3  and  N_4
REMARK    3  A    between atoms: C_7  and  C_8
REMARK    4  A    between atoms: C_12  and  C_13
REMARK    5  A    between atoms: N_19  and  C_20
REMARK    6  A    between atoms: C_22  and  N_23
REMARK                            x       y       z     vdW  Elec       q    Type
REMARK                         _______ _______ _______ _____ _____    ______ ____
ROOT
ATOM      1  C   UNL     1       1.297  10.254  18.689  0.00  0.00    +0.000 C 
ENDROOT
BRANCH   1   2
ATOM      2  N   UNL     1       1.748   8.893  18.848  0.00  0.00    +0.000 N 
ATOM      3  N   UNL     1       1.685   8.272  20.037  0.00  0.00    +0.000 NA
ATOM      4  N   UNL     1       2.285   7.106  19.839  0.00  0.00    +0.000 NA
ATOM      5  C   UNL     1       2.698   7.081  18.525  0.00  0.00    +0.000 A 
ATOM      6  N   UNL     1       2.386   8.217  17.874  0.00  0.00    +0.000 NA
BRANCH   5   7
ATOM      7  C   UNL     1       3.373   5.936  17.916  0.00  0.00    +0.000 A 
ATOM      8  C   UNL     1       2.687   4.726  17.730  0.00  0.00    +0.000 A 
ATOM      9  C   UNL     1       3.329   3.613  17.182  0.00  0.00    +0.000 A 
ATOM     10  C   UNL     1       4.665   3.697  16.798  0.00  0.00    +0.000 A 
ATOM     11  C   UNL     1       5.375   4.896  16.951  0.00  0.00    +0.000 A 
ATOM     12  C   UNL     1       4.719   6.010  17.519  0.00  0.00    +0.000 A 
BRANCH  11  13
ATOM     13  C   UNL     1       6.816   4.996  16.509  0.00  0.00    +0.000 C 
ATOM     14  F   UNL     1       7.674   4.283  17.293  0.00  0.00    +0.000 F 
ATOM     15  F   UNL     1       7.006   4.538  15.241  0.00  0.00    +0.000 F 
ATOM     16  F   UNL     1       7.281   6.276  16.521  0.00  0.00    +0.000 F 
ENDBRANCH  11  13
ENDBRANCH   5   7
ENDBRANCH   1   2
BRANCH   1  18
ATOM     17  O   UNL     1      -0.731   9.910  19.865  0.00  0.00    +0.000 OA
ATOM     18  C   UNL     1      -0.196  10.392  18.868  0.00  0.00    +0.000 C 
ATOM     19  N   UNL     1      -0.881  10.986  17.819  0.00  0.00    +0.000 N 
ATOM     20  H   UNL     1      -0.345  11.338  17.023  0.00  0.00    +0.000 HD
BRANCH  19  21
ATOM     21  C   UNL     1      -2.284  11.206  17.732  0.00  0.00    +0.000 A 
ATOM     22  C   UNL     1      -3.068  11.728  18.766  0.00  0.00    +0.000 A 
ATOM     23  C   UNL     1      -4.451  11.906  18.586  0.00  0.00    +0.000 A 
ATOM     24  C   UNL     1      -5.067  11.569  17.370  0.00  0.00    +0.000 A 
ATOM     25  C   UNL     1      -4.288  11.052  16.334  0.00  0.00    +0.000 A 
ATOM     26  C   UNL     1      -2.916  10.873  16.522  0.00  0.00    +0.000 A 
ATOM     27  F   UNL     1      -2.190  10.372  15.514  0.00  0.00    +0.000 F 
BRANCH  23  28
ATOM     28  N   UNL     1      -5.268  12.449  19.681  0.00  0.00    +0.000 N 
ATOM     29  O   UNL     1      -6.140  11.715  20.171  0.00  0.00    +0.000 OA
ATOM     30  O   UNL     1      -5.040  13.608  20.052  0.00  0.00    +0.000 OA
ENDBRANCH  23  28
ENDBRANCH  19  21
ENDBRANCH   1  18
TORSDOF 6
ENDMDL
