MODEL 1
REMARK VINA RESULT:      -8.1      0.000      0.000
REMARK  Name = 
REMARK  5 active torsions:
REMARK  status: ('A' for Active; 'I' for Inactive)
REMARK    1  A    between atoms: C_2  and  C_18
REMARK    2  A    between atoms: N_3  and  C_4
REMARK    3  A    between atoms: C_8  and  S_9
REMARK    4  A    between atoms: S_9  and  N_12
REMARK    5  A    between atoms: C_23  and  N_24
REMARK                            x       y       z     vdW  Elec       q    Type
REMARK                         _______ _______ _______ _____ _____    ______ ____
ROOT
ATOM      1  O   UNL     1       1.463   6.899  17.575  0.00  0.00    +0.000 OA
ATOM      2  C   UNL     1       2.427   6.934  18.331  0.00  0.00    +0.000 C 
ATOM      3  N   UNL     1       2.536   7.709  19.468  0.00  0.00    +0.000 N 
ATOM      4  H   UNL     1       3.481   7.904  19.776  0.00  0.00    +0.000 HD
ENDROOT
BRANCH   3   5
ATOM      5  C   UNL     1       1.514   8.490  20.035  0.00  0.00    +0.000 A 
ATOM      6  C   UNL     1       1.233   8.265  21.387  0.00  0.00    +0.000 A 
ATOM      7  C   UNL     1       0.195   8.943  22.022  0.00  0.00    +0.000 A 
ATOM      8  C   UNL     1      -0.582   9.842  21.302  0.00  0.00    +0.000 A 
ATOM      9  C   UNL     1      -0.284  10.090  19.957  0.00  0.00    +0.000 A 
ATOM     10  C   UNL     1       0.761   9.417  19.311  0.00  0.00    +0.000 A 
BRANCH   9  11
ATOM     11  S   UNL     1      -1.223  11.321  19.089  0.00  0.00    +0.000 S 
ATOM     12  O   UNL     1      -1.902  12.137  20.071  0.00  0.00    +0.000 OA
ATOM     13  O   UNL     1      -0.357  11.922  18.095  0.00  0.00    +0.000 OA
BRANCH  11  14
ATOM     14  N   UNL     1      -2.395  10.417  18.240  0.00  0.00    +0.000 NA
ATOM     15  C   UNL     1      -2.042   9.955  16.877  0.00  0.00    +0.000 C 
ATOM     16  C   UNL     1      -2.690  10.952  15.942  0.00  0.00    +0.000 C 
ATOM     17  C   UNL     1      -3.982  11.317  16.647  0.00  0.00    +0.000 C 
ATOM     18  C   UNL     1      -3.716  11.105  18.135  0.00  0.00    +0.000 C 
ENDBRANCH  11  14
ENDBRANCH   9  11
ENDBRANCH   3   5
BRANCH   2  19
ATOM     19  C   UNL     1       3.632   6.109  18.039  0.00  0.00    +0.000 A 
ATOM     20  C   UNL     1       4.720   6.746  17.412  0.00  0.00    +0.000 A 
ATOM     21  C   UNL     1       5.938   6.075  17.271  0.00  0.00    +0.000 A 
ATOM     22  C   UNL     1       6.087   4.791  17.786  0.00  0.00    +0.000 A 
ATOM     23  C   UNL     1       5.008   4.157  18.406  0.00  0.00    +0.000 A 
ATOM     24  C   UNL     1       3.764   4.796  18.509  0.00  0.00    +0.000 A 
BRANCH  24  25
ATOM     25  N   UNL     1       2.683   4.020  18.959  0.00  0.00    +0.000 N 
ATOM     26  C   UNL     1       2.224   2.851  18.255  0.00  0.00    +0.000 C 
ATOM     27  C   UNL     1       0.857   2.620  18.860  0.00  0.00    +0.000 C 
ATOM     28  C   UNL     1       1.027   3.066  20.312  0.00  0.00    +0.000 C 
ATOM     29  C   UNL     1       2.115   4.116  20.224  0.00  0.00    +0.000 C 
ATOM     30  O   UNL     1       2.391   4.910  21.114  0.00  0.00    +0.000 OA
ENDBRANCH  24  25
ENDBRANCH   2  19
TORSDOF 5
ENDMDL
MODEL 2
REMARK VINA RESULT:      -8.1      1.696      2.043
REMARK  Name = 
REMARK  5 active torsions:
REMARK  status: ('A' for Active; 'I' for Inactive)
REMARK    1  A    between atoms: C_2  and  C_18
REMARK    2  A    between atoms: N_3  and  C_4
REMARK    3  A    between atoms: C_8  and  S_9
REMARK    4  A    between atoms: S_9  and  N_12
REMARK    5  A    between atoms: C_23  and  N_24
REMARK                            x       y       z     vdW  Elec       q    Type
REMARK                         _______ _______ _______ _____ _____    ______ ____
ROOT
ATOM      1  O   UNL     1       4.328   6.057  19.510  0.00  0.00    +0.000 OA
ATOM      2  C   UNL     1       3.753   6.229  18.442  0.00  0.00    +0.000 C 
ATOM      3  N   UNL     1       2.624   7.000  18.245  0.00  0.00    +0.000 N 
ATOM      4  H   UNL     1       2.073   6.769  17.428  0.00  0.00    +0.000 HD
ENDROOT
BRANCH   3   5
ATOM      5  C   UNL     1       2.015   7.830  19.203  0.00  0.00    +0.000 A 
ATOM      6  C   UNL     1       1.774   7.262  20.458  0.00  0.00    +0.000 A 
ATOM      7  C   UNL     1       1.117   7.983  21.453  0.00  0.00    +0.000 A 
ATOM      8  C   UNL     1       0.681   9.277  21.192  0.00  0.00    +0.000 A 
ATOM      9  C   UNL     1       0.947   9.856  19.946  0.00  0.00    +0.000 A 
ATOM     10  C   UNL     1       1.612   9.142  18.941  0.00  0.00    +0.000 A 
BRANCH   9  11
ATOM     11  S   UNL     1       0.475  11.546  19.674  0.00  0.00    +0.000 S 
ATOM     12  O   UNL     1       0.596  12.249  20.932  0.00  0.00    +0.000 OA
ATOM     13  O   UNL     1       1.165  12.016  18.490  0.00  0.00    +0.000 OA
BRANCH  11  14
ATOM     14  N   UNL     1      -1.181  11.447  19.272  0.00  0.00    +0.000 NA
ATOM     15  C   UNL     1      -1.714  10.114  18.907  0.00  0.00    +0.000 C 
ATOM     16  C   UNL     1      -1.740  10.100  17.396  0.00  0.00    +0.000 C 
ATOM     17  C   UNL     1      -2.090  11.529  17.029  0.00  0.00    +0.000 C 
ATOM     18  C   UNL     1      -1.586  12.387  18.186  0.00  0.00    +0.000 C 
ENDBRANCH  11  14
ENDBRANCH   9  11
ENDBRANCH   3   5
BRANCH   2  19
ATOM     19  C   UNL     1       4.250   5.554  17.211  0.00  0.00    +0.000 A 
ATOM     20  C   UNL     1       4.978   6.333  16.291  0.00  0.00    +0.000 A 
ATOM     21  C   UNL     1       5.618   5.724  15.209  0.00  0.00    +0.000 A 
ATOM     22  C   UNL     1       5.570   4.341  15.064  0.00  0.00    +0.000 A 
ATOM     23  C   UNL     1       4.847   3.567  15.973  0.00  0.00    +0.000 A 
ATOM     24  C   UNL     1       4.155   4.167  17.035  0.00  0.00    +0.000 A 
BRANCH  24  25
ATOM     25  N   UNL     1       3.292   3.348  17.781  0.00  0.00    +0.000 N 
ATOM     26  C   UNL     1       3.769   2.449  18.801  0.00  0.00    +0.000 C 
ATOM     27  C   UNL     1       2.583   1.533  19.009  0.00  0.00    +0.000 C 
ATOM     28  C   UNL     1       1.379   2.448  18.786  0.00  0.00    +0.000 C 
ATOM     29  C   UNL     1       1.910   3.487  17.822  0.00  0.00    +0.000 C 
ATOM     30  O   UNL     1       1.214   4.267  17.184  0.00  0.00    +0.000 OA
ENDBRANCH  24  25
ENDBRANCH   2  19
TORSDOF 5
ENDMDL
MODEL 3
REMARK VINA RESULT:      -8.0      1.008      1.348
REMARK  Name = 
REMARK  5 active torsions:
REMARK  status: ('A' for Active; 'I' for Inactive)
REMARK    1  A    between atoms: C_2  and  C_18
REMARK    2  A    between atoms: N_3  and  C_4
REMARK    3  A    between atoms: C_8  and  S_9
REMARK    4  A    between atoms: S_9  and  N_12
REMARK    5  A    between atoms: C_23  and  N_24
REMARK                            x       y       z     vdW  Elec       q    Type
REMARK                         _______ _______ _______ _____ _____    ______ ____
ROOT
ATOM      1  O   UNL     1       2.482   6.274  20.048  0.00  0.00    +0.000 OA
ATOM      2  C   UNL     1       2.673   6.796  18.956  0.00  0.00    +0.000 C 
ATOM      3  N   UNL     1       2.092   7.964  18.504  0.00  0.00    +0.000 N 
ATOM      4  H   UNL     1       2.057   8.076  17.499  0.00  0.00    +0.000 HD
ENDROOT
BRANCH   3   5
ATOM      5  C   UNL     1       1.287   8.832  19.263  0.00  0.00    +0.000 A 
ATOM      6  C   UNL     1       1.442   8.771  20.653  0.00  0.00    +0.000 A 
ATOM      7  C   UNL     1       0.644   9.545  21.493  0.00  0.00    +0.000 A 
ATOM      8  C   UNL     1      -0.328  10.376  20.948  0.00  0.00    +0.000 A 
ATOM      9  C   UNL     1      -0.463  10.459  19.557  0.00  0.00    +0.000 A 
ATOM     10  C   UNL     1       0.337   9.690  18.703  0.00  0.00    +0.000 A 
BRANCH   9  11
ATOM     11  S   UNL     1      -1.638  11.607  18.883  0.00  0.00    +0.000 S 
ATOM     12  O   UNL     1      -2.297  12.269  19.987  0.00  0.00    +0.000 OA
ATOM     13  O   UNL     1      -0.970  12.373  17.850  0.00  0.00    +0.000 OA
BRANCH  11  14
ATOM     14  N   UNL     1      -2.778  10.610  18.097  0.00  0.00    +0.000 NA
ATOM     15  C   UNL     1      -2.453  10.155  16.725  0.00  0.00    +0.000 C 
ATOM     16  C   UNL     1      -3.211  11.090  15.810  0.00  0.00    +0.000 C 
ATOM     17  C   UNL     1      -4.494  11.372  16.567  0.00  0.00    +0.000 C 
ATOM     18  C   UNL     1      -4.148  11.200  18.044  0.00  0.00    +0.000 C 
ENDBRANCH  11  14
ENDBRANCH   9  11
ENDBRANCH   3   5
BRANCH   2  19
ATOM     19  C   UNL     1       3.583   6.149  17.970  0.00  0.00    +0.000 A 
ATOM     20  C   UNL     1       4.429   6.986  17.218  0.00  0.00    +0.000 A 
ATOM     21  C   UNL     1       5.423   6.433  16.408  0.00  0.00    +0.000 A 
ATOM     22  C   UNL     1       5.604   5.053  16.376  0.00  0.00    +0.000 A 
ATOM     23  C   UNL     1       4.764   4.220  17.119  0.00  0.00    +0.000 A 
ATOM     24  C   UNL     1       3.728   4.757  17.896  0.00  0.00    +0.000 A 
BRANCH  24  25
ATOM     25  N   UNL     1       2.808   3.851  18.448  0.00  0.00    +0.000 N 
ATOM     26  C   UNL     1       3.052   3.158  19.687  0.00  0.00    +0.000 C 
ATOM     27  C   UNL     1       2.028   2.046  19.648  0.00  0.00    +0.000 C 
ATOM     28  C   UNL     1       0.838   2.679  18.927  0.00  0.00    +0.000 C 
ATOM     29  C   UNL     1       1.488   3.715  18.033  0.00  0.00    +0.000 C 
ATOM     30  O   UNL     1       0.931   4.281  17.102  0.00  0.00    +0.000 OA
ENDBRANCH  24  25
ENDBRANCH   2  19
TORSDOF 5
ENDMDL
MODEL 4
REMARK VINA RESULT:      -8.0      2.536      3.266
REMARK  Name = 
REMARK  5 active torsions:
REMARK  status: ('A' for Active; 'I' for Inactive)
REMARK    1  A    between atoms: C_2  and  C_18
REMARK    2  A    between atoms: N_3  and  C_4
REMARK    3  A    between atoms: C_8  and  S_9
REMARK    4  A    between atoms: S_9  and  N_12
REMARK    5  A    between atoms: C_23  and  N_24
REMARK                            x       y       z     vdW  Elec       q    Type
REMARK                         _______ _______ _______ _____ _____    ______ ____
ROOT
ATOM      1  O   UNL     1       4.104   6.168  19.649  0.00  0.00    +0.000 OA
ATOM      2  C   UNL     1       3.579   6.366  18.559  0.00  0.00    +0.000 C 
ATOM      3  N   UNL     1       2.494   7.187  18.321  0.00  0.00    +0.000 N 
ATOM      4  H   UNL     1       1.965   6.981  17.483  0.00  0.00    +0.000 HD
ENDROOT
BRANCH   3   5
ATOM      5  C   UNL     1       1.886   8.042  19.256  0.00  0.00    +0.000 A 
ATOM      6  C   UNL     1       1.588   7.489  20.506  0.00  0.00    +0.000 A 
ATOM      7  C   UNL     1       0.927   8.238  21.478  0.00  0.00    +0.000 A 
ATOM      8  C   UNL     1       0.544   9.545  21.198  0.00  0.00    +0.000 A 
ATOM      9  C   UNL     1       0.868  10.109  19.958  0.00  0.00    +0.000 A 
ATOM     10  C   UNL     1       1.537   9.366  18.977  0.00  0.00    +0.000 A 
BRANCH   9  11
ATOM     11  S   UNL     1       0.464  11.812  19.666  0.00  0.00    +0.000 S 
ATOM     12  O   UNL     1      -0.130  11.910  18.352  0.00  0.00    +0.000 OA
ATOM     13  O   UNL     1      -0.231  12.312  20.835  0.00  0.00    +0.000 OA
BRANCH  11  14
ATOM     14  N   UNL     1       1.983  12.590  19.627  0.00  0.00    +0.000 NA
ATOM     15  C   UNL     1       2.125  13.845  20.401  0.00  0.00    +0.000 C 
ATOM     16  C   UNL     1       1.960  14.955  19.387  0.00  0.00    +0.000 C 
ATOM     17  C   UNL     1       2.600  14.394  18.133  0.00  0.00    +0.000 C 
ATOM     18  C   UNL     1       2.469  12.877  18.245  0.00  0.00    +0.000 C 
ENDBRANCH  11  14
ENDBRANCH   9  11
ENDBRANCH   3   5
BRANCH   2  19
ATOM     19  C   UNL     1       4.093   5.671  17.347  0.00  0.00    +0.000 A 
ATOM     20  C   UNL     1       4.856   6.427  16.438  0.00  0.00    +0.000 A 
ATOM     21  C   UNL     1       5.510   5.797  15.377  0.00  0.00    +0.000 A 
ATOM     22  C   UNL     1       5.441   4.413  15.243  0.00  0.00    +0.000 A 
ATOM     23  C   UNL     1       4.683   3.661  16.142  0.00  0.00    +0.000 A 
ATOM     24  C   UNL     1       3.977   4.284  17.182  0.00  0.00    +0.000 A 
BRANCH  24  25
ATOM     25  N   UNL     1       3.082   3.487  17.914  0.00  0.00    +0.000 N 
ATOM     26  C   UNL     1       3.511   2.636  18.994  0.00  0.00    +0.000 C 
ATOM     27  C   UNL     1       2.323   1.718  19.178  0.00  0.00    +0.000 C 
ATOM     28  C   UNL     1       1.125   2.610  18.854  0.00  0.00    +0.000 C 
ATOM     29  C   UNL     1       1.699   3.615  17.876  0.00  0.00    +0.000 C 
ATOM     30  O   UNL     1       1.032   4.360  17.171  0.00  0.00    +0.000 OA
ENDBRANCH  24  25
ENDBRANCH   2  19
TORSDOF 5
ENDMDL
MODEL 5
REMARK VINA RESULT:      -8.0      0.992      1.092
REMARK  Name = 
REMARK  5 active torsions:
REMARK  status: ('A' for Active; 'I' for Inactive)
REMARK    1  A    between atoms: C_2  and  C_18
REMARK    2  A    between atoms: N_3  and  C_4
REMARK    3  A    between atoms: C_8  and  S_9
REMARK    4  A    between atoms: S_9  and  N_12
REMARK    5  A    between atoms: C_23  and  N_24
REMARK                            x       y       z     vdW  Elec       q    Type
REMARK                         _______ _______ _______ _____ _____    ______ ____
ROOT
ATOM      1  O   UNL     1       2.243   6.099  19.874  0.00  0.00    +0.000 OA
ATOM      2  C   UNL     1       2.613   6.735  18.894  0.00  0.00    +0.000 C 
ATOM      3  N   UNL     1       2.180   7.997  18.538  0.00  0.00    +0.000 N 
ATOM      4  H   UNL     1       2.287   8.237  17.560  0.00  0.00    +0.000 HD
ENDROOT
BRANCH   3   5
ATOM      5  C   UNL     1       1.346   8.830  19.304  0.00  0.00    +0.000 A 
ATOM      6  C   UNL     1       1.462   8.721  20.694  0.00  0.00    +0.000 A 
ATOM      7  C   UNL     1       0.633   9.458  21.538  0.00  0.00    +0.000 A 
ATOM      8  C   UNL     1      -0.332  10.297  20.995  0.00  0.00    +0.000 A 
ATOM      9  C   UNL     1      -0.430  10.428  19.605  0.00  0.00    +0.000 A 
ATOM     10  C   UNL     1       0.402   9.697  18.748  0.00  0.00    +0.000 A 
BRANCH   9  11
ATOM     11  S   UNL     1      -1.597  11.588  18.938  0.00  0.00    +0.000 S 
ATOM     12  O   UNL     1      -2.260  12.239  20.047  0.00  0.00    +0.000 OA
ATOM     13  O   UNL     1      -0.921  12.363  17.918  0.00  0.00    +0.000 OA
BRANCH  11  14
ATOM     14  N   UNL     1      -2.737  10.604  18.135  0.00  0.00    +0.000 NA
ATOM     15  C   UNL     1      -2.366  10.088  16.796  0.00  0.00    +0.000 C 
ATOM     16  C   UNL     1      -3.047  11.015  15.814  0.00  0.00    +0.000 C 
ATOM     17  C   UNL     1      -4.351  11.370  16.500  0.00  0.00    +0.000 C 
ATOM     18  C   UNL     1      -4.080  11.240  17.997  0.00  0.00    +0.000 C 
ENDBRANCH  11  14
ENDBRANCH   9  11
ENDBRANCH   3   5
BRANCH   2  19
ATOM     19  C   UNL     1       3.597   6.140  17.949  0.00  0.00    +0.000 A 
ATOM     20  C   UNL     1       4.446   7.022  17.253  0.00  0.00    +0.000 A 
ATOM     21  C   UNL     1       5.502   6.521  16.488  0.00  0.00    +0.000 A 
ATOM     22  C   UNL     1       5.739   5.150  16.446  0.00  0.00    +0.000 A 
ATOM     23  C   UNL     1       4.897   4.273  17.134  0.00  0.00    +0.000 A 
ATOM     24  C   UNL     1       3.801   4.756  17.864  0.00  0.00    +0.000 A 
BRANCH  24  25
ATOM     25  N   UNL     1       2.892   3.806  18.354  0.00  0.00    +0.000 N 
ATOM     26  C   UNL     1       1.658   3.494  17.678  0.00  0.00    +0.000 C 
ATOM     27  C   UNL     1       0.872   2.770  18.748  0.00  0.00    +0.000 C 
ATOM     28  C   UNL     1       1.945   2.020  19.536  0.00  0.00    +0.000 C 
ATOM     29  C   UNL     1       3.173   2.890  19.361  0.00  0.00    +0.000 C 
ATOM     30  O   UNL     1       4.195   2.797  20.028  0.00  0.00    +0.000 OA
ENDBRANCH  24  25
ENDBRANCH   2  19
TORSDOF 5
ENDMDL
MODEL 6
REMARK VINA RESULT:      -7.9      1.939      2.193
REMARK  Name = 
REMARK  5 active torsions:
REMARK  status: ('A' for Active; 'I' for Inactive)
REMARK    1  A    between atoms: C_2  and  C_18
REMARK    2  A    between atoms: N_3  and  C_4
REMARK    3  A    between atoms: C_8  and  S_9
REMARK    4  A    between atoms: S_9  and  N_12
REMARK    5  A    between atoms: C_23  and  N_24
REMARK                            x       y       z     vdW  Elec       q    Type
REMARK                         _______ _______ _______ _____ _____    ______ ____
ROOT
ATOM      1  O   UNL     1       4.997   6.545  18.988  0.00  0.00    +0.000 OA
ATOM      2  C   UNL     1       4.187   6.279  18.108  0.00  0.00    +0.000 C 
ATOM      3  N   UNL     1       2.852   6.632  18.103  0.00  0.00    +0.000 N 
ATOM      4  H   UNL     1       2.250   6.060  17.523  0.00  0.00    +0.000 HD
ENDROOT
BRANCH   3   5
ATOM      5  C   UNL     1       2.217   7.471  19.036  0.00  0.00    +0.000 A 
ATOM      6  C   UNL     1       1.885   6.897  20.267  0.00  0.00    +0.000 A 
ATOM      7  C   UNL     1       1.197   7.630  21.233  0.00  0.00    +0.000 A 
ATOM      8  C   UNL     1       0.821   8.940  20.964  0.00  0.00    +0.000 A 
ATOM      9  C   UNL     1       1.178   9.525  19.744  0.00  0.00    +0.000 A 
ATOM     10  C   UNL     1       1.875   8.799  18.769  0.00  0.00    +0.000 A 
BRANCH   9  11
ATOM     11  S   UNL     1       0.781  11.233  19.469  0.00  0.00    +0.000 S 
ATOM     12  O   UNL     1       1.070  11.959  20.686  0.00  0.00    +0.000 OA
ATOM     13  O   UNL     1       1.373  11.631  18.208  0.00  0.00    +0.000 OA
BRANCH  11  14
ATOM     14  N   UNL     1      -0.910  11.226  19.238  0.00  0.00    +0.000 NA
ATOM     15  C   UNL     1      -1.532   9.953  18.805  0.00  0.00    +0.000 C 
ATOM     16  C   UNL     1      -1.714  10.091  17.310  0.00  0.00    +0.000 C 
ATOM     17  C   UNL     1      -2.041  11.560  17.122  0.00  0.00    +0.000 C 
ATOM     18  C   UNL     1      -1.386  12.283  18.296  0.00  0.00    +0.000 C 
ENDBRANCH  11  14
ENDBRANCH   9  11
ENDBRANCH   3   5
BRANCH   2  19
ATOM     19  C   UNL     1       4.610   5.485  16.922  0.00  0.00    +0.000 A 
ATOM     20  C   UNL     1       5.256   6.171  15.876  0.00  0.00    +0.000 A 
ATOM     21  C   UNL     1       5.830   5.460  14.820  0.00  0.00    +0.000 A 
ATOM     22  C   UNL     1       5.800   4.068  14.823  0.00  0.00    +0.000 A 
ATOM     23  C   UNL     1       5.158   3.385  15.858  0.00  0.00    +0.000 A 
ATOM     24  C   UNL     1       4.530   4.086  16.899  0.00  0.00    +0.000 A 
BRANCH  24  25
ATOM     25  N   UNL     1       3.738   3.339  17.785  0.00  0.00    +0.000 N 
ATOM     26  C   UNL     1       2.513   2.700  17.377  0.00  0.00    +0.000 C 
ATOM     27  C   UNL     1       1.847   2.396  18.701  0.00  0.00    +0.000 C 
ATOM     28  C   UNL     1       3.020   2.091  19.632  0.00  0.00    +0.000 C 
ATOM     29  C   UNL     1       4.150   2.910  19.042  0.00  0.00    +0.000 C 
ATOM     30  O   UNL     1       5.203   3.158  19.613  0.00  0.00    +0.000 OA
ENDBRANCH  24  25
ENDBRANCH   2  19
TORSDOF 5
ENDMDL
MODEL 7
REMARK VINA RESULT:      -7.9      2.175      3.701
REMARK  Name = 
REMARK  5 active torsions:
REMARK  status: ('A' for Active; 'I' for Inactive)
REMARK    1  A    between atoms: C_2  and  C_18
REMARK    2  A    between atoms: N_3  and  C_4
REMARK    3  A    between atoms: C_8  and  S_9
REMARK    4  A    between atoms: S_9  and  N_12
REMARK    5  A    between atoms: C_23  and  N_24
REMARK                            x       y       z     vdW  Elec       q    Type
REMARK                         _______ _______ _______ _____ _____    ______ ____
ROOT
ATOM      1  O   UNL     1       1.989   5.624  18.029  0.00  0.00    +0.000 OA
ATOM      2  C   UNL     1       2.383   5.714  19.185  0.00  0.00    +0.000 C 
ATOM      3  N   UNL     1       2.458   6.876  19.927  0.00  0.00    +0.000 N 
ATOM      4  H   UNL     1       3.113   6.861  20.699  0.00  0.00    +0.000 HD
ENDROOT
BRANCH   3   5
ATOM      5  C   UNL     1       1.970   8.135  19.538  0.00  0.00    +0.000 A 
ATOM      6  C   UNL     1       2.233   8.527  18.221  0.00  0.00    +0.000 A 
ATOM      7  C   UNL     1       1.846   9.783  17.760  0.00  0.00    +0.000 A 
ATOM      8  C   UNL     1       1.206  10.666  18.622  0.00  0.00    +0.000 A 
ATOM      9  C   UNL     1       0.917  10.265  19.931  0.00  0.00    +0.000 A 
ATOM     10  C   UNL     1       1.296   9.002  20.403  0.00  0.00    +0.000 A 
BRANCH   9  11
ATOM     11  S   UNL     1       0.004  11.370  20.978  0.00  0.00    +0.000 S 
ATOM     12  O   UNL     1      -0.897  10.577  21.784  0.00  0.00    +0.000 OA
ATOM     13  O   UNL     1       0.948  12.280  21.596  0.00  0.00    +0.000 OA
BRANCH  11  14
ATOM     14  N   UNL     1      -0.926  12.293  19.885  0.00  0.00    +0.000 NA
ATOM     15  C   UNL     1      -1.208  13.700  20.251  0.00  0.00    +0.000 C 
ATOM     16  C   UNL     1      -2.605  13.685  20.829  0.00  0.00    +0.000 C 
ATOM     17  C   UNL     1      -3.321  12.628  20.011  0.00  0.00    +0.000 C 
ATOM     18  C   UNL     1      -2.235  11.665  19.539  0.00  0.00    +0.000 C 
ENDBRANCH  11  14
ENDBRANCH   9  11
ENDBRANCH   3   5
BRANCH   2  19
ATOM     19  C   UNL     1       2.863   4.501  19.904  0.00  0.00    +0.000 A 
ATOM     20  C   UNL     1       2.131   4.080  21.030  0.00  0.00    +0.000 A 
ATOM     21  C   UNL     1       2.424   2.858  21.641  0.00  0.00    +0.000 A 
ATOM     22  C   UNL     1       3.416   2.038  21.110  0.00  0.00    +0.000 A 
ATOM     23  C   UNL     1       4.145   2.455  19.995  0.00  0.00    +0.000 A 
ATOM     24  C   UNL     1       3.899   3.701  19.402  0.00  0.00    +0.000 A 
BRANCH  24  25
ATOM     25  N   UNL     1       4.804   4.132  18.419  0.00  0.00    +0.000 N 
ATOM     26  C   UNL     1       4.561   3.950  17.010  0.00  0.00    +0.000 C 
ATOM     27  C   UNL     1       5.930   4.179  16.410  0.00  0.00    +0.000 C 
ATOM     28  C   UNL     1       6.548   5.241  17.319  0.00  0.00    +0.000 C 
ATOM     29  C   UNL     1       5.872   4.990  18.651  0.00  0.00    +0.000 C 
ATOM     30  O   UNL     1       6.249   5.449  19.721  0.00  0.00    +0.000 OA
ENDBRANCH  24  25
ENDBRANCH   2  19
TORSDOF 5
ENDMDL
MODEL 8
REMARK VINA RESULT:      -7.8      2.355      2.925
REMARK  Name = 
REMARK  5 active torsions:
REMARK  status: ('A' for Active; 'I' for Inactive)
REMARK    1  A    between atoms: C_2  and  C_18
REMARK    2  A    between atoms: N_3  and  C_4
REMARK    3  A    between atoms: C_8  and  S_9
REMARK    4  A    between atoms: S_9  and  N_12
REMARK    5  A    between atoms: C_23  and  N_24
REMARK                            x       y       z     vdW  Elec       q    Type
REMARK                         _______ _______ _______ _____ _____    ______ ____
ROOT
ATOM      1  O   UNL     1       4.521   6.269  19.360  0.00  0.00    +0.000 OA
ATOM      2  C   UNL     1       3.924   6.297  18.291  0.00  0.00    +0.000 C 
ATOM      3  N   UNL     1       2.744   6.969  18.039  0.00  0.00    +0.000 N 
ATOM      4  H   UNL     1       2.200   6.622  17.259  0.00  0.00    +0.000 HD
ENDROOT
BRANCH   3   5
ATOM      5  C   UNL     1       2.093   7.849  18.921  0.00  0.00    +0.000 A 
ATOM      6  C   UNL     1       1.864   7.377  20.218  0.00  0.00    +0.000 A 
ATOM      7  C   UNL     1       1.169   8.150  21.146  0.00  0.00    +0.000 A 
ATOM      8  C   UNL     1       0.682   9.398  20.776  0.00  0.00    +0.000 A 
ATOM      9  C   UNL     1       0.935   9.883  19.488  0.00  0.00    +0.000 A 
ATOM     10  C   UNL     1       1.638   9.117  18.549  0.00  0.00    +0.000 A 
BRANCH   9  11
ATOM     11  S   UNL     1       0.396  11.523  19.074  0.00  0.00    +0.000 S 
ATOM     12  O   UNL     1       1.545  12.264  18.604  0.00  0.00    +0.000 OA
ATOM     13  O   UNL     1      -0.798  11.408  18.261  0.00  0.00    +0.000 OA
BRANCH  11  14
ATOM     14  N   UNL     1      -0.091  12.182  20.572  0.00  0.00    +0.000 NA
ATOM     15  C   UNL     1      -1.495  12.637  20.691  0.00  0.00    +0.000 C 
ATOM     16  C   UNL     1      -1.443  14.134  20.485  0.00  0.00    +0.000 C 
ATOM     17  C   UNL     1      -0.129  14.540  21.125  0.00  0.00    +0.000 C 
ATOM     18  C   UNL     1       0.771  13.310  21.033  0.00  0.00    +0.000 C 
ENDBRANCH  11  14
ENDBRANCH   9  11
ENDBRANCH   3   5
BRANCH   2  19
ATOM     19  C   UNL     1       4.451   5.537  17.124  0.00  0.00    +0.000 A 
ATOM     20  C   UNL     1       5.140   6.261  16.132  0.00  0.00    +0.000 A 
ATOM     21  C   UNL     1       5.806   5.587  15.106  0.00  0.00    +0.000 A 
ATOM     22  C   UNL     1       5.823   4.195  15.087  0.00  0.00    +0.000 A 
ATOM     23  C   UNL     1       5.138   3.474  16.068  0.00  0.00    +0.000 A 
ATOM     24  C   UNL     1       4.421   4.136  17.075  0.00  0.00    +0.000 A 
BRANCH  24  25
ATOM     25  N   UNL     1       3.599   3.349  17.897  0.00  0.00    +0.000 N 
ATOM     26  C   UNL     1       2.348   2.798  17.440  0.00  0.00    +0.000 C 
ATOM     27  C   UNL     1       1.670   2.408  18.734  0.00  0.00    +0.000 C 
ATOM     28  C   UNL     1       2.830   1.978  19.632  0.00  0.00    +0.000 C 
ATOM     29  C   UNL     1       3.992   2.797  19.110  0.00  0.00    +0.000 C 
ATOM     30  O   UNL     1       5.054   2.952  19.697  0.00  0.00    +0.000 OA
ENDBRANCH  24  25
ENDBRANCH   2  19
TORSDOF 5
ENDMDL
MODEL 9
REMARK VINA RESULT:      -7.8      2.142      3.820
REMARK  Name = 
REMARK  5 active torsions:
REMARK  status: ('A' for Active; 'I' for Inactive)
REMARK    1  A    between atoms: C_2  and  C_18
REMARK    2  A    between atoms: N_3  and  C_4
REMARK    3  A    between atoms: C_8  and  S_9
REMARK    4  A    between atoms: S_9  and  N_12
REMARK    5  A    between atoms: C_23  and  N_24
REMARK                            x       y       z     vdW  Elec       q    Type
REMARK                         _______ _______ _______ _____ _____    ______ ____
ROOT
ATOM      1  O   UNL     1       1.836   5.735  18.098  0.00  0.00    +0.000 OA
ATOM      2  C   UNL     1       2.263   5.832  19.242  0.00  0.00    +0.000 C 
ATOM      3  N   UNL     1       2.376   7.001  19.968  0.00  0.00    +0.000 N 
ATOM      4  H   UNL     1       3.052   6.985  20.722  0.00  0.00    +0.000 HD
ENDROOT
BRANCH   3   5
ATOM      5  C   UNL     1       1.897   8.264  19.578  0.00  0.00    +0.000 A 
ATOM      6  C   UNL     1       2.179   8.660  18.266  0.00  0.00    +0.000 A 
ATOM      7  C   UNL     1       1.802   9.920  17.805  0.00  0.00    +0.000 A 
ATOM      8  C   UNL     1       1.153  10.801  18.662  0.00  0.00    +0.000 A 
ATOM      9  C   UNL     1       0.844  10.395  19.965  0.00  0.00    +0.000 A 
ATOM     10  C   UNL     1       1.213   9.129  20.437  0.00  0.00    +0.000 A 
BRANCH   9  11
ATOM     11  S   UNL     1      -0.080  11.498  21.005  0.00  0.00    +0.000 S 
ATOM     12  O   UNL     1      -0.985  10.702  21.804  0.00  0.00    +0.000 OA
ATOM     13  O   UNL     1       0.855  12.411  21.629  0.00  0.00    +0.000 OA
BRANCH  11  14
ATOM     14  N   UNL     1      -1.005  12.417  19.903  0.00  0.00    +0.000 NA
ATOM     15  C   UNL     1      -1.438  13.765  20.337  0.00  0.00    +0.000 C 
ATOM     16  C   UNL     1      -2.867  13.591  20.799  0.00  0.00    +0.000 C 
ATOM     17  C   UNL     1      -3.423  12.540  19.857  0.00  0.00    +0.000 C 
ATOM     18  C   UNL     1      -2.223  11.708  19.412  0.00  0.00    +0.000 C 
ENDBRANCH  11  14
ENDBRANCH   9  11
ENDBRANCH   3   5
BRANCH   2  19
ATOM     19  C   UNL     1       2.744   4.621  19.962  0.00  0.00    +0.000 A 
ATOM     20  C   UNL     1       1.908   4.080  20.958  0.00  0.00    +0.000 A 
ATOM     21  C   UNL     1       2.220   2.852  21.544  0.00  0.00    +0.000 A 
ATOM     22  C   UNL     1       3.337   2.141  21.115  0.00  0.00    +0.000 A 
ATOM     23  C   UNL     1       4.169   2.676  20.129  0.00  0.00    +0.000 A 
ATOM     24  C   UNL     1       3.899   3.932  19.567  0.00  0.00    +0.000 A 
BRANCH  24  25
ATOM     25  N   UNL     1       4.887   4.486  18.737  0.00  0.00    +0.000 N 
ATOM     26  C   UNL     1       6.033   5.186  19.259  0.00  0.00    +0.000 C 
ATOM     27  C   UNL     1       6.551   5.919  18.042  0.00  0.00    +0.000 C 
ATOM     28  C   UNL     1       6.244   4.963  16.889  0.00  0.00    +0.000 C 
ATOM     29  C   UNL     1       5.025   4.211  17.382  0.00  0.00    +0.000 C 
ATOM     30  O   UNL     1       4.298   3.524  16.677  0.00  0.00    +0.000 OA
ENDBRANCH  24  25
ENDBRANCH   2  19
TORSDOF 5
ENDMDL
