MODEL 1
REMARK VINA RESULT:     -10.0      0.000      0.000
REMARK  Name = 
REMARK  7 active torsions:
REMARK  status: ('A' for Active; 'I' for Inactive)
REMARK    1  A    between atoms: C_1  and  N_2
REMARK    2  A    between atoms: C_6  and  C_7
REMARK    3  A    between atoms: C_7  and  C_8
REMARK    4  A    between atoms: C_8  and  C_9
REMARK    5  A    between atoms: C_13  and  N_14
REMARK    6  A    between atoms: C_15  and  C_17
REMARK    7  A    between atoms: C_22  and  C_23
REMARK                            x       y       z     vdW  Elec       q    Type
REMARK                         _______ _______ _______ _____ _____    ______ ____
ROOT
ATOM      1  C   UNL     1       4.507   4.899  17.213  0.00  0.00    +0.000 A 
ATOM      2  C   UNL     1       3.703   3.749  17.064  0.00  0.00    +0.000 A 
ATOM      3  C   UNL     1       2.376   3.725  17.478  0.00  0.00    +0.000 A 
ATOM      4  C   UNL     1       1.818   4.851  18.073  0.00  0.00    +0.000 A 
ATOM      5  C   UNL     1       2.577   6.006  18.265  0.00  0.00    +0.000 A 
ATOM      6  C   UNL     1       3.892   6.032  17.791  0.00  0.00    +0.000 A 
ENDROOT
BRANCH   1   7
ATOM      7  C   UNL     1       6.053   4.900  16.782  0.00  0.00    +0.000 C 
ATOM      8  C   UNL     1       6.769   6.276  16.659  0.00  0.00    +0.000 C 
ATOM      9  O   UNL     1       7.722   5.944  17.691  0.00  0.00    +0.000 OA
ATOM     10  C   UNL     1       7.070   4.687  17.942  0.00  0.00    +0.000 C 
BRANCH   7  11
ATOM     11  C   UNL     1       6.293   3.920  15.616  0.00  0.00    +0.000 C 
BRANCH  11  17
ATOM     12  C   UNL     1       5.718   3.331  12.552  0.00  0.00    +0.000 C 
ATOM     13  N   UNL     1       6.675   4.249  13.102  0.00  0.00    +0.000 N 
ATOM     14  C   UNL     1       7.543   5.005  12.370  0.00  0.00    +0.000 A 
ATOM     15  N   UNL     1       8.261   5.752  13.171  0.00  0.00    +0.000 NA
ATOM     16  N   UNL     1       7.876   5.469  14.457  0.00  0.00    +0.000 NA
ATOM     17  C   UNL     1       6.928   4.552  14.419  0.00  0.00    +0.000 A 
ENDBRANCH  11  17
ENDBRANCH   7  11
ENDBRANCH   1   7
BRANCH   5  18
ATOM     18  N   UNL     1       2.092   7.149  18.946  0.00  0.00    +0.000 N 
ATOM     19  C   UNL     1       1.984   8.402  18.375  0.00  0.00    +0.000 C 
ATOM     20  O   UNL     1       2.258   8.689  17.214  0.00  0.00    +0.000 OA
ATOM     21  H   UNL     1       1.644   6.983  19.839  0.00  0.00    +0.000 HD
BRANCH  19  22
ATOM     22  C   UNL     1       1.459   9.506  19.219  0.00  0.00    +0.000 A 
ATOM     23  C   UNL     1       1.240  10.802  18.756  0.00  0.00    +0.000 A 
ATOM     24  C   UNL     1       0.585  11.709  19.586  0.00  0.00    +0.000 A 
ATOM     25  F   UNL     1       0.341  12.947  19.135  0.00  0.00    +0.000 F 
ATOM     26  C   UNL     1       0.126  11.349  20.853  0.00  0.00    +0.000 A 
ATOM     27  C   UNL     1       0.343  10.052  21.330  0.00  0.00    +0.000 A 
ATOM     28  C   UNL     1       1.040   9.152  20.516  0.00  0.00    +0.000 A 
BRANCH  27  29
ATOM     29  C   UNL     1      -0.200   9.571  22.652  0.00  0.00    +0.000 C 
ATOM     30  F   UNL     1      -1.000  10.479  23.273  0.00  0.00    +0.000 F 
ATOM     31  F   UNL     1      -0.950   8.443  22.517  0.00  0.00    +0.000 F 
ATOM     32  F   UNL     1       0.785   9.263  23.538  0.00  0.00    +0.000 F 
ENDBRANCH  27  29
ENDBRANCH  19  22
ENDBRANCH   5  18
TORSDOF 6
ENDMDL
MODEL 2
REMARK VINA RESULT:      -9.2      0.755      1.255
REMARK  Name = 
REMARK  7 active torsions:
REMARK  status: ('A' for Active; 'I' for Inactive)
REMARK    1  A    between atoms: C_1  and  N_2
REMARK    2  A    between atoms: C_6  and  C_7
REMARK    3  A    between atoms: C_7  and  C_8
REMARK    4  A    between atoms: C_8  and  C_9
REMARK    5  A    between atoms: C_13  and  N_14
REMARK    6  A    between atoms: C_15  and  C_17
REMARK    7  A    between atoms: C_22  and  C_23
REMARK                            x       y       z     vdW  Elec       q    Type
REMARK                         _______ _______ _______ _____ _____    ______ ____
ROOT
ATOM      1  C   UNL     1       4.568   5.299  17.101  0.00  0.00    +0.000 A 
ATOM      2  C   UNL     1       3.868   4.075  17.088  0.00  0.00    +0.000 A 
ATOM      3  C   UNL     1       2.603   3.949  17.652  0.00  0.00    +0.000 A 
ATOM      4  C   UNL     1       2.008   5.046  18.265  0.00  0.00    +0.000 A 
ATOM      5  C   UNL     1       2.668   6.274  18.326  0.00  0.00    +0.000 A 
ATOM      6  C   UNL     1       3.915   6.397  17.705  0.00  0.00    +0.000 A 
ENDROOT
BRANCH   1   7
ATOM      7  C   UNL     1       6.050   5.421  16.497  0.00  0.00    +0.000 C 
ATOM      8  C   UNL     1       7.158   6.019  17.412  0.00  0.00    +0.000 C 
ATOM      9  O   UNL     1       7.936   4.804  17.371  0.00  0.00    +0.000 OA
ATOM     10  C   UNL     1       6.922   4.136  16.600  0.00  0.00    +0.000 C 
BRANCH   7  11
ATOM     11  C   UNL     1       6.005   5.976  15.059  0.00  0.00    +0.000 C 
BRANCH  11  17
ATOM     12  C   UNL     1       8.347   5.703  12.936  0.00  0.00    +0.000 C 
ATOM     13  N   UNL     1       7.193   4.860  13.080  0.00  0.00    +0.000 N 
ATOM     14  C   UNL     1       6.894   3.802  12.273  0.00  0.00    +0.000 A 
ATOM     15  N   UNL     1       5.791   3.230  12.687  0.00  0.00    +0.000 NA
ATOM     16  N   UNL     1       5.341   3.937  13.774  0.00  0.00    +0.000 NA
ATOM     17  C   UNL     1       6.179   4.930  14.005  0.00  0.00    +0.000 A 
ENDBRANCH  11  17
ENDBRANCH   7  11
ENDBRANCH   1   7
BRANCH   5  18
ATOM     18  N   UNL     1       2.154   7.398  19.016  0.00  0.00    +0.000 N 
ATOM     19  C   UNL     1       1.888   8.616  18.421  0.00  0.00    +0.000 C 
ATOM     20  O   UNL     1       2.029   8.880  17.231  0.00  0.00    +0.000 OA
ATOM     21  H   UNL     1       1.806   7.230  19.952  0.00  0.00    +0.000 HD
BRANCH  19  22
ATOM     22  C   UNL     1       1.352   9.705  19.277  0.00  0.00    +0.000 A 
ATOM     23  C   UNL     1       1.104  10.999  18.825  0.00  0.00    +0.000 A 
ATOM     24  C   UNL     1       0.442  11.889  19.668  0.00  0.00    +0.000 A 
ATOM     25  F   UNL     1       0.169  13.124  19.227  0.00  0.00    +0.000 F 
ATOM     26  C   UNL     1       0.003  11.512  20.937  0.00  0.00    +0.000 A 
ATOM     27  C   UNL     1       0.249  10.217  21.404  0.00  0.00    +0.000 A 
ATOM     28  C   UNL     1       0.954   9.335  20.576  0.00  0.00    +0.000 A 
BRANCH  27  29
ATOM     29  C   UNL     1      -0.270   9.718  22.728  0.00  0.00    +0.000 C 
ATOM     30  F   UNL     1      -1.078  10.607  23.365  0.00  0.00    +0.000 F 
ATOM     31  F   UNL     1      -1.004   8.578  22.594  0.00  0.00    +0.000 F 
ATOM     32  F   UNL     1       0.729   9.419  23.600  0.00  0.00    +0.000 F 
ENDBRANCH  27  29
ENDBRANCH  19  22
ENDBRANCH   5  18
TORSDOF 6
ENDMDL
MODEL 3
REMARK VINA RESULT:      -9.1      1.156      2.535
REMARK  Name = 
REMARK  7 active torsions:
REMARK  status: ('A' for Active; 'I' for Inactive)
REMARK    1  A    between atoms: C_1  and  N_2
REMARK    2  A    between atoms: C_6  and  C_7
REMARK    3  A    between atoms: C_7  and  C_8
REMARK    4  A    between atoms: C_8  and  C_9
REMARK    5  A    between atoms: C_13  and  N_14
REMARK    6  A    between atoms: C_15  and  C_17
REMARK    7  A    between atoms: C_22  and  C_23
REMARK                            x       y       z     vdW  Elec       q    Type
REMARK                         _______ _______ _______ _____ _____    ______ ____
ROOT
ATOM      1  C   UNL     1       4.620   4.812  17.110  0.00  0.00    +0.000 A 
ATOM      2  C   UNL     1       3.882   3.623  16.932  0.00  0.00    +0.000 A 
ATOM      3  C   UNL     1       2.544   3.530  17.299  0.00  0.00    +0.000 A 
ATOM      4  C   UNL     1       1.909   4.625  17.875  0.00  0.00    +0.000 A 
ATOM      5  C   UNL     1       2.600   5.817  18.094  0.00  0.00    +0.000 A 
ATOM      6  C   UNL     1       3.928   5.911  17.668  0.00  0.00    +0.000 A 
ENDROOT
BRANCH   1   7
ATOM      7  C   UNL     1       6.178   4.893  16.734  0.00  0.00    +0.000 C 
ATOM      8  C   UNL     1       6.820   6.305  16.611  0.00  0.00    +0.000 C 
ATOM      9  O   UNL     1       7.753   6.044  17.682  0.00  0.00    +0.000 OA
ATOM     10  C   UNL     1       7.163   4.755  17.932  0.00  0.00    +0.000 C 
BRANCH   7  11
ATOM     11  C   UNL     1       6.513   3.910  15.594  0.00  0.00    +0.000 C 
BRANCH  11  17
ATOM     12  C   UNL     1       5.767   3.324  12.566  0.00  0.00    +0.000 C 
ATOM     13  N   UNL     1       6.725   4.271  13.065  0.00  0.00    +0.000 N 
ATOM     14  C   UNL     1       7.519   5.061  12.287  0.00  0.00    +0.000 A 
ATOM     15  N   UNL     1       8.260   5.828  13.048  0.00  0.00    +0.000 NA
ATOM     16  N   UNL     1       7.967   5.522  14.353  0.00  0.00    +0.000 NA
ATOM     17  C   UNL     1       7.050   4.573  14.366  0.00  0.00    +0.000 A 
ENDBRANCH  11  17
ENDBRANCH   7  11
ENDBRANCH   1   7
BRANCH   5  18
ATOM     18  N   UNL     1       2.034   6.931  18.759  0.00  0.00    +0.000 N 
ATOM     19  C   UNL     1       1.758   6.967  20.112  0.00  0.00    +0.000 C 
ATOM     20  O   UNL     1       1.986   6.069  20.916  0.00  0.00    +0.000 OA
ATOM     21  H   UNL     1       1.999   7.797  18.235  0.00  0.00    +0.000 HD
BRANCH  19  22
ATOM     22  C   UNL     1       1.160   8.209  20.666  0.00  0.00    +0.000 A 
ATOM     23  C   UNL     1       0.776   8.360  21.997  0.00  0.00    +0.000 A 
ATOM     24  C   UNL     1       0.387   9.621  22.444  0.00  0.00    +0.000 A 
ATOM     25  F   UNL     1       0.048   9.781  23.730  0.00  0.00    +0.000 F 
ATOM     26  C   UNL     1       0.397  10.735  21.604  0.00  0.00    +0.000 A 
ATOM     27  C   UNL     1       0.777  10.595  20.265  0.00  0.00    +0.000 A 
ATOM     28  C   UNL     1       1.124   9.320  19.803  0.00  0.00    +0.000 A 
BRANCH  27  29
ATOM     29  C   UNL     1       0.891  11.768  19.326  0.00  0.00    +0.000 C 
ATOM     30  F   UNL     1       2.172  12.057  18.971  0.00  0.00    +0.000 F 
ATOM     31  F   UNL     1       0.219  11.559  18.160  0.00  0.00    +0.000 F 
ATOM     32  F   UNL     1       0.376  12.910  19.856  0.00  0.00    +0.000 F 
ENDBRANCH  27  29
ENDBRANCH  19  22
ENDBRANCH   5  18
TORSDOF 6
ENDMDL
MODEL 4
REMARK VINA RESULT:      -9.1      1.642      2.737
REMARK  Name = 
REMARK  7 active torsions:
REMARK  status: ('A' for Active; 'I' for Inactive)
REMARK    1  A    between atoms: C_1  and  N_2
REMARK    2  A    between atoms: C_6  and  C_7
REMARK    3  A    between atoms: C_7  and  C_8
REMARK    4  A    between atoms: C_8  and  C_9
REMARK    5  A    between atoms: C_13  and  N_14
REMARK    6  A    between atoms: C_15  and  C_17
REMARK    7  A    between atoms: C_22  and  C_23
REMARK                            x       y       z     vdW  Elec       q    Type
REMARK                         _______ _______ _______ _____ _____    ______ ____
ROOT
ATOM      1  C   UNL     1       4.229   4.558  16.998  0.00  0.00    +0.000 A 
ATOM      2  C   UNL     1       3.472   3.379  17.160  0.00  0.00    +0.000 A 
ATOM      3  C   UNL     1       2.282   3.367  17.878  0.00  0.00    +0.000 A 
ATOM      4  C   UNL     1       1.822   4.537  18.473  0.00  0.00    +0.000 A 
ATOM      5  C   UNL     1       2.545   5.725  18.363  0.00  0.00    +0.000 A 
ATOM      6  C   UNL     1       3.711   5.732  17.590  0.00  0.00    +0.000 A 
ENDROOT
BRANCH   1   7
ATOM      7  C   UNL     1       5.630   4.552  16.214  0.00  0.00    +0.000 C 
ATOM      8  C   UNL     1       5.780   3.578  15.009  0.00  0.00    +0.000 C 
ATOM      9  O   UNL     1       6.000   4.661  14.080  0.00  0.00    +0.000 OA
ATOM     10  C   UNL     1       5.784   5.640  15.111  0.00  0.00    +0.000 C 
BRANCH   7  11
ATOM     11  C   UNL     1       6.808   4.565  17.208  0.00  0.00    +0.000 C 
BRANCH  11  17
ATOM     12  C   UNL     1       8.027   5.703  19.907  0.00  0.00    +0.000 C 
ATOM     13  N   UNL     1       7.854   6.399  18.663  0.00  0.00    +0.000 N 
ATOM     14  C   UNL     1       8.157   7.712  18.454  0.00  0.00    +0.000 A 
ATOM     15  N   UNL     1       7.906   8.030  17.208  0.00  0.00    +0.000 NA
ATOM     16  N   UNL     1       7.406   6.912  16.589  0.00  0.00    +0.000 NA
ATOM     17  C   UNL     1       7.361   5.929  17.469  0.00  0.00    +0.000 A 
ENDBRANCH  11  17
ENDBRANCH   7  11
ENDBRANCH   1   7
BRANCH   5  18
ATOM     18  N   UNL     1       2.177   6.922  19.022  0.00  0.00    +0.000 N 
ATOM     19  C   UNL     1       1.967   8.126  18.379  0.00  0.00    +0.000 C 
ATOM     20  O   UNL     1       2.039   8.317  17.169  0.00  0.00    +0.000 OA
ATOM     21  H   UNL     1       1.887   6.832  19.989  0.00  0.00    +0.000 HD
BRANCH  19  22
ATOM     22  C   UNL     1       1.585   9.299  19.208  0.00  0.00    +0.000 A 
ATOM     23  C   UNL     1       1.569  10.611  18.738  0.00  0.00    +0.000 A 
ATOM     24  C   UNL     1       1.032  11.607  19.550  0.00  0.00    +0.000 A 
ATOM     25  F   UNL     1       0.981  12.865  19.092  0.00  0.00    +0.000 F 
ATOM     26  C   UNL     1       0.492  11.323  20.805  0.00  0.00    +0.000 A 
ATOM     27  C   UNL     1       0.506  10.011  21.289  0.00  0.00    +0.000 A 
ATOM     28  C   UNL     1       1.086   9.015  20.493  0.00  0.00    +0.000 A 
BRANCH  27  29
ATOM     29  C   UNL     1      -0.135   9.620  22.595  0.00  0.00    +0.000 C 
ATOM     30  F   UNL     1      -0.942  10.584  23.115  0.00  0.00    +0.000 F 
ATOM     31  F   UNL     1      -0.914   8.509  22.472  0.00  0.00    +0.000 F 
ATOM     32  F   UNL     1       0.781   9.330  23.558  0.00  0.00    +0.000 F 
ENDBRANCH  27  29
ENDBRANCH  19  22
ENDBRANCH   5  18
TORSDOF 6
ENDMDL
MODEL 5
REMARK VINA RESULT:      -9.1      4.743      9.348
REMARK  Name = 
REMARK  7 active torsions:
REMARK  status: ('A' for Active; 'I' for Inactive)
REMARK    1  A    between atoms: C_1  and  N_2
REMARK    2  A    between atoms: C_6  and  C_7
REMARK    3  A    between atoms: C_7  and  C_8
REMARK    4  A    between atoms: C_8  and  C_9
REMARK    5  A    between atoms: C_13  and  N_14
REMARK    6  A    between atoms: C_15  and  C_17
REMARK    7  A    between atoms: C_22  and  C_23
REMARK                            x       y       z     vdW  Elec       q    Type
REMARK                         _______ _______ _______ _____ _____    ______ ____
ROOT
ATOM      1  C   UNL     1      -0.314  10.095  20.152  0.00  0.00    +0.000 A 
ATOM      2  C   UNL     1      -0.241  10.169  21.558  0.00  0.00    +0.000 A 
ATOM      3  C   UNL     1       0.667   9.406  22.285  0.00  0.00    +0.000 A 
ATOM      4  C   UNL     1       1.519   8.530  21.621  0.00  0.00    +0.000 A 
ATOM      5  C   UNL     1       1.470   8.401  20.233  0.00  0.00    +0.000 A 
ATOM      6  C   UNL     1       0.591   9.217  19.514  0.00  0.00    +0.000 A 
ENDROOT
BRANCH   1   7
ATOM      7  C   UNL     1      -1.402  10.939  19.326  0.00  0.00    +0.000 C 
ATOM      8  C   UNL     1      -1.962  12.234  19.981  0.00  0.00    +0.000 C 
ATOM      9  O   UNL     1      -1.455  13.068  18.917  0.00  0.00    +0.000 OA
ATOM     10  C   UNL     1      -0.821  11.941  18.286  0.00  0.00    +0.000 C 
BRANCH   7  11
ATOM     11  C   UNL     1      -2.455  10.002  18.701  0.00  0.00    +0.000 C 
BRANCH  11  17
ATOM     12  C   UNL     1      -4.802  11.807  17.560  0.00  0.00    +0.000 C 
ATOM     13  N   UNL     1      -3.814  11.079  16.813  0.00  0.00    +0.000 N 
ATOM     14  C   UNL     1      -3.755  11.015  15.451  0.00  0.00    +0.000 A 
ATOM     15  N   UNL     1      -2.724  10.294  15.088  0.00  0.00    +0.000 NA
ATOM     16  N   UNL     1      -2.104   9.854  16.230  0.00  0.00    +0.000 NA
ATOM     17  C   UNL     1      -2.768  10.316  17.273  0.00  0.00    +0.000 A 
ENDBRANCH  11  17
ENDBRANCH   7  11
ENDBRANCH   1   7
BRANCH   5  18
ATOM     18  N   UNL     1       2.245   7.461  19.513  0.00  0.00    +0.000 N 
ATOM     19  C   UNL     1       2.219   6.099  19.741  0.00  0.00    +0.000 C 
ATOM     20  O   UNL     1       1.513   5.522  20.562  0.00  0.00    +0.000 OA
ATOM     21  H   UNL     1       2.704   7.803  18.677  0.00  0.00    +0.000 HD
BRANCH  19  22
ATOM     22  C   UNL     1       3.093   5.238  18.904  0.00  0.00    +0.000 A 
ATOM     23  C   UNL     1       2.920   3.863  18.760  0.00  0.00    +0.000 A 
ATOM     24  C   UNL     1       3.691   3.185  17.817  0.00  0.00    +0.000 A 
ATOM     25  F   UNL     1       3.507   1.869  17.649  0.00  0.00    +0.000 F 
ATOM     26  C   UNL     1       4.609   3.849  17.003  0.00  0.00    +0.000 A 
ATOM     27  C   UNL     1       4.794   5.228  17.141  0.00  0.00    +0.000 A 
ATOM     28  C   UNL     1       4.053   5.903  18.119  0.00  0.00    +0.000 A 
BRANCH  27  29
ATOM     29  C   UNL     1       5.705   6.020  16.239  0.00  0.00    +0.000 C 
ATOM     30  F   UNL     1       6.899   5.413  16.003  0.00  0.00    +0.000 F 
ATOM     31  F   UNL     1       5.150   6.238  15.014  0.00  0.00    +0.000 F 
ATOM     32  F   UNL     1       5.995   7.250  16.742  0.00  0.00    +0.000 F 
ENDBRANCH  27  29
ENDBRANCH  19  22
ENDBRANCH   5  18
TORSDOF 6
ENDMDL
MODEL 6
REMARK VINA RESULT:      -9.0      4.840      9.648
REMARK  Name = 
REMARK  7 active torsions:
REMARK  status: ('A' for Active; 'I' for Inactive)
REMARK    1  A    between atoms: C_1  and  N_2
REMARK    2  A    between atoms: C_6  and  C_7
REMARK    3  A    between atoms: C_7  and  C_8
REMARK    4  A    between atoms: C_8  and  C_9
REMARK    5  A    between atoms: C_13  and  N_14
REMARK    6  A    between atoms: C_15  and  C_17
REMARK    7  A    between atoms: C_22  and  C_23
REMARK                            x       y       z     vdW  Elec       q    Type
REMARK                         _______ _______ _______ _____ _____    ______ ____
ROOT
ATOM      1  C   UNL     1      -0.080  10.242  20.058  0.00  0.00    +0.000 A 
ATOM      2  C   UNL     1      -0.126  10.225  21.467  0.00  0.00    +0.000 A 
ATOM      3  C   UNL     1       0.645   9.341  22.214  0.00  0.00    +0.000 A 
ATOM      4  C   UNL     1       1.474   8.432  21.567  0.00  0.00    +0.000 A 
ATOM      5  C   UNL     1       1.538   8.391  20.174  0.00  0.00    +0.000 A 
ATOM      6  C   UNL     1       0.800   9.324  19.440  0.00  0.00    +0.000 A 
ENDROOT
BRANCH   1   7
ATOM      7  C   UNL     1      -1.014  11.227  19.202  0.00  0.00    +0.000 C 
ATOM      8  C   UNL     1      -1.809  12.321  19.972  0.00  0.00    +0.000 C 
ATOM      9  O   UNL     1      -1.140  13.391  19.272  0.00  0.00    +0.000 OA
ATOM     10  C   UNL     1      -0.292  12.458  18.578  0.00  0.00    +0.000 C 
BRANCH   7  11
ATOM     11  C   UNL     1      -1.820  10.437  18.152  0.00  0.00    +0.000 C 
BRANCH  11  17
ATOM     12  C   UNL     1      -3.191  10.894  15.328  0.00  0.00    +0.000 C 
ATOM     13  N   UNL     1      -3.717  11.231  16.621  0.00  0.00    +0.000 N 
ATOM     14  C   UNL     1      -4.907  11.860  16.840  0.00  0.00    +0.000 A 
ATOM     15  N   UNL     1      -5.102  11.998  18.128  0.00  0.00    +0.000 NA
ATOM     16  N   UNL     1      -4.011  11.471  18.771  0.00  0.00    +0.000 NA
ATOM     17  C   UNL     1      -3.166  11.020  17.862  0.00  0.00    +0.000 A 
ENDBRANCH  11  17
ENDBRANCH   7  11
ENDBRANCH   1   7
BRANCH   5  18
ATOM     18  N   UNL     1       2.292   7.428  19.460  0.00  0.00    +0.000 N 
ATOM     19  C   UNL     1       2.250   6.071  19.711  0.00  0.00    +0.000 C 
ATOM     20  O   UNL     1       1.546   5.517  20.550  0.00  0.00    +0.000 OA
ATOM     21  H   UNL     1       2.745   7.750  18.613  0.00  0.00    +0.000 HD
BRANCH  19  22
ATOM     22  C   UNL     1       3.101   5.184  18.878  0.00  0.00    +0.000 A 
ATOM     23  C   UNL     1       3.035   3.792  18.906  0.00  0.00    +0.000 A 
ATOM     24  C   UNL     1       3.758   3.067  17.961  0.00  0.00    +0.000 A 
ATOM     25  F   UNL     1       3.673   1.730  17.960  0.00  0.00    +0.000 F 
ATOM     26  C   UNL     1       4.522   3.696  16.977  0.00  0.00    +0.000 A 
ATOM     27  C   UNL     1       4.598   5.092  16.941  0.00  0.00    +0.000 A 
ATOM     28  C   UNL     1       3.910   5.821  17.918  0.00  0.00    +0.000 A 
BRANCH  27  29
ATOM     29  C   UNL     1       5.335   5.837  15.857  0.00  0.00    +0.000 C 
ATOM     30  F   UNL     1       5.322   5.201  14.655  0.00  0.00    +0.000 F 
ATOM     31  F   UNL     1       4.803   7.071  15.631  0.00  0.00    +0.000 F 
ATOM     32  F   UNL     1       6.643   6.044  16.165  0.00  0.00    +0.000 F 
ENDBRANCH  27  29
ENDBRANCH  19  22
ENDBRANCH   5  18
TORSDOF 6
ENDMDL
MODEL 7
REMARK VINA RESULT:      -9.0      5.201     11.004
REMARK  Name = 
REMARK  7 active torsions:
REMARK  status: ('A' for Active; 'I' for Inactive)
REMARK    1  A    between atoms: C_1  and  N_2
REMARK    2  A    between atoms: C_6  and  C_7
REMARK    3  A    between atoms: C_7  and  C_8
REMARK    4  A    between atoms: C_8  and  C_9
REMARK    5  A    between atoms: C_13  and  N_14
REMARK    6  A    between atoms: C_15  and  C_17
REMARK    7  A    between atoms: C_22  and  C_23
REMARK                            x       y       z     vdW  Elec       q    Type
REMARK                         _______ _______ _______ _____ _____    ______ ____
ROOT
ATOM      1  C   UNL     1      -1.484  11.924  20.174  0.00  0.00    +0.000 A 
ATOM      2  C   UNL     1      -2.131  12.235  18.959  0.00  0.00    +0.000 A 
ATOM      3  C   UNL     1      -1.942  11.471  17.813  0.00  0.00    +0.000 A 
ATOM      4  C   UNL     1      -1.081  10.379  17.845  0.00  0.00    +0.000 A 
ATOM      5  C   UNL     1      -0.399  10.043  19.015  0.00  0.00    +0.000 A 
ATOM      6  C   UNL     1      -0.644  10.788  20.173  0.00  0.00    +0.000 A 
ENDROOT
BRANCH   1   7
ATOM      7  C   UNL     1      -1.666  12.843  21.476  0.00  0.00    +0.000 C 
ATOM      8  C   UNL     1      -1.531  12.161  22.868  0.00  0.00    +0.000 C 
ATOM      9  O   UNL     1      -0.403  12.984  23.234  0.00  0.00    +0.000 OA
ATOM     10  C   UNL     1      -0.390  13.608  21.938  0.00  0.00    +0.000 C 
BRANCH   7  11
ATOM     11  C   UNL     1      -2.877  13.784  21.313  0.00  0.00    +0.000 C 
BRANCH  11  17
ATOM     12  C   UNL     1      -3.823  14.859  24.144  0.00  0.00    +0.000 C 
ATOM     13  N   UNL     1      -4.437  13.835  23.346  0.00  0.00    +0.000 N 
ATOM     14  C   UNL     1      -5.534  13.112  23.713  0.00  0.00    +0.000 A 
ATOM     15  N   UNL     1      -5.854  12.279  22.753  0.00  0.00    +0.000 NA
ATOM     16  N   UNL     1      -4.939  12.438  21.745  0.00  0.00    +0.000 NA
ATOM     17  C   UNL     1      -4.074  13.368  22.105  0.00  0.00    +0.000 A 
ENDBRANCH  11  17
ENDBRANCH   7  11
ENDBRANCH   1   7
BRANCH   5  18
ATOM     18  N   UNL     1       0.558   9.002  19.083  0.00  0.00    +0.000 N 
ATOM     19  C   UNL     1       1.688   8.936  18.293  0.00  0.00    +0.000 C 
ATOM     20  O   UNL     1       2.031   9.769  17.459  0.00  0.00    +0.000 OA
ATOM     21  H   UNL     1       0.484   8.375  19.876  0.00  0.00    +0.000 HD
BRANCH  19  22
ATOM     22  C   UNL     1       2.600   7.778  18.478  0.00  0.00    +0.000 A 
ATOM     23  C   UNL     1       2.485   6.857  19.517  0.00  0.00    +0.000 A 
ATOM     24  C   UNL     1       3.287   5.718  19.496  0.00  0.00    +0.000 A 
ATOM     25  F   UNL     1       3.157   4.811  20.473  0.00  0.00    +0.000 F 
ATOM     26  C   UNL     1       4.180   5.466  18.454  0.00  0.00    +0.000 A 
ATOM     27  C   UNL     1       4.307   6.385  17.408  0.00  0.00    +0.000 A 
ATOM     28  C   UNL     1       3.535   7.553  17.451  0.00  0.00    +0.000 A 
BRANCH  27  29
ATOM     29  C   UNL     1       5.188   6.137  16.210  0.00  0.00    +0.000 C 
ATOM     30  F   UNL     1       6.509   6.352  16.453  0.00  0.00    +0.000 F 
ATOM     31  F   UNL     1       5.096   4.853  15.764  0.00  0.00    +0.000 F 
ATOM     32  F   UNL     1       4.862   6.925  15.151  0.00  0.00    +0.000 F 
ENDBRANCH  27  29
ENDBRANCH  19  22
ENDBRANCH   5  18
TORSDOF 6
ENDMDL
MODEL 8
REMARK VINA RESULT:      -8.9      4.676      9.090
REMARK  Name = 
REMARK  7 active torsions:
REMARK  status: ('A' for Active; 'I' for Inactive)
REMARK    1  A    between atoms: C_1  and  N_2
REMARK    2  A    between atoms: C_6  and  C_7
REMARK    3  A    between atoms: C_7  and  C_8
REMARK    4  A    between atoms: C_8  and  C_9
REMARK    5  A    between atoms: C_13  and  N_14
REMARK    6  A    between atoms: C_15  and  C_17
REMARK    7  A    between atoms: C_22  and  C_23
REMARK                            x       y       z     vdW  Elec       q    Type
REMARK                         _______ _______ _______ _____ _____    ______ ____
ROOT
ATOM      1  C   UNL     1      -0.468  10.958  20.407  0.00  0.00    +0.000 A 
ATOM      2  C   UNL     1      -0.535  10.937  21.816  0.00  0.00    +0.000 A 
ATOM      3  C   UNL     1       0.145   9.985  22.567  0.00  0.00    +0.000 A 
ATOM      4  C   UNL     1       0.900   9.010  21.925  0.00  0.00    +0.000 A 
ATOM      5  C   UNL     1       0.980   8.972  20.533  0.00  0.00    +0.000 A 
ATOM      6  C   UNL     1       0.337   9.971  19.796  0.00  0.00    +0.000 A 
ENDROOT
BRANCH   1   7
ATOM      7  C   UNL     1      -1.300  12.027  19.546  0.00  0.00    +0.000 C 
ATOM      8  C   UNL     1      -1.276  13.511  20.016  0.00  0.00    +0.000 C 
ATOM      9  O   UNL     1      -0.666  13.957  18.786  0.00  0.00    +0.000 OA
ATOM     10  C   UNL     1      -0.560  12.606  18.304  0.00  0.00    +0.000 C 
BRANCH   7  11
ATOM     11  C   UNL     1      -2.690  11.468  19.182  0.00  0.00    +0.000 C 
BRANCH  11  17
ATOM     12  C   UNL     1      -5.051  12.064  17.148  0.00  0.00    +0.000 C 
ATOM     13  N   UNL     1      -3.865  11.288  16.911  0.00  0.00    +0.000 N 
ATOM     14  C   UNL     1      -3.582  10.630  15.750  0.00  0.00    +0.000 A 
ATOM     15  N   UNL     1      -2.416  10.041  15.851  0.00  0.00    +0.000 NA
ATOM     16  N   UNL     1      -1.932  10.295  17.109  0.00  0.00    +0.000 NA
ATOM     17  C   UNL     1      -2.811  11.037  17.756  0.00  0.00    +0.000 A 
ENDBRANCH  11  17
ENDBRANCH   7  11
ENDBRANCH   1   7
BRANCH   5  18
ATOM     18  N   UNL     1       1.656   7.951  19.822  0.00  0.00    +0.000 N 
ATOM     19  C   UNL     1       2.245   8.128  18.585  0.00  0.00    +0.000 C 
ATOM     20  O   UNL     1       2.290   9.180  17.956  0.00  0.00    +0.000 OA
ATOM     21  H   UNL     1       1.860   7.103  20.338  0.00  0.00    +0.000 HD
BRANCH  19  22
ATOM     22  C   UNL     1       2.917   6.960  17.962  0.00  0.00    +0.000 A 
ATOM     23  C   UNL     1       4.170   7.016  17.356  0.00  0.00    +0.000 A 
ATOM     24  C   UNL     1       4.776   5.826  16.958  0.00  0.00    +0.000 A 
ATOM     25  F   UNL     1       5.996   5.869  16.405  0.00  0.00    +0.000 F 
ATOM     26  C   UNL     1       4.174   4.586  17.170  0.00  0.00    +0.000 A 
ATOM     27  C   UNL     1       2.914   4.517  17.774  0.00  0.00    +0.000 A 
ATOM     28  C   UNL     1       2.283   5.714  18.134  0.00  0.00    +0.000 A 
BRANCH  27  29
ATOM     29  C   UNL     1       2.245   3.209  18.110  0.00  0.00    +0.000 C 
ATOM     30  F   UNL     1       2.639   2.688  19.303  0.00  0.00    +0.000 F 
ATOM     31  F   UNL     1       0.890   3.332  18.187  0.00  0.00    +0.000 F 
ATOM     32  F   UNL     1       2.481   2.248  17.177  0.00  0.00    +0.000 F 
ENDBRANCH  27  29
ENDBRANCH  19  22
ENDBRANCH   5  18
TORSDOF 6
ENDMDL
MODEL 9
REMARK VINA RESULT:      -8.9      2.381      3.108
REMARK  Name = 
REMARK  7 active torsions:
REMARK  status: ('A' for Active; 'I' for Inactive)
REMARK    1  A    between atoms: C_1  and  N_2
REMARK    2  A    between atoms: C_6  and  C_7
REMARK    3  A    between atoms: C_7  and  C_8
REMARK    4  A    between atoms: C_8  and  C_9
REMARK    5  A    between atoms: C_13  and  N_14
REMARK    6  A    between atoms: C_15  and  C_17
REMARK    7  A    between atoms: C_22  and  C_23
REMARK                            x       y       z     vdW  Elec       q    Type
REMARK                         _______ _______ _______ _____ _____    ______ ____
ROOT
ATOM      1  C   UNL     1       5.272   5.825  17.957  0.00  0.00    +0.000 A 
ATOM      2  C   UNL     1       4.605   4.633  18.311  0.00  0.00    +0.000 A 
ATOM      3  C   UNL     1       3.224   4.585  18.463  0.00  0.00    +0.000 A 
ATOM      4  C   UNL     1       2.469   5.739  18.282  0.00  0.00    +0.000 A 
ATOM      5  C   UNL     1       3.082   6.948  17.954  0.00  0.00    +0.000 A 
ATOM      6  C   UNL     1       4.465   6.966  17.749  0.00  0.00    +0.000 A 
ENDROOT
BRANCH   1   7
ATOM      7  C   UNL     1       6.871   5.884  17.838  0.00  0.00    +0.000 C 
ATOM      8  C   UNL     1       7.519   7.247  17.461  0.00  0.00    +0.000 C 
ATOM      9  O   UNL     1       8.253   7.314  18.702  0.00  0.00    +0.000 OA
ATOM     10  C   UNL     1       7.634   6.106  19.177  0.00  0.00    +0.000 C 
BRANCH   7  11
ATOM     11  C   UNL     1       7.404   4.660  17.065  0.00  0.00    +0.000 C 
BRANCH  11  17
ATOM     12  C   UNL     1       5.252   2.992  15.436  0.00  0.00    +0.000 C 
ATOM     13  N   UNL     1       6.198   3.942  14.920  0.00  0.00    +0.000 N 
ATOM     14  C   UNL     1       6.351   4.254  13.601  0.00  0.00    +0.000 A 
ATOM     15  N   UNL     1       7.277   5.172  13.469  0.00  0.00    +0.000 NA
ATOM     16  N   UNL     1       7.760   5.454  14.721  0.00  0.00    +0.000 NA
ATOM     17  C   UNL     1       7.119   4.704  15.598  0.00  0.00    +0.000 A 
ENDBRANCH  11  17
ENDBRANCH   7  11
ENDBRANCH   1   7
BRANCH   5  18
ATOM     18  N   UNL     1       2.378   8.172  17.848  0.00  0.00    +0.000 N 
ATOM     19  C   UNL     1       1.717   8.778  18.898  0.00  0.00    +0.000 C 
ATOM     20  O   UNL     1       1.674   8.367  20.053  0.00  0.00    +0.000 OA
ATOM     21  H   UNL     1       2.523   8.701  16.996  0.00  0.00    +0.000 HD
BRANCH  19  22
ATOM     22  C   UNL     1       1.019  10.062  18.631  0.00  0.00    +0.000 A 
ATOM     23  C   UNL     1      -0.364  10.187  18.525  0.00  0.00    +0.000 A 
ATOM     24  C   UNL     1      -0.918  11.463  18.445  0.00  0.00    +0.000 A 
ATOM     25  F   UNL     1      -2.250  11.593  18.377  0.00  0.00    +0.000 F 
ATOM     26  C   UNL     1      -0.128  12.612  18.491  0.00  0.00    +0.000 A 
ATOM     27  C   UNL     1       1.262  12.499  18.593  0.00  0.00    +0.000 A 
ATOM     28  C   UNL     1       1.824  11.217  18.628  0.00  0.00    +0.000 A 
BRANCH  27  29
ATOM     29  C   UNL     1       2.166  13.697  18.732  0.00  0.00    +0.000 C 
ATOM     30  F   UNL     1       3.243  13.664  17.902  0.00  0.00    +0.000 F 
ATOM     31  F   UNL     1       1.519  14.863  18.457  0.00  0.00    +0.000 F 
ATOM     32  F   UNL     1       2.661  13.832  19.992  0.00  0.00    +0.000 F 
ENDBRANCH  27  29
ENDBRANCH  19  22
ENDBRANCH   5  18
TORSDOF 6
ENDMDL
