MODEL 1
REMARK VINA RESULT:      -8.7      0.000      0.000
REMARK  Name = 
REMARK  3 active torsions:
REMARK  status: ('A' for Active; 'I' for Inactive)
REMARK    1  A    between atoms: C_1  and  C_2
REMARK    2  A    between atoms: N_6  and  C_7
REMARK    3  A    between atoms: C_10  and  C_11
REMARK                            x       y       z     vdW  Elec       q    Type
REMARK                         _______ _______ _______ _____ _____    ______ ____
ROOT
ATOM      1  C   UNL     1       0.787  10.587  20.271  0.00  0.00    +0.000 C 
ATOM      2  O   UNL     1       1.022  10.752  21.470  0.00  0.00    +0.000 OA
ATOM      3  N   UNL     1       0.044  11.502  19.501  0.00  0.00    +0.000 N 
ATOM      4  C   UNL     1      -0.352  12.762  20.194  0.00  0.00    +0.000 C 
ATOM      5  C   UNL     1      -1.878  12.634  20.378  0.00  0.00    +0.000 C 
ATOM      6  C   UNL     1      -2.315  12.277  21.825  0.00  0.00    +0.000 C 
ATOM      7  C   UNL     1      -2.623  13.766  22.058  0.00  0.00    +0.000 C 
ATOM      8  C   UNL     1      -2.653  13.966  20.534  0.00  0.00    +0.000 C 
ATOM      9  C   UNL     1      -2.234  11.651  19.232  0.00  0.00    +0.000 A 
ATOM     10  C   UNL     1      -3.457  11.289  18.683  0.00  0.00    +0.000 A 
ATOM     11  F   UNL     1      -4.591  11.789  19.192  0.00  0.00    +0.000 F 
ATOM     12  C   UNL     1      -3.526  10.409  17.607  0.00  0.00    +0.000 A 
ATOM     13  C   UNL     1      -2.351   9.878  17.071  0.00  0.00    +0.000 A 
ATOM     14  C   UNL     1      -1.115  10.190  17.641  0.00  0.00    +0.000 A 
ATOM     15  C   UNL     1      -1.073  11.058  18.724  0.00  0.00    +0.000 A 
ENDROOT
BRANCH   1  19
ATOM     16  C   UNL     1       2.642   7.176  18.476  0.00  0.00    +0.000 A 
ATOM     17  C   UNL     1       2.160   7.101  19.791  0.00  0.00    +0.000 A 
ATOM     18  C   UNL     1       1.543   8.215  20.373  0.00  0.00    +0.000 A 
ATOM     19  C   UNL     1       1.379   9.393  19.634  0.00  0.00    +0.000 A 
ATOM     20  C   UNL     1       1.867   9.470  18.331  0.00  0.00    +0.000 A 
ATOM     21  C   UNL     1       2.457   8.356  17.742  0.00  0.00    +0.000 A 
BRANCH  16  27
ATOM     22  C   UNL     1       1.411   4.341  17.813  0.00  0.00    +0.000 C 
ATOM     23  C   UNL     1       2.829   4.767  17.696  0.00  0.00    +0.000 A 
ATOM     24  C   UNL     1       3.917   4.021  17.280  0.00  0.00    +0.000 A 
ATOM     25  C   UNL     1       4.958   4.946  17.139  0.00  0.00    +0.000 A 
ATOM     26  N   UNL     1       4.582   6.184  17.450  0.00  0.00    +0.000 NA
ATOM     27  N   UNL     1       3.304   6.058  17.899  0.00  0.00    +0.000 N 
ENDBRANCH  16  27
ENDBRANCH   1  19
TORSDOF 2
ENDMDL
MODEL 2
REMARK VINA RESULT:      -8.7      0.880      1.303
REMARK  Name = 
REMARK  3 active torsions:
REMARK  status: ('A' for Active; 'I' for Inactive)
REMARK    1  A    between atoms: C_1  and  C_2
REMARK    2  A    between atoms: N_6  and  C_7
REMARK    3  A    between atoms: C_10  and  C_11
REMARK                            x       y       z     vdW  Elec       q    Type
REMARK                         _______ _______ _______ _____ _____    ______ ____
ROOT
ATOM      1  C   UNL     1       0.931  10.150  20.580  0.00  0.00    +0.000 C 
ATOM      2  O   UNL     1       1.105  10.294  21.792  0.00  0.00    +0.000 OA
ATOM      3  N   UNL     1       0.392  11.157  19.757  0.00  0.00    +0.000 N 
ATOM      4  C   UNL     1       0.148  12.472  20.415  0.00  0.00    +0.000 C 
ATOM      5  C   UNL     1      -1.389  12.582  20.492  0.00  0.00    +0.000 C 
ATOM      6  C   UNL     1      -1.973  12.317  21.907  0.00  0.00    +0.000 C 
ATOM      7  C   UNL     1      -2.064  13.839  22.112  0.00  0.00    +0.000 C 
ATOM      8  C   UNL     1      -1.958  14.019  20.589  0.00  0.00    +0.000 C 
ATOM      9  C   UNL     1      -1.812  11.649  19.327  0.00  0.00    +0.000 A 
ATOM     10  C   UNL     1      -3.035  11.470  18.696  0.00  0.00    +0.000 A 
ATOM     11  F   UNL     1      -4.111  12.146  19.122  0.00  0.00    +0.000 F 
ATOM     12  C   UNL     1      -3.165  10.596  17.621  0.00  0.00    +0.000 A 
ATOM     13  C   UNL     1      -2.052   9.883  17.171  0.00  0.00    +0.000 A 
ATOM     14  C   UNL     1      -0.824  10.011  17.825  0.00  0.00    +0.000 A 
ATOM     15  C   UNL     1      -0.724  10.878  18.905  0.00  0.00    +0.000 A 
ENDROOT
BRANCH   1  19
ATOM     16  C   UNL     1       2.358   6.471  18.930  0.00  0.00    +0.000 A 
ATOM     17  C   UNL     1       1.805   6.493  20.218  0.00  0.00    +0.000 A 
ATOM     18  C   UNL     1       1.327   7.696  20.752  0.00  0.00    +0.000 A 
ATOM     19  C   UNL     1       1.375   8.869  19.990  0.00  0.00    +0.000 A 
ATOM     20  C   UNL     1       1.934   8.849  18.714  0.00  0.00    +0.000 A 
ATOM     21  C   UNL     1       2.385   7.649  18.172  0.00  0.00    +0.000 A 
BRANCH  16  27
ATOM     22  C   UNL     1       5.307   5.363  19.204  0.00  0.00    +0.000 C 
ATOM     23  C   UNL     1       4.191   4.792  18.407  0.00  0.00    +0.000 A 
ATOM     24  C   UNL     1       4.197   3.661  17.612  0.00  0.00    +0.000 A 
ATOM     25  C   UNL     1       2.855   3.446  17.277  0.00  0.00    +0.000 A 
ATOM     26  N   UNL     1       2.048   4.366  17.800  0.00  0.00    +0.000 NA
ATOM     27  N   UNL     1       2.880   5.257  18.403  0.00  0.00    +0.000 N 
ENDBRANCH  16  27
ENDBRANCH   1  19
TORSDOF 2
ENDMDL
MODEL 3
REMARK VINA RESULT:      -8.1      0.735      1.230
REMARK  Name = 
REMARK  3 active torsions:
REMARK  status: ('A' for Active; 'I' for Inactive)
REMARK    1  A    between atoms: C_1  and  C_2
REMARK    2  A    between atoms: N_6  and  C_7
REMARK    3  A    between atoms: C_10  and  C_11
REMARK                            x       y       z     vdW  Elec       q    Type
REMARK                         _______ _______ _______ _____ _____    ______ ____
ROOT
ATOM      1  C   UNL     1       0.875  10.232  20.664  0.00  0.00    +0.000 C 
ATOM      2  O   UNL     1       0.982  10.382  21.883  0.00  0.00    +0.000 OA
ATOM      3  N   UNL     1       0.328  11.213  19.816  0.00  0.00    +0.000 N 
ATOM      4  C   UNL     1      -0.013  12.512  20.461  0.00  0.00    +0.000 C 
ATOM      5  C   UNL     1      -1.556  12.545  20.463  0.00  0.00    +0.000 C 
ATOM      6  C   UNL     1      -2.195  12.248  21.847  0.00  0.00    +0.000 C 
ATOM      7  C   UNL     1      -2.373  13.762  22.047  0.00  0.00    +0.000 C 
ATOM      8  C   UNL     1      -2.201  13.952  20.532  0.00  0.00    +0.000 C 
ATOM      9  C   UNL     1      -1.874  11.595  19.279  0.00  0.00    +0.000 A 
ATOM     10  C   UNL     1      -3.055  11.357  18.588  0.00  0.00    +0.000 A 
ATOM     11  F   UNL     1      -4.183  11.977  18.961  0.00  0.00    +0.000 F 
ATOM     12  C   UNL     1      -3.088  10.480  17.508  0.00  0.00    +0.000 A 
ATOM     13  C   UNL     1      -1.920   9.826  17.112  0.00  0.00    +0.000 A 
ATOM     14  C   UNL     1      -0.733  10.012  17.826  0.00  0.00    +0.000 A 
ATOM     15  C   UNL     1      -0.730  10.880  18.910  0.00  0.00    +0.000 A 
ENDROOT
BRANCH   1  19
ATOM     16  C   UNL     1       2.283   6.565  18.970  0.00  0.00    +0.000 A 
ATOM     17  C   UNL     1       2.320   7.745  18.214  0.00  0.00    +0.000 A 
ATOM     18  C   UNL     1       1.869   8.947  18.774  0.00  0.00    +0.000 A 
ATOM     19  C   UNL     1       1.411   8.977  20.096  0.00  0.00    +0.000 A 
ATOM     20  C   UNL     1       1.365   7.802  20.844  0.00  0.00    +0.000 A 
ATOM     21  C   UNL     1       1.837   6.612  20.297  0.00  0.00    +0.000 A 
BRANCH  16  27
ATOM     22  C   UNL     1       1.072   3.687  19.465  0.00  0.00    +0.000 C 
ATOM     23  C   UNL     1       2.271   4.044  18.664  0.00  0.00    +0.000 A 
ATOM     24  C   UNL     1       3.118   3.202  17.967  0.00  0.00    +0.000 A 
ATOM     25  C   UNL     1       3.935   4.053  17.213  0.00  0.00    +0.000 A 
ATOM     26  N   UNL     1       3.651   5.338  17.413  0.00  0.00    +0.000 NA
ATOM     27  N   UNL     1       2.703   5.337  18.388  0.00  0.00    +0.000 N 
ENDBRANCH  16  27
ENDBRANCH   1  19
TORSDOF 2
ENDMDL
MODEL 4
REMARK VINA RESULT:      -8.0      2.258      3.243
REMARK  Name = 
REMARK  3 active torsions:
REMARK  status: ('A' for Active; 'I' for Inactive)
REMARK    1  A    between atoms: C_1  and  C_2
REMARK    2  A    between atoms: N_6  and  C_7
REMARK    3  A    between atoms: C_10  and  C_11
REMARK                            x       y       z     vdW  Elec       q    Type
REMARK                         _______ _______ _______ _____ _____    ______ ____
ROOT
ATOM      1  C   UNL     1       1.365   9.877  18.623  0.00  0.00    +0.000 C 
ATOM      2  O   UNL     1       2.075  10.638  17.961  0.00  0.00    +0.000 OA
ATOM      3  N   UNL     1       0.096  10.242  19.110  0.00  0.00    +0.000 N 
ATOM      4  C   UNL     1      -0.407  11.577  18.677  0.00  0.00    +0.000 C 
ATOM      5  C   UNL     1      -0.358  12.437  19.958  0.00  0.00    +0.000 C 
ATOM      6  C   UNL     1       0.827  13.441  20.002  0.00  0.00    +0.000 C 
ATOM      7  C   UNL     1      -0.143  14.546  19.549  0.00  0.00    +0.000 C 
ATOM      8  C   UNL     1      -1.315  13.655  19.989  0.00  0.00    +0.000 C 
ATOM      9  C   UNL     1      -0.446  11.343  21.054  0.00  0.00    +0.000 A 
ATOM     10  C   UNL     1      -0.684  11.432  22.419  0.00  0.00    +0.000 A 
ATOM     11  F   UNL     1      -0.834  12.634  22.993  0.00  0.00    +0.000 F 
ATOM     12  C   UNL     1      -0.768  10.289  23.206  0.00  0.00    +0.000 A 
ATOM     13  C   UNL     1      -0.609   9.031  22.620  0.00  0.00    +0.000 A 
ATOM     14  C   UNL     1      -0.318   8.923  21.258  0.00  0.00    +0.000 A 
ATOM     15  C   UNL     1      -0.223  10.080  20.496  0.00  0.00    +0.000 A 
ENDROOT
BRANCH   1  19
ATOM     16  C   UNL     1       2.707   5.865  19.253  0.00  0.00    +0.000 A 
ATOM     17  C   UNL     1       2.652   6.389  17.954  0.00  0.00    +0.000 A 
ATOM     18  C   UNL     1       2.224   7.707  17.750  0.00  0.00    +0.000 A 
ATOM     19  C   UNL     1       1.879   8.509  18.845  0.00  0.00    +0.000 A 
ATOM     20  C   UNL     1       1.923   7.984  20.135  0.00  0.00    +0.000 A 
ATOM     21  C   UNL     1       2.374   6.684  20.340  0.00  0.00    +0.000 A 
BRANCH  16  27
ATOM     22  C   UNL     1       0.881   3.431  20.114  0.00  0.00    +0.000 C 
ATOM     23  C   UNL     1       2.356   3.445  19.940  0.00  0.00    +0.000 A 
ATOM     24  C   UNL     1       3.250   2.405  20.120  0.00  0.00    +0.000 A 
ATOM     25  C   UNL     1       4.465   2.881  19.613  0.00  0.00    +0.000 A 
ATOM     26  N   UNL     1       4.371   4.127  19.154  0.00  0.00    +0.000 NA
ATOM     27  N   UNL     1       3.103   4.514  19.456  0.00  0.00    +0.000 N 
ENDBRANCH  16  27
ENDBRANCH   1  19
TORSDOF 2
ENDMDL
MODEL 5
REMARK VINA RESULT:      -7.8      2.269      3.292
REMARK  Name = 
REMARK  3 active torsions:
REMARK  status: ('A' for Active; 'I' for Inactive)
REMARK    1  A    between atoms: C_1  and  C_2
REMARK    2  A    between atoms: N_6  and  C_7
REMARK    3  A    between atoms: C_10  and  C_11
REMARK                            x       y       z     vdW  Elec       q    Type
REMARK                         _______ _______ _______ _____ _____    ______ ____
ROOT
ATOM      1  C   UNL     1       1.364   9.917  18.627  0.00  0.00    +0.000 C 
ATOM      2  O   UNL     1       2.123  10.640  17.977  0.00  0.00    +0.000 OA
ATOM      3  N   UNL     1       0.112  10.350  19.103  0.00  0.00    +0.000 N 
ATOM      4  C   UNL     1      -0.310  11.713  18.672  0.00  0.00    +0.000 C 
ATOM      5  C   UNL     1      -0.227  12.563  19.958  0.00  0.00    +0.000 C 
ATOM      6  C   UNL     1       1.012  13.498  20.021  0.00  0.00    +0.000 C 
ATOM      7  C   UNL     1       0.111  14.658  19.564  0.00  0.00    +0.000 C 
ATOM      8  C   UNL     1      -1.114  13.832  19.986  0.00  0.00    +0.000 C 
ATOM      9  C   UNL     1      -0.388  11.470  21.047  0.00  0.00    +0.000 A 
ATOM     10  C   UNL     1      -0.635  11.565  22.410  0.00  0.00    +0.000 A 
ATOM     11  F   UNL     1      -0.724  12.771  22.989  0.00  0.00    +0.000 F 
ATOM     12  C   UNL     1      -0.793  10.424  23.190  0.00  0.00    +0.000 A 
ATOM     13  C   UNL     1      -0.698   9.163  22.598  0.00  0.00    +0.000 A 
ATOM     14  C   UNL     1      -0.399   9.045  21.239  0.00  0.00    +0.000 A 
ATOM     15  C   UNL     1      -0.231  10.199  20.485  0.00  0.00    +0.000 A 
ENDROOT
BRANCH   1  19
ATOM     16  C   UNL     1       2.766   5.928  19.276  0.00  0.00    +0.000 A 
ATOM     17  C   UNL     1       2.339   6.705  20.362  0.00  0.00    +0.000 A 
ATOM     18  C   UNL     1       1.869   8.007  20.146  0.00  0.00    +0.000 A 
ATOM     19  C   UNL     1       1.798   8.521  18.846  0.00  0.00    +0.000 A 
ATOM     20  C   UNL     1       2.233   7.752  17.768  0.00  0.00    +0.000 A 
ATOM     21  C   UNL     1       2.675   6.449  17.978  0.00  0.00    +0.000 A 
BRANCH  16  27
ATOM     22  C   UNL     1       5.782   4.993  19.113  0.00  0.00    +0.000 C 
ATOM     23  C   UNL     1       4.578   4.149  19.329  0.00  0.00    +0.000 A 
ATOM     24  C   UNL     1       4.512   2.779  19.499  0.00  0.00    +0.000 A 
ATOM     25  C   UNL     1       3.191   2.526  19.886  0.00  0.00    +0.000 A 
ATOM     26  N   UNL     1       2.458   3.636  19.948  0.00  0.00    +0.000 NA
ATOM     27  N   UNL     1       3.281   4.621  19.499  0.00  0.00    +0.000 N 
ENDBRANCH  16  27
ENDBRANCH   1  19
TORSDOF 2
ENDMDL
MODEL 6
REMARK VINA RESULT:      -7.4      2.973      8.460
REMARK  Name = 
REMARK  3 active torsions:
REMARK  status: ('A' for Active; 'I' for Inactive)
REMARK    1  A    between atoms: C_1  and  C_2
REMARK    2  A    between atoms: N_6  and  C_7
REMARK    3  A    between atoms: C_10  and  C_11
REMARK                            x       y       z     vdW  Elec       q    Type
REMARK                         _______ _______ _______ _____ _____    ______ ____
ROOT
ATOM      1  C   UNL     1       3.131   7.364  18.539  0.00  0.00    +0.000 C 
ATOM      2  O   UNL     1       3.619   7.863  17.522  0.00  0.00    +0.000 OA
ATOM      3  N   UNL     1       3.558   6.133  19.071  0.00  0.00    +0.000 N 
ATOM      4  C   UNL     1       4.733   5.508  18.398  0.00  0.00    +0.000 C 
ATOM      5  C   UNL     1       4.148   4.279  17.670  0.00  0.00    +0.000 C 
ATOM      6  C   UNL     1       3.987   4.468  16.137  0.00  0.00    +0.000 C 
ATOM      7  C   UNL     1       5.302   3.694  15.943  0.00  0.00    +0.000 C 
ATOM      8  C   UNL     1       5.147   3.136  17.367  0.00  0.00    +0.000 C 
ATOM      9  C   UNL     1       2.880   4.007  18.521  0.00  0.00    +0.000 A 
ATOM     10  C   UNL     1       2.023   2.915  18.562  0.00  0.00    +0.000 A 
ATOM     11  F   UNL     1       2.215   1.884  17.728  0.00  0.00    +0.000 F 
ATOM     12  C   UNL     1       0.960   2.873  19.459  0.00  0.00    +0.000 A 
ATOM     13  C   UNL     1       0.747   3.944  20.330  0.00  0.00    +0.000 A 
ATOM     14  C   UNL     1       1.567   5.073  20.270  0.00  0.00    +0.000 A 
ATOM     15  C   UNL     1       2.612   5.097  19.355  0.00  0.00    +0.000 A 
ENDROOT
BRANCH   1  19
ATOM     16  C   UNL     1       0.238   9.748  20.599  0.00  0.00    +0.000 A 
ATOM     17  C   UNL     1       0.487   9.971  19.237  0.00  0.00    +0.000 A 
ATOM     18  C   UNL     1       1.427   9.182  18.561  0.00  0.00    +0.000 A 
ATOM     19  C   UNL     1       2.094   8.152  19.236  0.00  0.00    +0.000 A 
ATOM     20  C   UNL     1       1.853   7.938  20.592  0.00  0.00    +0.000 A 
ATOM     21  C   UNL     1       0.900   8.704  21.258  0.00  0.00    +0.000 A 
BRANCH  16  27
ATOM     22  C   UNL     1      -1.875  11.743  19.354  0.00  0.00    +0.000 C 
ATOM     23  C   UNL     1      -1.549  11.542  20.789  0.00  0.00    +0.000 A 
ATOM     24  C   UNL     1      -2.091  12.183  21.889  0.00  0.00    +0.000 A 
ATOM     25  C   UNL     1      -1.609  11.473  22.995  0.00  0.00    +0.000 A 
ATOM     26  N   UNL     1      -0.813  10.466  22.644  0.00  0.00    +0.000 NA
ATOM     27  N   UNL     1      -0.686  10.575  21.294  0.00  0.00    +0.000 N 
ENDBRANCH  16  27
ENDBRANCH   1  19
TORSDOF 2
ENDMDL
MODEL 7
REMARK VINA RESULT:      -7.4      9.273     11.656
REMARK  Name = 
REMARK  3 active torsions:
REMARK  status: ('A' for Active; 'I' for Inactive)
REMARK    1  A    between atoms: C_1  and  C_2
REMARK    2  A    between atoms: N_6  and  C_7
REMARK    3  A    between atoms: C_10  and  C_11
REMARK                            x       y       z     vdW  Elec       q    Type
REMARK                         _______ _______ _______ _____ _____    ______ ____
ROOT
ATOM      1  C   UNL     1       8.872  15.103  21.577  0.00  0.00    +0.000 C 
ATOM      2  O   UNL     1       8.536  16.232  21.210  0.00  0.00    +0.000 OA
ATOM      3  N   UNL     1      10.024  14.452  21.097  0.00  0.00    +0.000 N 
ATOM      4  C   UNL     1      10.898  15.257  20.197  0.00  0.00    +0.000 C 
ATOM      5  C   UNL     1      10.714  14.611  18.807  0.00  0.00    +0.000 C 
ATOM      6  C   UNL     1       9.804  15.424  17.846  0.00  0.00    +0.000 C 
ATOM      7  C   UNL     1      11.073  15.987  17.183  0.00  0.00    +0.000 C 
ATOM      8  C   UNL     1      11.873  14.830  17.803  0.00  0.00    +0.000 C 
ATOM      9  C   UNL     1      10.281  13.175  19.203  0.00  0.00    +0.000 A 
ATOM     10  C   UNL     1      10.179  12.011  18.453  0.00  0.00    +0.000 A 
ATOM     11  F   UNL     1      10.436  12.039  17.138  0.00  0.00    +0.000 F 
ATOM     12  C   UNL     1       9.810  10.808  19.047  0.00  0.00    +0.000 A 
ATOM     13  C   UNL     1       9.535  10.767  20.416  0.00  0.00    +0.000 A 
ATOM     14  C   UNL     1       9.584  11.937  21.177  0.00  0.00    +0.000 A 
ATOM     15  C   UNL     1       9.939  13.128  20.558  0.00  0.00    +0.000 A 
ENDROOT
BRANCH   1  19
ATOM     16  C   UNL     1       6.497  13.106  24.521  0.00  0.00    +0.000 A 
ATOM     17  C   UNL     1       7.805  13.507  24.830  0.00  0.00    +0.000 A 
ATOM     18  C   UNL     1       8.577  14.171  23.869  0.00  0.00    +0.000 A 
ATOM     19  C   UNL     1       8.035  14.461  22.611  0.00  0.00    +0.000 A 
ATOM     20  C   UNL     1       6.739  14.053  22.301  0.00  0.00    +0.000 A 
ATOM     21  C   UNL     1       5.961  13.417  23.264  0.00  0.00    +0.000 A 
BRANCH  16  27
ATOM     22  C   UNL     1       5.126  14.265  27.123  0.00  0.00    +0.000 C 
ATOM     23  C   UNL     1       5.205  12.846  26.691  0.00  0.00    +0.000 A 
ATOM     24  C   UNL     1       4.704  11.727  27.331  0.00  0.00    +0.000 A 
ATOM     25  C   UNL     1       4.848  10.686  26.405  0.00  0.00    +0.000 A 
ATOM     26  N   UNL     1       5.406  11.093  25.267  0.00  0.00    +0.000 NA
ATOM     27  N   UNL     1       5.728  12.397  25.483  0.00  0.00    +0.000 N 
ENDBRANCH  16  27
ENDBRANCH   1  19
TORSDOF 2
ENDMDL
MODEL 8
REMARK VINA RESULT:      -7.2      3.058      8.423
REMARK  Name = 
REMARK  3 active torsions:
REMARK  status: ('A' for Active; 'I' for Inactive)
REMARK    1  A    between atoms: C_1  and  C_2
REMARK    2  A    between atoms: N_6  and  C_7
REMARK    3  A    between atoms: C_10  and  C_11
REMARK                            x       y       z     vdW  Elec       q    Type
REMARK                         _______ _______ _______ _____ _____    ______ ____
ROOT
ATOM      1  C   UNL     1       3.125   7.444  18.314  0.00  0.00    +0.000 C 
ATOM      2  O   UNL     1       3.615   7.848  17.256  0.00  0.00    +0.000 OA
ATOM      3  N   UNL     1       3.560   6.272  18.962  0.00  0.00    +0.000 N 
ATOM      4  C   UNL     1       4.742   5.596  18.357  0.00  0.00    +0.000 C 
ATOM      5  C   UNL     1       4.170   4.299  17.746  0.00  0.00    +0.000 C 
ATOM      6  C   UNL     1       4.016   4.340  16.201  0.00  0.00    +0.000 C 
ATOM      7  C   UNL     1       5.337   3.561  16.087  0.00  0.00    +0.000 C 
ATOM      8  C   UNL     1       5.180   3.139  17.557  0.00  0.00    +0.000 C 
ATOM      9  C   UNL     1       2.900   4.098  18.614  0.00  0.00    +0.000 A 
ATOM     10  C   UNL     1       2.051   3.008  18.755  0.00  0.00    +0.000 A 
ATOM     11  F   UNL     1       2.256   1.904  18.023  0.00  0.00    +0.000 F 
ATOM     12  C   UNL     1       0.984   3.043  19.647  0.00  0.00    +0.000 A 
ATOM     13  C   UNL     1       0.759   4.190  20.412  0.00  0.00    +0.000 A 
ATOM     14  C   UNL     1       1.571   5.314  20.248  0.00  0.00    +0.000 A 
ATOM     15  C   UNL     1       2.619   5.260  19.339  0.00  0.00    +0.000 A 
ENDROOT
BRANCH   1  19
ATOM     16  C   UNL     1       0.203   9.991  20.120  0.00  0.00    +0.000 A 
ATOM     17  C   UNL     1       0.422  10.049  18.736  0.00  0.00    +0.000 A 
ATOM     18  C   UNL     1       1.372   9.206  18.145  0.00  0.00    +0.000 A 
ATOM     19  C   UNL     1       2.078   8.286  18.929  0.00  0.00    +0.000 A 
ATOM     20  C   UNL     1       1.867   8.237  20.305  0.00  0.00    +0.000 A 
ATOM     21  C   UNL     1       0.905   9.055  20.890  0.00  0.00    +0.000 A 
BRANCH  16  27
ATOM     22  C   UNL     1      -0.519  10.220  23.190  0.00  0.00    +0.000 C 
ATOM     23  C   UNL     1      -1.156  10.929  22.050  0.00  0.00    +0.000 A 
ATOM     24  C   UNL     1      -2.201  11.835  22.080  0.00  0.00    +0.000 A 
ATOM     25  C   UNL     1      -2.258  12.364  20.785  0.00  0.00    +0.000 A 
ATOM     26  N   UNL     1      -1.338  11.838  19.980  0.00  0.00    +0.000 NA
ATOM     27  N   UNL     1      -0.732  10.875  20.726  0.00  0.00    +0.000 N 
ENDBRANCH  16  27
ENDBRANCH   1  19
TORSDOF 2
ENDMDL
MODEL 9
REMARK VINA RESULT:      -7.2      1.982      2.885
REMARK  Name = 
REMARK  3 active torsions:
REMARK  status: ('A' for Active; 'I' for Inactive)
REMARK    1  A    between atoms: C_1  and  C_2
REMARK    2  A    between atoms: N_6  and  C_7
REMARK    3  A    between atoms: C_10  and  C_11
REMARK                            x       y       z     vdW  Elec       q    Type
REMARK                         _______ _______ _______ _____ _____    ______ ____
ROOT
ATOM      1  C   UNL     1       0.008  10.192  20.552  0.00  0.00    +0.000 C 
ATOM      2  O   UNL     1      -1.131   9.777  20.779  0.00  0.00    +0.000 OA
ATOM      3  N   UNL     1       0.463  11.455  20.976  0.00  0.00    +0.000 N 
ATOM      4  C   UNL     1      -0.480  12.231  21.831  0.00  0.00    +0.000 C 
ATOM      5  C   UNL     1      -0.944  13.394  20.930  0.00  0.00    +0.000 C 
ATOM      6  C   UNL     1      -2.377  13.219  20.357  0.00  0.00    +0.000 C 
ATOM      7  C   UNL     1      -2.893  14.151  21.466  0.00  0.00    +0.000 C 
ATOM      8  C   UNL     1      -1.456  14.657  21.667  0.00  0.00    +0.000 C 
ATOM      9  C   UNL     1       0.245  13.494  19.938  0.00  0.00    +0.000 A 
ATOM     10  C   UNL     1       0.586  14.473  19.014  0.00  0.00    +0.000 A 
ATOM     11  F   UNL     1      -0.211  15.537  18.844  0.00  0.00    +0.000 F 
ATOM     12  C   UNL     1       1.748  14.367  18.256  0.00  0.00    +0.000 A 
ATOM     13  C   UNL     1       2.584  13.261  18.422  0.00  0.00    +0.000 A 
ATOM     14  C   UNL     1       2.233  12.241  19.310  0.00  0.00    +0.000 A 
ATOM     15  C   UNL     1       1.059  12.362  20.043  0.00  0.00    +0.000 A 
ENDROOT
BRANCH   1  19
ATOM     16  C   UNL     1       2.546   7.428  18.499  0.00  0.00    +0.000 A 
ATOM     17  C   UNL     1       1.939   8.478  17.795  0.00  0.00    +0.000 A 
ATOM     18  C   UNL     1       1.117   9.388  18.470  0.00  0.00    +0.000 A 
ATOM     19  C   UNL     1       0.927   9.270  19.852  0.00  0.00    +0.000 A 
ATOM     20  C   UNL     1       1.523   8.221  20.550  0.00  0.00    +0.000 A 
ATOM     21  C   UNL     1       2.360   7.331  19.884  0.00  0.00    +0.000 A 
BRANCH  16  27
ATOM     22  C   UNL     1       1.859   4.402  17.895  0.00  0.00    +0.000 C 
ATOM     23  C   UNL     1       3.130   5.119  17.619  0.00  0.00    +0.000 A 
ATOM     24  C   UNL     1       4.286   4.623  17.045  0.00  0.00    +0.000 A 
ATOM     25  C   UNL     1       5.085   5.748  16.809  0.00  0.00    +0.000 A 
ATOM     26  N   UNL     1       4.502   6.877  17.207  0.00  0.00    +0.000 NA
ATOM     27  N   UNL     1       3.348   6.480  17.806  0.00  0.00    +0.000 N 
ENDBRANCH  16  27
ENDBRANCH   1  19
TORSDOF 2
ENDMDL
