MODEL 1
REMARK VINA RESULT:      -9.0      0.000      0.000
REMARK  Name = 
REMARK  6 active torsions:
REMARK  status: ('A' for Active; 'I' for Inactive)
REMARK    1  A    between atoms: C_1  and  C_2
REMARK    2  A    between atoms: C_7  and  C_9
REMARK    3  A    between atoms: C_12  and  C_13
REMARK    4  A    between atoms: C_13  and  O_14
REMARK    5  A    between atoms: O_14  and  C_15
REMARK    6  A    between atoms: C_19  and  C_20
REMARK                            x       y       z     vdW  Elec       q    Type
REMARK                         _______ _______ _______ _____ _____    ______ ____
ROOT
ATOM      1  C   UNL     1       8.643   8.833  18.603  0.00  0.00    +0.000 A 
ATOM      2  C   UNL     1       8.782   7.639  19.315  0.00  0.00    +0.000 A 
ATOM      3  C   UNL     1       8.117   6.487  18.873  0.00  0.00    +0.000 A 
ATOM      4  C   UNL     1       7.320   6.508  17.716  0.00  0.00    +0.000 A 
ATOM      5  C   UNL     1       7.172   7.715  17.022  0.00  0.00    +0.000 A 
ATOM      6  C   UNL     1       7.829   8.866  17.462  0.00  0.00    +0.000 A 
ENDROOT
BRANCH   1  13
ATOM      7  C   UNL     1      11.736  15.688  17.897  0.00  0.00    +0.000 C 
ATOM      8  C   UNL     1      11.232  14.341  18.262  0.00  0.00    +0.000 A 
ATOM      9  N   UNL     1      11.316  13.824  19.469  0.00  0.00    +0.000 NA
ATOM     10  N   UNL     1      10.735  12.575  19.539  0.00  0.00    +0.000 NA
ATOM     11  C   UNL     1      10.244  12.187  18.389  0.00  0.00    +0.000 A 
ATOM     12  N   UNL     1       9.599  11.018  18.062  0.00  0.00    +0.000 N 
ATOM     13  C   UNL     1       9.249  10.119  19.049  0.00  0.00    +0.000 C 
ATOM     14  O   UNL     1       9.361  10.297  20.252  0.00  0.00    +0.000 OA
ATOM     15  S   UNL     1      10.465  13.308  17.112  0.00  0.00    +0.000 S 
ATOM     16  H   UNL     1       9.332  10.887  17.101  0.00  0.00    +0.000 HD
ENDBRANCH   1  13
BRANCH   4  17
ATOM     17  C   UNL     1       6.701   5.233  17.184  0.00  0.00    +0.000 C 
BRANCH  17  18
ATOM     18  O   UNL     1       6.506   4.228  18.187  0.00  0.00    +0.000 OA
BRANCH  18  19
ATOM     19  C   UNL     1       5.253   4.248  18.763  0.00  0.00    +0.000 A 
ATOM     20  C   UNL     1       4.591   5.421  19.169  0.00  0.00    +0.000 A 
ATOM     21  C   UNL     1       3.398   5.371  19.905  0.00  0.00    +0.000 A 
ATOM     22  C   UNL     1       2.822   4.135  20.143  0.00  0.00    +0.000 A 
ATOM     23  C   UNL     1       1.520   3.888  20.805  0.00  0.00    +0.000 A 
ATOM     24  C   UNL     1       1.548   2.839  21.915  0.00  0.00    +0.000 C 
ATOM     25  C   UNL     1       0.656   3.711  19.784  0.00  0.00    +0.000 A 
ATOM     26  C   UNL     1       1.023   2.471  19.009  0.00  0.00    +0.000 A 
ATOM     27  O   UNL     1       0.187   1.907  18.314  0.00  0.00    +0.000 OA
ATOM     28  O   UNL     1       2.366   2.032  19.108  0.00  0.00    +0.000 OA
ATOM     29  C   UNL     1       3.317   3.038  19.440  0.00  0.00    +0.000 A 
ATOM     30  C   UNL     1       4.583   3.030  18.860  0.00  0.00    +0.000 A 
ENDBRANCH  18  19
ENDBRANCH  17  18
ENDBRANCH   4  17
TORSDOF 4
ENDMDL
MODEL 2
REMARK VINA RESULT:      -9.0      8.016     10.171
REMARK  Name = 
REMARK  6 active torsions:
REMARK  status: ('A' for Active; 'I' for Inactive)
REMARK    1  A    between atoms: C_1  and  C_2
REMARK    2  A    between atoms: C_7  and  C_9
REMARK    3  A    between atoms: C_12  and  C_13
REMARK    4  A    between atoms: C_13  and  O_14
REMARK    5  A    between atoms: O_14  and  C_15
REMARK    6  A    between atoms: C_19  and  C_20
REMARK                            x       y       z     vdW  Elec       q    Type
REMARK                         _______ _______ _______ _____ _____    ______ ____
ROOT
ATOM      1  C   UNL     1       1.843   8.074  19.440  0.00  0.00    +0.000 A 
ATOM      2  C   UNL     1       1.357   8.228  20.742  0.00  0.00    +0.000 A 
ATOM      3  C   UNL     1       0.613   9.368  21.074  0.00  0.00    +0.000 A 
ATOM      4  C   UNL     1       0.335  10.358  20.115  0.00  0.00    +0.000 A 
ATOM      5  C   UNL     1       0.844  10.203  18.820  0.00  0.00    +0.000 A 
ATOM      6  C   UNL     1       1.590   9.071  18.487  0.00  0.00    +0.000 A 
ENDROOT
BRANCH   1  13
ATOM      7  C   UNL     1       6.721   4.242  15.131  0.00  0.00    +0.000 C 
ATOM      8  C   UNL     1       5.703   4.772  16.071  0.00  0.00    +0.000 A 
ATOM      9  N   UNL     1       5.122   4.056  17.010  0.00  0.00    +0.000 NA
ATOM     10  N   UNL     1       4.244   4.806  17.764  0.00  0.00    +0.000 NA
ATOM     11  C   UNL     1       4.183   6.052  17.368  0.00  0.00    +0.000 A 
ATOM     12  N   UNL     1       3.431   7.093  17.862  0.00  0.00    +0.000 N 
ATOM     13  C   UNL     1       2.709   6.935  19.026  0.00  0.00    +0.000 C 
ATOM     14  O   UNL     1       2.741   5.960  19.763  0.00  0.00    +0.000 OA
ATOM     15  S   UNL     1       5.181   6.416  16.023  0.00  0.00    +0.000 S 
ATOM     16  H   UNL     1       3.493   7.977  17.387  0.00  0.00    +0.000 HD
ENDBRANCH   1  13
BRANCH   4  17
ATOM     17  C   UNL     1      -0.566  11.527  20.453  0.00  0.00    +0.000 C 
BRANCH  17  18
ATOM     18  O   UNL     1      -1.058  12.224  19.301  0.00  0.00    +0.000 OA
BRANCH  18  19
ATOM     19  C   UNL     1      -2.353  11.895  18.959  0.00  0.00    +0.000 A 
ATOM     20  C   UNL     1      -2.692  10.970  17.953  0.00  0.00    +0.000 A 
ATOM     21  C   UNL     1      -4.019  10.804  17.531  0.00  0.00    +0.000 A 
ATOM     22  C   UNL     1      -5.015  11.497  18.195  0.00  0.00    +0.000 A 
ATOM     23  C   UNL     1      -6.473  11.373  17.965  0.00  0.00    +0.000 A 
ATOM     24  C   UNL     1      -7.216  12.696  17.795  0.00  0.00    +0.000 C 
ATOM     25  C   UNL     1      -6.892  10.529  18.930  0.00  0.00    +0.000 A 
ATOM     26  C   UNL     1      -6.691  11.157  20.286  0.00  0.00    +0.000 A 
ATOM     27  O   UNL     1      -7.336  10.765  21.250  0.00  0.00    +0.000 OA
ATOM     28  O   UNL     1      -5.711  12.177  20.376  0.00  0.00    +0.000 OA
ATOM     29  C   UNL     1      -4.683  12.128  19.393  0.00  0.00    +0.000 A 
ATOM     30  C   UNL     1      -3.371  12.454  19.728  0.00  0.00    +0.000 A 
ENDBRANCH  18  19
ENDBRANCH  17  18
ENDBRANCH   4  17
TORSDOF 4
ENDMDL
MODEL 3
REMARK VINA RESULT:      -8.7      1.730      2.583
REMARK  Name = 
REMARK  6 active torsions:
REMARK  status: ('A' for Active; 'I' for Inactive)
REMARK    1  A    between atoms: C_1  and  C_2
REMARK    2  A    between atoms: C_7  and  C_9
REMARK    3  A    between atoms: C_12  and  C_13
REMARK    4  A    between atoms: C_13  and  O_14
REMARK    5  A    between atoms: O_14  and  C_15
REMARK    6  A    between atoms: C_19  and  C_20
REMARK                            x       y       z     vdW  Elec       q    Type
REMARK                         _______ _______ _______ _____ _____    ______ ____
ROOT
ATOM      1  C   UNL     1       7.417   7.126  17.561  0.00  0.00    +0.000 A 
ATOM      2  C   UNL     1       6.376   7.355  16.657  0.00  0.00    +0.000 A 
ATOM      3  C   UNL     1       5.782   6.272  15.994  0.00  0.00    +0.000 A 
ATOM      4  C   UNL     1       6.207   4.953  16.232  0.00  0.00    +0.000 A 
ATOM      5  C   UNL     1       7.264   4.738  17.125  0.00  0.00    +0.000 A 
ATOM      6  C   UNL     1       7.861   5.815  17.783  0.00  0.00    +0.000 A 
ENDROOT
BRANCH   1  13
ATOM      7  C   UNL     1       9.778  14.186  18.839  0.00  0.00    +0.000 C 
ATOM      8  C   UNL     1       9.512  12.730  18.723  0.00  0.00    +0.000 A 
ATOM      9  N   UNL     1      10.157  11.806  19.401  0.00  0.00    +0.000 NA
ATOM     10  N   UNL     1       9.684  10.539  19.129  0.00  0.00    +0.000 NA
ATOM     11  C   UNL     1       8.711  10.547  18.253  0.00  0.00    +0.000 A 
ATOM     12  N   UNL     1       7.994   9.495  17.733  0.00  0.00    +0.000 N 
ATOM     13  C   UNL     1       8.155   8.224  18.245  0.00  0.00    +0.000 C 
ATOM     14  O   UNL     1       8.821   7.926  19.225  0.00  0.00    +0.000 OA
ATOM     15  S   UNL     1       8.298  12.103  17.668  0.00  0.00    +0.000 S 
ATOM     16  H   UNL     1       7.305   9.705  17.030  0.00  0.00    +0.000 HD
ENDBRANCH   1  13
BRANCH   4  17
ATOM     17  C   UNL     1       5.483   3.785  15.600  0.00  0.00    +0.000 C 
BRANCH  17  18
ATOM     18  O   UNL     1       5.051   2.798  16.546  0.00  0.00    +0.000 OA
BRANCH  18  19
ATOM     19  C   UNL     1       4.008   3.210  17.348  0.00  0.00    +0.000 A 
ATOM     20  C   UNL     1       2.713   3.496  16.874  0.00  0.00    +0.000 A 
ATOM     21  C   UNL     1       1.742   4.076  17.703  0.00  0.00    +0.000 A 
ATOM     22  C   UNL     1       2.048   4.275  19.037  0.00  0.00    +0.000 A 
ATOM     23  C   UNL     1       1.125   4.773  20.083  0.00  0.00    +0.000 A 
ATOM     24  C   UNL     1       1.677   5.907  20.945  0.00  0.00    +0.000 C 
ATOM     25  C   UNL     1       0.690   3.658  20.704  0.00  0.00    +0.000 A 
ATOM     26  C   UNL     1       1.841   2.971  21.393  0.00  0.00    +0.000 A 
ATOM     27  O   UNL     1       1.633   2.192  22.315  0.00  0.00    +0.000 OA
ATOM     28  O   UNL     1       3.139   3.251  20.899  0.00  0.00    +0.000 OA
ATOM     29  C   UNL     1       3.199   3.671  19.540  0.00  0.00    +0.000 A 
ATOM     30  C   UNL     1       4.246   3.256  18.720  0.00  0.00    +0.000 A 
ENDBRANCH  18  19
ENDBRANCH  17  18
ENDBRANCH   4  17
TORSDOF 4
ENDMDL
MODEL 4
REMARK VINA RESULT:      -8.6      8.431     10.816
REMARK  Name = 
REMARK  6 active torsions:
REMARK  status: ('A' for Active; 'I' for Inactive)
REMARK    1  A    between atoms: C_1  and  C_2
REMARK    2  A    between atoms: C_7  and  C_9
REMARK    3  A    between atoms: C_12  and  C_13
REMARK    4  A    between atoms: C_13  and  O_14
REMARK    5  A    between atoms: O_14  and  C_15
REMARK    6  A    between atoms: C_19  and  C_20
REMARK                            x       y       z     vdW  Elec       q    Type
REMARK                         _______ _______ _______ _____ _____    ______ ____
ROOT
ATOM      1  C   UNL     1       1.655   8.350  19.243  0.00  0.00    +0.000 A 
ATOM      2  C   UNL     1       1.228   8.459  20.569  0.00  0.00    +0.000 A 
ATOM      3  C   UNL     1       0.508   9.592  20.975  0.00  0.00    +0.000 A 
ATOM      4  C   UNL     1       0.198  10.618  20.065  0.00  0.00    +0.000 A 
ATOM      5  C   UNL     1       0.649  10.507  18.745  0.00  0.00    +0.000 A 
ATOM      6  C   UNL     1       1.370   9.382  18.338  0.00  0.00    +0.000 A 
ENDROOT
BRANCH   1  13
ATOM      7  C   UNL     1       3.894   1.182  18.424  0.00  0.00    +0.000 C 
ATOM      8  C   UNL     1       3.685   2.649  18.512  0.00  0.00    +0.000 A 
ATOM      9  N   UNL     1       4.540   3.544  18.067  0.00  0.00    +0.000 NA
ATOM     10  N   UNL     1       4.080   4.832  18.241  0.00  0.00    +0.000 NA
ATOM     11  C   UNL     1       2.905   4.869  18.817  0.00  0.00    +0.000 A 
ATOM     12  N   UNL     1       2.129   5.953  19.157  0.00  0.00    +0.000 N 
ATOM     13  C   UNL     1       2.493   7.220  18.751  0.00  0.00    +0.000 C 
ATOM     14  O   UNL     1       3.417   7.495  18.000  0.00  0.00    +0.000 OA
ATOM     15  S   UNL     1       2.264   3.331  19.215  0.00  0.00    +0.000 S 
ATOM     16  H   UNL     1       1.265   5.773  19.638  0.00  0.00    +0.000 HD
ENDBRANCH   1  13
BRANCH   4  17
ATOM     17  C   UNL     1      -0.678  11.780  20.485  0.00  0.00    +0.000 C 
BRANCH  17  18
ATOM     18  O   UNL     1      -1.188  12.541  19.383  0.00  0.00    +0.000 OA
BRANCH  18  19
ATOM     19  C   UNL     1      -2.464  12.185  19.000  0.00  0.00    +0.000 A 
ATOM     20  C   UNL     1      -2.758  11.393  17.874  0.00  0.00    +0.000 A 
ATOM     21  C   UNL     1      -4.076  11.207  17.435  0.00  0.00    +0.000 A 
ATOM     22  C   UNL     1      -5.105  11.737  18.193  0.00  0.00    +0.000 A 
ATOM     23  C   UNL     1      -6.555  11.558  17.950  0.00  0.00    +0.000 A 
ATOM     24  C   UNL     1      -7.379  12.844  17.971  0.00  0.00    +0.000 C 
ATOM     25  C   UNL     1      -6.912  10.561  18.786  0.00  0.00    +0.000 A 
ATOM     26  C   UNL     1      -6.735  11.002  20.217  0.00  0.00    +0.000 A 
ATOM     27  O   UNL     1      -7.345  10.439  21.117  0.00  0.00    +0.000 OA
ATOM     28  O   UNL     1      -5.818  12.057  20.449  0.00  0.00    +0.000 OA
ATOM     29  C   UNL     1      -4.799  12.211  19.467  0.00  0.00    +0.000 A 
ATOM     30  C   UNL     1      -3.506  12.567  19.843  0.00  0.00    +0.000 A 
ENDBRANCH  18  19
ENDBRANCH  17  18
ENDBRANCH   4  17
TORSDOF 4
ENDMDL
MODEL 5
REMARK VINA RESULT:      -8.6      7.432      9.186
REMARK  Name = 
REMARK  6 active torsions:
REMARK  status: ('A' for Active; 'I' for Inactive)
REMARK    1  A    between atoms: C_1  and  C_2
REMARK    2  A    between atoms: C_7  and  C_9
REMARK    3  A    between atoms: C_12  and  C_13
REMARK    4  A    between atoms: C_13  and  O_14
REMARK    5  A    between atoms: O_14  and  C_15
REMARK    6  A    between atoms: C_19  and  C_20
REMARK                            x       y       z     vdW  Elec       q    Type
REMARK                         _______ _______ _______ _____ _____    ______ ____
ROOT
ATOM      1  C   UNL     1       0.159  10.914  21.028  0.00  0.00    +0.000 A 
ATOM      2  C   UNL     1       0.478   9.565  21.213  0.00  0.00    +0.000 A 
ATOM      3  C   UNL     1       1.050   8.838  20.160  0.00  0.00    +0.000 A 
ATOM      4  C   UNL     1       1.321   9.445  18.921  0.00  0.00    +0.000 A 
ATOM      5  C   UNL     1       0.979  10.790  18.741  0.00  0.00    +0.000 A 
ATOM      6  C   UNL     1       0.404  11.517  19.786  0.00  0.00    +0.000 A 
ENDROOT
BRANCH   1  13
ATOM      7  C   UNL     1      -3.826  16.687  23.827  0.00  0.00    +0.000 C 
ATOM      8  C   UNL     1      -2.965  15.520  23.511  0.00  0.00    +0.000 A 
ATOM      9  N   UNL     1      -2.388  14.763  24.419  0.00  0.00    +0.000 NA
ATOM     10  N   UNL     1      -1.676  13.726  23.851  0.00  0.00    +0.000 NA
ATOM     11  C   UNL     1      -1.730  13.740  22.544  0.00  0.00    +0.000 A 
ATOM     12  N   UNL     1      -1.155  12.884  21.634  0.00  0.00    +0.000 N 
ATOM     13  C   UNL     1      -0.524  11.736  22.066  0.00  0.00    +0.000 C 
ATOM     14  O   UNL     1      -0.504  11.317  23.214  0.00  0.00    +0.000 OA
ATOM     15  S   UNL     1      -2.642  15.034  21.888  0.00  0.00    +0.000 S 
ATOM     16  H   UNL     1      -1.280  13.091  20.658  0.00  0.00    +0.000 HD
ENDBRANCH   1  13
BRANCH   4  17
ATOM     17  C   UNL     1       2.044   8.682  17.832  0.00  0.00    +0.000 C 
BRANCH  17  18
ATOM     18  O   UNL     1       1.939   7.258  17.962  0.00  0.00    +0.000 OA
BRANCH  18  19
ATOM     19  C   UNL     1       3.154   6.613  18.052  0.00  0.00    +0.000 A 
ATOM     20  C   UNL     1       3.358   5.409  18.752  0.00  0.00    +0.000 A 
ATOM     21  C   UNL     1       4.645   4.890  18.955  0.00  0.00    +0.000 A 
ATOM     22  C   UNL     1       5.718   5.535  18.364  0.00  0.00    +0.000 A 
ATOM     23  C   UNL     1       7.128   5.084  18.377  0.00  0.00    +0.000 A 
ATOM     24  C   UNL     1       8.145   6.151  18.775  0.00  0.00    +0.000 C 
ATOM     25  C   UNL     1       7.290   4.462  17.191  0.00  0.00    +0.000 A 
ATOM     26  C   UNL     1       7.133   5.454  16.066  0.00  0.00    +0.000 A 
ATOM     27  O   UNL     1       7.611   5.217  14.964  0.00  0.00    +0.000 OA
ATOM     28  O   UNL     1       6.389   6.626  16.349  0.00  0.00    +0.000 OA
ATOM     29  C   UNL     1       5.445   6.512  17.408  0.00  0.00    +0.000 A 
ATOM     30  C   UNL     1       4.212   7.155  17.325  0.00  0.00    +0.000 A 
ENDBRANCH  18  19
ENDBRANCH  17  18
ENDBRANCH   4  17
TORSDOF 4
ENDMDL
MODEL 6
REMARK VINA RESULT:      -8.6      1.062      1.385
REMARK  Name = 
REMARK  6 active torsions:
REMARK  status: ('A' for Active; 'I' for Inactive)
REMARK    1  A    between atoms: C_1  and  C_2
REMARK    2  A    between atoms: C_7  and  C_9
REMARK    3  A    between atoms: C_12  and  C_13
REMARK    4  A    between atoms: C_13  and  O_14
REMARK    5  A    between atoms: O_14  and  C_15
REMARK    6  A    between atoms: C_19  and  C_20
REMARK                            x       y       z     vdW  Elec       q    Type
REMARK                         _______ _______ _______ _____ _____    ______ ____
ROOT
ATOM      1  C   UNL     1       8.367   8.633  18.390  0.00  0.00    +0.000 A 
ATOM      2  C   UNL     1       7.774   8.406  17.144  0.00  0.00    +0.000 A 
ATOM      3  C   UNL     1       7.388   7.107  16.787  0.00  0.00    +0.000 A 
ATOM      4  C   UNL     1       7.574   6.026  17.667  0.00  0.00    +0.000 A 
ATOM      5  C   UNL     1       8.187   6.263  18.903  0.00  0.00    +0.000 A 
ATOM      6  C   UNL     1       8.578   7.555  19.260  0.00  0.00    +0.000 A 
ENDROOT
BRANCH   1  13
ATOM      7  C   UNL     1       9.230  16.136  18.226  0.00  0.00    +0.000 C 
ATOM      8  C   UNL     1       9.273  14.661  18.388  0.00  0.00    +0.000 A 
ATOM      9  N   UNL     1      10.121  14.029  19.171  0.00  0.00    +0.000 NA
ATOM     10  N   UNL     1       9.916  12.665  19.162  0.00  0.00    +0.000 NA
ATOM     11  C   UNL     1       8.935  12.313  18.371  0.00  0.00    +0.000 A 
ATOM     12  N   UNL     1       8.438  11.060  18.097  0.00  0.00    +0.000 N 
ATOM     13  C   UNL     1       8.879   9.966  18.814  0.00  0.00    +0.000 C 
ATOM     14  O   UNL     1       9.625   9.997  19.781  0.00  0.00    +0.000 OA
ATOM     15  S   UNL     1       8.185  13.616  17.551  0.00  0.00    +0.000 S 
ATOM     16  H   UNL     1       7.698  10.991  17.419  0.00  0.00    +0.000 HD
ENDBRANCH   1  13
BRANCH   4  17
ATOM     17  C   UNL     1       7.049   4.650  17.318  0.00  0.00    +0.000 C 
BRANCH  17  18
ATOM     18  O   UNL     1       5.731   4.665  16.754  0.00  0.00    +0.000 OA
BRANCH  18  19
ATOM     19  C   UNL     1       4.721   4.617  17.691  0.00  0.00    +0.000 A 
ATOM     20  C   UNL     1       4.140   5.753  18.285  0.00  0.00    +0.000 A 
ATOM     21  C   UNL     1       3.240   5.641  19.354  0.00  0.00    +0.000 A 
ATOM     22  C   UNL     1       2.850   4.376  19.758  0.00  0.00    +0.000 A 
ATOM     23  C   UNL     1       1.837   4.059  20.791  0.00  0.00    +0.000 A 
ATOM     24  C   UNL     1       2.278   3.035  21.836  0.00  0.00    +0.000 C 
ATOM     25  C   UNL     1       0.713   3.807  20.089  0.00  0.00    +0.000 A 
ATOM     26  C   UNL     1       0.903   2.578  19.237  0.00  0.00    +0.000 A 
ATOM     27  O   UNL     1      -0.067   1.950  18.835  0.00  0.00    +0.000 OA
ATOM     28  O   UNL     1       2.237   2.228  18.913  0.00  0.00    +0.000 OA
ATOM     29  C   UNL     1       3.175   3.300  18.934  0.00  0.00    +0.000 A 
ATOM     30  C   UNL     1       4.196   3.361  17.990  0.00  0.00    +0.000 A 
ENDBRANCH  18  19
ENDBRANCH  17  18
ENDBRANCH   4  17
TORSDOF 4
ENDMDL
MODEL 7
REMARK VINA RESULT:      -8.5      8.573     10.373
REMARK  Name = 
REMARK  6 active torsions:
REMARK  status: ('A' for Active; 'I' for Inactive)
REMARK    1  A    between atoms: C_1  and  C_2
REMARK    2  A    between atoms: C_7  and  C_9
REMARK    3  A    between atoms: C_12  and  C_13
REMARK    4  A    between atoms: C_13  and  O_14
REMARK    5  A    between atoms: O_14  and  C_15
REMARK    6  A    between atoms: C_19  and  C_20
REMARK                            x       y       z     vdW  Elec       q    Type
REMARK                         _______ _______ _______ _____ _____    ______ ____
ROOT
ATOM      1  C   UNL     1      -1.011  11.758  22.501  0.00  0.00    +0.000 A 
ATOM      2  C   UNL     1      -0.097  11.947  21.460  0.00  0.00    +0.000 A 
ATOM      3  C   UNL     1       0.814  10.930  21.145  0.00  0.00    +0.000 A 
ATOM      4  C   UNL     1       0.818   9.714  21.850  0.00  0.00    +0.000 A 
ATOM      5  C   UNL     1      -0.089   9.544  22.904  0.00  0.00    +0.000 A 
ATOM      6  C   UNL     1      -0.994  10.557  23.224  0.00  0.00    +0.000 A 
ENDROOT
BRANCH   1  13
ATOM      7  C   UNL     1      -7.692  14.990  23.904  0.00  0.00    +0.000 C 
ATOM      8  C   UNL     1      -6.289  14.587  23.633  0.00  0.00    +0.000 A 
ATOM      9  N   UNL     1      -5.261  15.403  23.708  0.00  0.00    +0.000 NA
ATOM     10  N   UNL     1      -4.069  14.760  23.443  0.00  0.00    +0.000 NA
ATOM     11  C   UNL     1      -4.237  13.491  23.170  0.00  0.00    +0.000 A 
ATOM     12  N   UNL     1      -3.303  12.532  22.857  0.00  0.00    +0.000 N 
ATOM     13  C   UNL     1      -1.956  12.817  22.952  0.00  0.00    +0.000 C 
ATOM     14  O   UNL     1      -1.472  13.844  23.403  0.00  0.00    +0.000 OA
ATOM     15  S   UNL     1      -5.870  12.973  23.193  0.00  0.00    +0.000 S 
ATOM     16  H   UNL     1      -3.639  11.610  22.634  0.00  0.00    +0.000 HD
ENDBRANCH   1  13
BRANCH   4  17
ATOM     17  C   UNL     1       1.727   8.580  21.426  0.00  0.00    +0.000 C 
BRANCH  17  18
ATOM     18  O   UNL     1       1.028   7.362  21.137  0.00  0.00    +0.000 OA
BRANCH  18  19
ATOM     19  C   UNL     1       1.721   6.502  20.311  0.00  0.00    +0.000 A 
ATOM     20  C   UNL     1       2.473   6.916  19.195  0.00  0.00    +0.000 A 
ATOM     21  C   UNL     1       3.013   5.988  18.292  0.00  0.00    +0.000 A 
ATOM     22  C   UNL     1       2.879   4.640  18.573  0.00  0.00    +0.000 A 
ATOM     23  C   UNL     1       3.467   3.521  17.801  0.00  0.00    +0.000 A 
ATOM     24  C   UNL     1       2.495   2.399  17.446  0.00  0.00    +0.000 C 
ATOM     25  C   UNL     1       4.588   3.200  18.481  0.00  0.00    +0.000 A 
ATOM     26  C   UNL     1       4.227   2.678  19.848  0.00  0.00    +0.000 A 
ATOM     27  O   UNL     1       5.017   1.979  20.470  0.00  0.00    +0.000 OA
ATOM     28  O   UNL     1       2.966   3.066  20.366  0.00  0.00    +0.000 OA
ATOM     29  C   UNL     1       2.436   4.280  19.844  0.00  0.00    +0.000 A 
ATOM     30  C   UNL     1       1.738   5.157  20.671  0.00  0.00    +0.000 A 
ENDBRANCH  18  19
ENDBRANCH  17  18
ENDBRANCH   4  17
TORSDOF 4
ENDMDL
MODEL 8
REMARK VINA RESULT:      -8.4      7.820      9.873
REMARK  Name = 
REMARK  6 active torsions:
REMARK  status: ('A' for Active; 'I' for Inactive)
REMARK    1  A    between atoms: C_1  and  C_2
REMARK    2  A    between atoms: C_7  and  C_9
REMARK    3  A    between atoms: C_12  and  C_13
REMARK    4  A    between atoms: C_13  and  O_14
REMARK    5  A    between atoms: O_14  and  C_15
REMARK    6  A    between atoms: C_19  and  C_20
REMARK                            x       y       z     vdW  Elec       q    Type
REMARK                         _______ _______ _______ _____ _____    ______ ____
ROOT
ATOM      1  C   UNL     1      -0.541  10.937  20.714  0.00  0.00    +0.000 A 
ATOM      2  C   UNL     1      -0.880  10.983  19.359  0.00  0.00    +0.000 A 
ATOM      3  C   UNL     1      -0.049  10.366  18.415  0.00  0.00    +0.000 A 
ATOM      4  C   UNL     1       1.118   9.687  18.809  0.00  0.00    +0.000 A 
ATOM      5  C   UNL     1       1.458   9.665  20.167  0.00  0.00    +0.000 A 
ATOM      6  C   UNL     1       0.635  10.284  21.109  0.00  0.00    +0.000 A 
ENDROOT
BRANCH   1  13
ATOM      7  C   UNL     1      -6.022  15.252  23.614  0.00  0.00    +0.000 C 
ATOM      8  C   UNL     1      -4.824  14.450  23.257  0.00  0.00    +0.000 A 
ATOM      9  N   UNL     1      -3.855  14.158  24.097  0.00  0.00    +0.000 NA
ATOM     10  N   UNL     1      -2.885  13.369  23.515  0.00  0.00    +0.000 NA
ATOM     11  C   UNL     1      -3.146  13.102  22.261  0.00  0.00    +0.000 A 
ATOM     12  N   UNL     1      -2.425  12.358  21.356  0.00  0.00    +0.000 N 
ATOM     13  C   UNL     1      -1.325  11.636  21.771  0.00  0.00    +0.000 C 
ATOM     14  O   UNL     1      -0.957  11.493  22.927  0.00  0.00    +0.000 OA
ATOM     15  S   UNL     1      -4.593  13.806  21.673  0.00  0.00    +0.000 S 
ATOM     16  H   UNL     1      -2.775  12.304  20.414  0.00  0.00    +0.000 HD
ENDBRANCH   1  13
BRANCH   4  17
ATOM     17  C   UNL     1       1.946   8.926  17.795  0.00  0.00    +0.000 C 
BRANCH  17  18
ATOM     18  O   UNL     1       1.821   7.502  17.906  0.00  0.00    +0.000 OA
BRANCH  18  19
ATOM     19  C   UNL     1       3.026   6.845  18.041  0.00  0.00    +0.000 A 
ATOM     20  C   UNL     1       3.208   5.682  18.814  0.00  0.00    +0.000 A 
ATOM     21  C   UNL     1       4.485   5.156  19.055  0.00  0.00    +0.000 A 
ATOM     22  C   UNL     1       5.570   5.747  18.432  0.00  0.00    +0.000 A 
ATOM     23  C   UNL     1       6.973   5.275  18.480  0.00  0.00    +0.000 A 
ATOM     24  C   UNL     1       8.006   6.348  18.817  0.00  0.00    +0.000 C 
ATOM     25  C   UNL     1       7.130   4.580  17.334  0.00  0.00    +0.000 A 
ATOM     26  C   UNL     1       6.994   5.504  16.150  0.00  0.00    +0.000 A 
ATOM     27  O   UNL     1       7.473   5.194  15.067  0.00  0.00    +0.000 OA
ATOM     28  O   UNL     1       6.268   6.703  16.358  0.00  0.00    +0.000 OA
ATOM     29  C   UNL     1       5.317   6.668  17.417  0.00  0.00    +0.000 A 
ATOM     30  C   UNL     1       4.096   7.325  17.289  0.00  0.00    +0.000 A 
ENDBRANCH  18  19
ENDBRANCH  17  18
ENDBRANCH   4  17
TORSDOF 4
ENDMDL
MODEL 9
REMARK VINA RESULT:      -8.4      7.686      9.633
REMARK  Name = 
REMARK  6 active torsions:
REMARK  status: ('A' for Active; 'I' for Inactive)
REMARK    1  A    between atoms: C_1  and  C_2
REMARK    2  A    between atoms: C_7  and  C_9
REMARK    3  A    between atoms: C_12  and  C_13
REMARK    4  A    between atoms: C_13  and  O_14
REMARK    5  A    between atoms: O_14  and  C_15
REMARK    6  A    between atoms: C_19  and  C_20
REMARK                            x       y       z     vdW  Elec       q    Type
REMARK                         _______ _______ _______ _____ _____    ______ ____
ROOT
ATOM      1  C   UNL     1      -1.021  11.217  19.683  0.00  0.00    +0.000 A 
ATOM      2  C   UNL     1      -1.320  10.697  18.420  0.00  0.00    +0.000 A 
ATOM      3  C   UNL     1      -0.370   9.913  17.751  0.00  0.00    +0.000 A 
ATOM      4  C   UNL     1       0.877   9.628  18.334  0.00  0.00    +0.000 A 
ATOM      5  C   UNL     1       1.172  10.171  19.591  0.00  0.00    +0.000 A 
ATOM      6  C   UNL     1       0.231  10.956  20.258  0.00  0.00    +0.000 A 
ENDROOT
BRANCH   1  13
ATOM      7  C   UNL     1      -3.228  15.950  25.140  0.00  0.00    +0.000 C 
ATOM      8  C   UNL     1      -3.038  14.986  24.028  0.00  0.00    +0.000 A 
ATOM      9  N   UNL     1      -4.009  14.552  23.254  0.00  0.00    +0.000 NA
ATOM     10  N   UNL     1      -3.549  13.693  22.277  0.00  0.00    +0.000 NA
ATOM     11  C   UNL     1      -2.256  13.501  22.350  0.00  0.00    +0.000 A 
ATOM     12  N   UNL     1      -1.441  12.721  21.564  0.00  0.00    +0.000 N 
ATOM     13  C   UNL     1      -1.941  12.125  20.424  0.00  0.00    +0.000 C 
ATOM     14  O   UNL     1      -3.055  12.299  19.954  0.00  0.00    +0.000 OA
ATOM     15  S   UNL     1      -1.488  14.338  23.633  0.00  0.00    +0.000 S 
ATOM     16  H   UNL     1      -0.467  12.671  21.810  0.00  0.00    +0.000 HD
ENDBRANCH   1  13
BRANCH   4  17
ATOM     17  C   UNL     1       1.848   8.686  17.655  0.00  0.00    +0.000 C 
BRANCH  17  18
ATOM     18  O   UNL     1       1.803   7.348  18.167  0.00  0.00    +0.000 OA
BRANCH  18  19
ATOM     19  C   UNL     1       3.037   6.736  18.242  0.00  0.00    +0.000 A 
ATOM     20  C   UNL     1       3.295   5.573  18.992  0.00  0.00    +0.000 A 
ATOM     21  C   UNL     1       4.601   5.095  19.172  0.00  0.00    +0.000 A 
ATOM     22  C   UNL     1       5.635   5.734  18.511  0.00  0.00    +0.000 A 
ATOM     23  C   UNL     1       7.056   5.316  18.493  0.00  0.00    +0.000 A 
ATOM     24  C   UNL     1       8.060   6.425  18.801  0.00  0.00    +0.000 C 
ATOM     25  C   UNL     1       7.190   4.641  17.333  0.00  0.00    +0.000 A 
ATOM     26  C   UNL     1       6.968   5.572  16.168  0.00  0.00    +0.000 A 
ATOM     27  O   UNL     1       7.412   5.293  15.062  0.00  0.00    +0.000 OA
ATOM     28  O   UNL     1       6.207   6.740  16.422  0.00  0.00    +0.000 OA
ATOM     29  C   UNL     1       5.304   6.656  17.520  0.00  0.00    +0.000 A 
ATOM     30  C   UNL     1       4.054   7.266  17.452  0.00  0.00    +0.000 A 
ENDBRANCH  18  19
ENDBRANCH  17  18
ENDBRANCH   4  17
TORSDOF 4
ENDMDL
