MODEL 1
REMARK VINA RESULT:      -7.2      0.000      0.000
REMARK  Name = 
REMARK  12 active torsions:
REMARK  status: ('A' for Active; 'I' for Inactive)
REMARK    1  A    between atoms: C_1  and  N_2
REMARK    2  A    between atoms: N_2  and  C_3
REMARK    3  A    between atoms: C_3  and  C_4
REMARK    4  A    between atoms: C_4  and  C_5
REMARK    5  A    between atoms: C_4  and  N_6
REMARK    6  A    between atoms: C_4  and  C_7
REMARK    7  A    between atoms: C_11  and  N_12
REMARK    8  A    between atoms: C_17  and  C_18
REMARK    9  A    between atoms: C_18  and  C_19
REMARK   10  A    between atoms: C_19  and  N_20
REMARK   11  A    between atoms: C_22  and  C_23
REMARK   12  A    between atoms: C_26  and  C_27
REMARK                            x       y       z     vdW  Elec       q    Type
REMARK                         _______ _______ _______ _____ _____    ______ ____
ROOT
ATOM      1  N   UNL     1      -0.391  11.362  18.379  0.00  0.00    +0.000 N 
ATOM      2  C   UNL     1       0.349  10.505  19.334  0.00  0.00    +0.000 C 
ATOM      3  C   UNL     1       0.070  11.179  20.642  0.00  0.00    +0.000 A 
ATOM      4  C   UNL     1      -0.187  12.526  20.379  0.00  0.00    +0.000 A 
ATOM      5  C   UNL     1      -0.679  13.410  21.324  0.00  0.00    +0.000 A 
ATOM      6  C   UNL     1      -0.980  12.898  22.585  0.00  0.00    +0.000 A 
ATOM      7  C   UNL     1      -0.771  11.523  22.842  0.00  0.00    +0.000 A 
ATOM      8  C   UNL     1      -0.246  10.638  21.877  0.00  0.00    +0.000 A 
ATOM      9  C   UNL     1      -0.411  12.658  18.922  0.00  0.00    +0.000 C 
ATOM     10  O   UNL     1      -0.744  13.698  18.382  0.00  0.00    +0.000 OA
ENDROOT
BRANCH   1  15
ATOM     11  C   UNL     1      -4.033  11.373  17.947  0.00  0.00    +0.000 A 
ATOM     12  C   UNL     1      -4.096  10.623  16.759  0.00  0.00    +0.000 A 
ATOM     13  C   UNL     1      -3.016   9.851  16.340  0.00  0.00    +0.000 A 
ATOM     14  C   UNL     1      -1.836   9.859  17.070  0.00  0.00    +0.000 A 
ATOM     15  C   UNL     1      -1.679  10.766  18.129  0.00  0.00    +0.000 A 
ATOM     16  C   UNL     1      -2.787  11.462  18.599  0.00  0.00    +0.000 A 
BRANCH  11  17
ATOM     17  C   UNL     1      -5.241  12.106  18.536  0.00  0.00    +0.000 C 
ATOM     18  C   UNL     1      -6.235  12.577  17.450  0.00  0.00    +0.000 C 
BRANCH  17  19
ATOM     19  N   UNL     1      -4.781  13.326  19.233  0.00  0.00    +0.000 NA
ATOM     20  H   UNL     1      -5.417  13.543  19.996  0.00  0.00    +0.000 HD
ATOM     21  H   UNL     1      -4.792  14.112  18.588  0.00  0.00    +0.000 HD
ENDBRANCH  17  19
BRANCH  17  22
ATOM     22  C   UNL     1      -6.023  11.137  19.517  0.00  0.00    +0.000 C 
BRANCH  22  24
ATOM     23  C   UNL     1      -7.109   8.962  19.566  0.00  0.00    +0.000 C 
ATOM     24  N   UNL     1      -7.008  10.239  18.883  0.00  0.00    +0.000 NA
ATOM     25  H   UNL     1      -7.922  10.691  18.905  0.00  0.00    +0.000 HD
ENDBRANCH  22  24
ENDBRANCH  17  22
ENDBRANCH  11  17
ENDBRANCH   1  15
BRANCH   8  26
ATOM     26  C   UNL     1      -0.213   9.164  22.204  0.00  0.00    +0.000 C 
ATOM     27  F   UNL     1      -0.622   8.853  23.462  0.00  0.00    +0.000 F 
ATOM     28  F   UNL     1      -0.999   8.431  21.367  0.00  0.00    +0.000 F 
ATOM     29  F   UNL     1       1.041   8.646  22.081  0.00  0.00    +0.000 F 
ENDBRANCH   8  26
BRANCH   6  30
ATOM     30  C   UNL     1      -1.673  13.806  23.586  0.00  0.00    +0.000 C 
BRANCH  30  31
ATOM     31  C   UNL     1      -2.724  14.714  22.934  0.00  0.00    +0.000 C 
BRANCH  31  32
ATOM     32  N   UNL     1      -4.089  14.315  23.267  0.00  0.00    +0.000 NA
ATOM     33  C   UNL     1      -4.077  13.630  24.587  0.00  0.00    +0.000 C 
ATOM     34  C   UNL     1      -5.056  12.595  23.996  0.00  0.00    +0.000 C 
ATOM     35  C   UNL     1      -6.529  12.901  24.215  0.00  0.00    +0.000 C 
ATOM     36  C   UNL     1      -4.449  13.016  22.635  0.00  0.00    +0.000 C 
ENDBRANCH  31  32
ENDBRANCH  30  31
ENDBRANCH   6  30
TORSDOF 9
ENDMDL
MODEL 2
REMARK VINA RESULT:      -7.1      0.978      1.823
REMARK  Name = 
REMARK  12 active torsions:
REMARK  status: ('A' for Active; 'I' for Inactive)
REMARK    1  A    between atoms: C_1  and  N_2
REMARK    2  A    between atoms: N_2  and  C_3
REMARK    3  A    between atoms: C_3  and  C_4
REMARK    4  A    between atoms: C_4  and  C_5
REMARK    5  A    between atoms: C_4  and  N_6
REMARK    6  A    between atoms: C_4  and  C_7
REMARK    7  A    between atoms: C_11  and  N_12
REMARK    8  A    between atoms: C_17  and  C_18
REMARK    9  A    between atoms: C_18  and  C_19
REMARK   10  A    between atoms: C_19  and  N_20
REMARK   11  A    between atoms: C_22  and  C_23
REMARK   12  A    between atoms: C_26  and  C_27
REMARK                            x       y       z     vdW  Elec       q    Type
REMARK                         _______ _______ _______ _____ _____    ______ ____
ROOT
ATOM      1  N   UNL     1      -0.282  11.590  18.621  0.00  0.00    +0.000 N 
ATOM      2  C   UNL     1       0.496  10.807  19.609  0.00  0.00    +0.000 C 
ATOM      3  C   UNL     1       0.025  11.383  20.909  0.00  0.00    +0.000 A 
ATOM      4  C   UNL     1      -0.399  12.691  20.663  0.00  0.00    +0.000 A 
ATOM      5  C   UNL     1      -1.082  13.460  21.590  0.00  0.00    +0.000 A 
ATOM      6  C   UNL     1      -1.404  12.862  22.807  0.00  0.00    +0.000 A 
ATOM      7  C   UNL     1      -1.024  11.520  23.041  0.00  0.00    +0.000 A 
ATOM      8  C   UNL     1      -0.306  10.755  22.097  0.00  0.00    +0.000 A 
ATOM      9  C   UNL     1      -0.526  12.848  19.198  0.00  0.00    +0.000 C 
ATOM     10  O   UNL     1      -0.960  13.853  18.662  0.00  0.00    +0.000 OA
ENDROOT
BRANCH   1  15
ATOM     11  C   UNL     1      -3.833  11.128  17.831  0.00  0.00    +0.000 A 
ATOM     12  C   UNL     1      -3.679  10.381  16.649  0.00  0.00    +0.000 A 
ATOM     13  C   UNL     1      -2.472   9.759  16.344  0.00  0.00    +0.000 A 
ATOM     14  C   UNL     1      -1.381   9.917  17.188  0.00  0.00    +0.000 A 
ATOM     15  C   UNL     1      -1.450  10.832  18.250  0.00  0.00    +0.000 A 
ATOM     16  C   UNL     1      -2.680  11.375  18.602  0.00  0.00    +0.000 A 
BRANCH  11  17
ATOM     17  C   UNL     1      -5.179  11.694  18.292  0.00  0.00    +0.000 C 
ATOM     18  C   UNL     1      -5.046  12.597  19.539  0.00  0.00    +0.000 C 
BRANCH  17  19
ATOM     19  N   UNL     1      -6.071  10.581  18.679  0.00  0.00    +0.000 NA
ATOM     20  H   UNL     1      -7.020  10.784  18.378  0.00  0.00    +0.000 HD
ATOM     21  H   UNL     1      -6.082  10.489  19.692  0.00  0.00    +0.000 HD
ENDBRANCH  17  19
BRANCH  17  22
ATOM     22  C   UNL     1      -5.812  12.568  17.131  0.00  0.00    +0.000 C 
BRANCH  22  24
ATOM     23  C   UNL     1      -7.273  14.439  16.599  0.00  0.00    +0.000 C 
ATOM     24  N   UNL     1      -6.283  13.911  17.521  0.00  0.00    +0.000 NA
ATOM     25  H   UNL     1      -6.704  13.852  18.449  0.00  0.00    +0.000 HD
ENDBRANCH  22  24
ENDBRANCH  17  22
ENDBRANCH  11  17
ENDBRANCH   1  15
BRANCH   8  26
ATOM     26  C   UNL     1      -0.091   9.288  22.383  0.00  0.00    +0.000 C 
ATOM     27  F   UNL     1       1.166   8.838  22.127  0.00  0.00    +0.000 F 
ATOM     28  F   UNL     1      -0.339   8.972  23.685  0.00  0.00    +0.000 F 
ATOM     29  F   UNL     1      -0.926   8.501  21.647  0.00  0.00    +0.000 F 
ENDBRANCH   8  26
BRANCH   6  30
ATOM     30  C   UNL     1      -2.293  13.625  23.773  0.00  0.00    +0.000 C 
BRANCH  30  31
ATOM     31  C   UNL     1      -3.409  14.402  23.064  0.00  0.00    +0.000 C 
BRANCH  31  32
ATOM     32  N   UNL     1      -4.628  13.612  22.911  0.00  0.00    +0.000 NA
ATOM     33  C   UNL     1      -5.796  14.469  23.251  0.00  0.00    +0.000 C 
ATOM     34  C   UNL     1      -6.386  13.265  24.014  0.00  0.00    +0.000 C 
ATOM     35  C   UNL     1      -7.321  12.382  23.205  0.00  0.00    +0.000 C 
ATOM     36  C   UNL     1      -4.913  12.804  24.129  0.00  0.00    +0.000 C 
ENDBRANCH  31  32
ENDBRANCH  30  31
ENDBRANCH   6  30
TORSDOF 9
ENDMDL
MODEL 3
REMARK VINA RESULT:      -7.1      0.997      1.372
REMARK  Name = 
REMARK  12 active torsions:
REMARK  status: ('A' for Active; 'I' for Inactive)
REMARK    1  A    between atoms: C_1  and  N_2
REMARK    2  A    between atoms: N_2  and  C_3
REMARK    3  A    between atoms: C_3  and  C_4
REMARK    4  A    between atoms: C_4  and  C_5
REMARK    5  A    between atoms: C_4  and  N_6
REMARK    6  A    between atoms: C_4  and  C_7
REMARK    7  A    between atoms: C_11  and  N_12
REMARK    8  A    between atoms: C_17  and  C_18
REMARK    9  A    between atoms: C_18  and  C_19
REMARK   10  A    between atoms: C_19  and  N_20
REMARK   11  A    between atoms: C_22  and  C_23
REMARK   12  A    between atoms: C_26  and  C_27
REMARK                            x       y       z     vdW  Elec       q    Type
REMARK                         _______ _______ _______ _____ _____    ______ ____
ROOT
ATOM      1  N   UNL     1      -0.257  11.540  18.542  0.00  0.00    +0.000 N 
ATOM      2  C   UNL     1       0.504  10.721  19.514  0.00  0.00    +0.000 C 
ATOM      3  C   UNL     1       0.073  11.306  20.824  0.00  0.00    +0.000 A 
ATOM      4  C   UNL     1      -0.303  12.631  20.592  0.00  0.00    +0.000 A 
ATOM      5  C   UNL     1      -0.943  13.420  21.533  0.00  0.00    +0.000 A 
ATOM      6  C   UNL     1      -1.271  12.826  22.751  0.00  0.00    +0.000 A 
ATOM      7  C   UNL     1      -0.941  11.469  22.971  0.00  0.00    +0.000 A 
ATOM      8  C   UNL     1      -0.266  10.683  22.013  0.00  0.00    +0.000 A 
ATOM      9  C   UNL     1      -0.444  12.802  19.129  0.00  0.00    +0.000 C 
ATOM     10  O   UNL     1      -0.846  13.827  18.606  0.00  0.00    +0.000 OA
ENDROOT
BRANCH   1  15
ATOM     11  C   UNL     1      -3.827  11.226  17.766  0.00  0.00    +0.000 A 
ATOM     12  C   UNL     1      -3.710  10.460  16.592  0.00  0.00    +0.000 A 
ATOM     13  C   UNL     1      -2.532   9.782  16.291  0.00  0.00    +0.000 A 
ATOM     14  C   UNL     1      -1.433   9.902  17.130  0.00  0.00    +0.000 A 
ATOM     15  C   UNL     1      -1.458  10.830  18.182  0.00  0.00    +0.000 A 
ATOM     16  C   UNL     1      -2.662  11.430  18.532  0.00  0.00    +0.000 A 
BRANCH  11  17
ATOM     17  C   UNL     1      -5.145  11.856  18.224  0.00  0.00    +0.000 C 
ATOM     18  C   UNL     1      -5.881  12.587  17.079  0.00  0.00    +0.000 C 
BRANCH  17  19
ATOM     19  N   UNL     1      -4.867  12.876  19.256  0.00  0.00    +0.000 NA
ATOM     20  H   UNL     1      -4.793  12.430  20.166  0.00  0.00    +0.000 HD
ATOM     21  H   UNL     1      -5.640  13.537  19.299  0.00  0.00    +0.000 HD
ENDBRANCH  17  19
BRANCH  17  22
ATOM     22  C   UNL     1      -6.112  10.725  18.772  0.00  0.00    +0.000 C 
BRANCH  22  24
ATOM     23  C   UNL     1      -7.626  10.911  20.666  0.00  0.00    +0.000 C 
ATOM     24  N   UNL     1      -7.430  11.183  19.253  0.00  0.00    +0.000 NA
ATOM     25  H   UNL     1      -7.498  12.190  19.105  0.00  0.00    +0.000 HD
ENDBRANCH  22  24
ENDBRANCH  17  22
ENDBRANCH  11  17
ENDBRANCH   1  15
BRANCH   8  26
ATOM     26  C   UNL     1      -0.104   9.207  22.287  0.00  0.00    +0.000 C 
ATOM     27  F   UNL     1       1.150   8.726  22.080  0.00  0.00    +0.000 F 
ATOM     28  F   UNL     1      -0.418   8.882  23.572  0.00  0.00    +0.000 F 
ATOM     29  F   UNL     1      -0.926   8.454  21.503  0.00  0.00    +0.000 F 
ENDBRANCH   8  26
BRANCH   6  30
ATOM     30  C   UNL     1      -2.117  13.617  23.733  0.00  0.00    +0.000 C 
BRANCH  30  31
ATOM     31  C   UNL     1      -3.480  12.967  24.000  0.00  0.00    +0.000 C 
BRANCH  31  32
ATOM     32  N   UNL     1      -4.559  13.947  24.087  0.00  0.00    +0.000 NA
ATOM     33  C   UNL     1      -5.287  13.971  22.790  0.00  0.00    +0.000 C 
ATOM     34  C   UNL     1      -5.319  15.510  22.900  0.00  0.00    +0.000 C 
ATOM     35  C   UNL     1      -6.561  16.085  23.560  0.00  0.00    +0.000 C 
ATOM     36  C   UNL     1      -4.072  15.324  23.798  0.00  0.00    +0.000 C 
ENDBRANCH  31  32
ENDBRANCH  30  31
ENDBRANCH   6  30
TORSDOF 9
ENDMDL
MODEL 4
REMARK VINA RESULT:      -7.1      3.242      6.897
REMARK  Name = 
REMARK  12 active torsions:
REMARK  status: ('A' for Active; 'I' for Inactive)
REMARK    1  A    between atoms: C_1  and  N_2
REMARK    2  A    between atoms: N_2  and  C_3
REMARK    3  A    between atoms: C_3  and  C_4
REMARK    4  A    between atoms: C_4  and  C_5
REMARK    5  A    between atoms: C_4  and  N_6
REMARK    6  A    between atoms: C_4  and  C_7
REMARK    7  A    between atoms: C_11  and  N_12
REMARK    8  A    between atoms: C_17  and  C_18
REMARK    9  A    between atoms: C_18  and  C_19
REMARK   10  A    between atoms: C_19  and  N_20
REMARK   11  A    between atoms: C_22  and  C_23
REMARK   12  A    between atoms: C_26  and  C_27
REMARK                            x       y       z     vdW  Elec       q    Type
REMARK                         _______ _______ _______ _____ _____    ______ ____
ROOT
ATOM      1  N   UNL     1       0.120  13.624  20.463  0.00  0.00    +0.000 N 
ATOM      2  C   UNL     1      -0.892  13.381  19.408  0.00  0.00    +0.000 C 
ATOM      3  C   UNL     1      -0.326  12.191  18.696  0.00  0.00    +0.000 A 
ATOM      4  C   UNL     1       1.059  12.209  18.878  0.00  0.00    +0.000 A 
ATOM      5  C   UNL     1       1.890  11.158  18.530  0.00  0.00    +0.000 A 
ATOM      6  C   UNL     1       1.288  10.006  18.025  0.00  0.00    +0.000 A 
ATOM      7  C   UNL     1      -0.119   9.962  17.889  0.00  0.00    +0.000 A 
ATOM      8  C   UNL     1      -0.952  11.051  18.224  0.00  0.00    +0.000 A 
ATOM      9  C   UNL     1       1.352  13.178  19.956  0.00  0.00    +0.000 C 
ATOM     10  O   UNL     1       2.467  13.363  20.413  0.00  0.00    +0.000 OA
ENDROOT
BRANCH   1  15
ATOM     11  C   UNL     1      -2.367  12.549  22.933  0.00  0.00    +0.000 A 
ATOM     12  C   UNL     1      -1.943  11.215  23.077  0.00  0.00    +0.000 A 
ATOM     13  C   UNL     1      -0.679  10.814  22.653  0.00  0.00    +0.000 A 
ATOM     14  C   UNL     1       0.162  11.725  22.029  0.00  0.00    +0.000 A 
ATOM     15  C   UNL     1      -0.324  12.995  21.680  0.00  0.00    +0.000 A 
ATOM     16  C   UNL     1      -1.547  13.419  22.187  0.00  0.00    +0.000 A 
BRANCH  11  17
ATOM     17  C   UNL     1      -3.676  13.076  23.526  0.00  0.00    +0.000 C 
ATOM     18  C   UNL     1      -3.472  14.360  24.363  0.00  0.00    +0.000 C 
BRANCH  17  19
ATOM     19  N   UNL     1      -4.238  12.066  24.447  0.00  0.00    +0.000 NA
ATOM     20  H   UNL     1      -4.176  11.145  24.022  0.00  0.00    +0.000 HD
ATOM     21  H   UNL     1      -5.223  12.264  24.611  0.00  0.00    +0.000 HD
ENDBRANCH  17  19
BRANCH  17  22
ATOM     22  C   UNL     1      -4.688  13.421  22.356  0.00  0.00    +0.000 C 
BRANCH  22  24
ATOM     23  C   UNL     1      -6.584  12.743  20.992  0.00  0.00    +0.000 C 
ATOM     24  N   UNL     1      -5.515  12.300  21.869  0.00  0.00    +0.000 NA
ATOM     25  H   UNL     1      -4.917  11.656  21.352  0.00  0.00    +0.000 HD
ENDBRANCH  22  24
ENDBRANCH  17  22
ENDBRANCH  11  17
ENDBRANCH   1  15
BRANCH   8  26
ATOM     26  C   UNL     1      -2.447  10.842  18.190  0.00  0.00    +0.000 C 
ATOM     27  F   UNL     1      -3.104  11.271  19.300  0.00  0.00    +0.000 F 
ATOM     28  F   UNL     1      -3.035  11.480  17.141  0.00  0.00    +0.000 F 
ATOM     29  F   UNL     1      -2.770   9.525  18.051  0.00  0.00    +0.000 F 
ENDBRANCH   8  26
BRANCH   6  30
ATOM     30  C   UNL     1       2.157   8.782  17.793  0.00  0.00    +0.000 C 
BRANCH  30  31
ATOM     31  C   UNL     1       2.110   7.790  18.962  0.00  0.00    +0.000 C 
BRANCH  31  32
ATOM     32  N   UNL     1       2.481   6.436  18.561  0.00  0.00    +0.000 NA
ATOM     33  C   UNL     1       3.261   5.810  19.661  0.00  0.00    +0.000 C 
ATOM     34  C   UNL     1       4.214   5.242  18.589  0.00  0.00    +0.000 C 
ATOM     35  C   UNL     1       3.871   3.847  18.094  0.00  0.00    +0.000 C 
ATOM     36  C   UNL     1       3.717   6.431  17.730  0.00  0.00    +0.000 C 
ENDBRANCH  31  32
ENDBRANCH  30  31
ENDBRANCH   6  30
TORSDOF 9
ENDMDL
MODEL 5
REMARK VINA RESULT:      -7.0      3.231      7.209
REMARK  Name = 
REMARK  12 active torsions:
REMARK  status: ('A' for Active; 'I' for Inactive)
REMARK    1  A    between atoms: C_1  and  N_2
REMARK    2  A    between atoms: N_2  and  C_3
REMARK    3  A    between atoms: C_3  and  C_4
REMARK    4  A    between atoms: C_4  and  C_5
REMARK    5  A    between atoms: C_4  and  N_6
REMARK    6  A    between atoms: C_4  and  C_7
REMARK    7  A    between atoms: C_11  and  N_12
REMARK    8  A    between atoms: C_17  and  C_18
REMARK    9  A    between atoms: C_18  and  C_19
REMARK   10  A    between atoms: C_19  and  N_20
REMARK   11  A    between atoms: C_22  and  C_23
REMARK   12  A    between atoms: C_26  and  C_27
REMARK                            x       y       z     vdW  Elec       q    Type
REMARK                         _______ _______ _______ _____ _____    ______ ____
ROOT
ATOM      1  N   UNL     1       0.195  13.536  20.314  0.00  0.00    +0.000 N 
ATOM      2  C   UNL     1      -0.828  13.324  19.264  0.00  0.00    +0.000 C 
ATOM      3  C   UNL     1      -0.354  12.061  18.613  0.00  0.00    +0.000 A 
ATOM      4  C   UNL     1       1.027  11.979  18.805  0.00  0.00    +0.000 A 
ATOM      5  C   UNL     1       1.774  10.850  18.514  0.00  0.00    +0.000 A 
ATOM      6  C   UNL     1       1.086   9.726  18.058  0.00  0.00    +0.000 A 
ATOM      7  C   UNL     1      -0.320   9.787  17.913  0.00  0.00    +0.000 A 
ATOM      8  C   UNL     1      -1.066  10.952  18.189  0.00  0.00    +0.000 A 
ATOM      9  C   UNL     1       1.391  12.971  19.840  0.00  0.00    +0.000 C 
ATOM     10  O   UNL     1       2.515  13.089  20.296  0.00  0.00    +0.000 OA
ENDROOT
BRANCH   1  15
ATOM     11  C   UNL     1      -2.377  12.789  22.818  0.00  0.00    +0.000 A 
ATOM     12  C   UNL     1      -2.070  11.432  23.022  0.00  0.00    +0.000 A 
ATOM     13  C   UNL     1      -0.846  10.905  22.622  0.00  0.00    +0.000 A 
ATOM     14  C   UNL     1       0.071  11.711  21.962  0.00  0.00    +0.000 A 
ATOM     15  C   UNL     1      -0.303  13.002  21.556  0.00  0.00    +0.000 A 
ATOM     16  C   UNL     1      -1.485  13.552  22.039  0.00  0.00    +0.000 A 
BRANCH  11  17
ATOM     17  C   UNL     1      -3.636  13.454  23.382  0.00  0.00    +0.000 C 
ATOM     18  C   UNL     1      -4.252  12.658  24.555  0.00  0.00    +0.000 C 
BRANCH  17  19
ATOM     19  N   UNL     1      -4.673  13.510  22.330  0.00  0.00    +0.000 NA
ATOM     20  H   UNL     1      -5.592  13.401  22.750  0.00  0.00    +0.000 HD
ATOM     21  H   UNL     1      -4.539  12.740  21.679  0.00  0.00    +0.000 HD
ENDBRANCH  17  19
BRANCH  17  22
ATOM     22  C   UNL     1      -3.277  14.901  23.920  0.00  0.00    +0.000 C 
BRANCH  22  24
ATOM     23  C   UNL     1      -5.147  16.366  24.444  0.00  0.00    +0.000 C 
ATOM     24  N   UNL     1      -4.164  15.436  24.971  0.00  0.00    +0.000 NA
ATOM     25  H   UNL     1      -4.657  14.656  25.408  0.00  0.00    +0.000 HD
ENDBRANCH  22  24
ENDBRANCH  17  22
ENDBRANCH  11  17
ENDBRANCH   1  15
BRANCH   8  26
ATOM     26  C   UNL     1      -2.573  10.860  18.153  0.00  0.00    +0.000 C 
ATOM     27  F   UNL     1      -3.060   9.602  17.986  0.00  0.00    +0.000 F 
ATOM     28  F   UNL     1      -3.148  11.331  19.294  0.00  0.00    +0.000 F 
ATOM     29  F   UNL     1      -3.101  11.602  17.140  0.00  0.00    +0.000 F 
ENDBRANCH   8  26
BRANCH   6  30
ATOM     30  C   UNL     1       1.856   8.428  17.890  0.00  0.00    +0.000 C 
BRANCH  30  31
ATOM     31  C   UNL     1       2.160   7.741  19.227  0.00  0.00    +0.000 C 
BRANCH  31  32
ATOM     32  N   UNL     1       2.980   6.543  19.065  0.00  0.00    +0.000 NA
ATOM     33  C   UNL     1       3.850   6.719  17.872  0.00  0.00    +0.000 C 
ATOM     34  C   UNL     1       3.533   5.257  17.495  0.00  0.00    +0.000 C 
ATOM     35  C   UNL     1       4.523   4.227  18.014  0.00  0.00    +0.000 C 
ATOM     36  C   UNL     1       2.248   5.475  18.331  0.00  0.00    +0.000 C 
ENDBRANCH  31  32
ENDBRANCH  30  31
ENDBRANCH   6  30
TORSDOF 9
ENDMDL
MODEL 6
REMARK VINA RESULT:      -7.0      4.828      7.985
REMARK  Name = 
REMARK  12 active torsions:
REMARK  status: ('A' for Active; 'I' for Inactive)
REMARK    1  A    between atoms: C_1  and  N_2
REMARK    2  A    between atoms: N_2  and  C_3
REMARK    3  A    between atoms: C_3  and  C_4
REMARK    4  A    between atoms: C_4  and  C_5
REMARK    5  A    between atoms: C_4  and  N_6
REMARK    6  A    between atoms: C_4  and  C_7
REMARK    7  A    between atoms: C_11  and  N_12
REMARK    8  A    between atoms: C_17  and  C_18
REMARK    9  A    between atoms: C_18  and  C_19
REMARK   10  A    between atoms: C_19  and  N_20
REMARK   11  A    between atoms: C_22  and  C_23
REMARK   12  A    between atoms: C_26  and  C_27
REMARK                            x       y       z     vdW  Elec       q    Type
REMARK                         _______ _______ _______ _____ _____    ______ ____
ROOT
ATOM      1  N   UNL     1       0.764   8.238  21.274  0.00  0.00    +0.000 N 
ATOM      2  C   UNL     1      -0.487   8.540  20.540  0.00  0.00    +0.000 C 
ATOM      3  C   UNL     1      -0.379  10.019  20.329  0.00  0.00    +0.000 A 
ATOM      4  C   UNL     1       0.423  10.535  21.350  0.00  0.00    +0.000 A 
ATOM      5  C   UNL     1       0.903  11.833  21.363  0.00  0.00    +0.000 A 
ATOM      6  C   UNL     1       0.606  12.638  20.264  0.00  0.00    +0.000 A 
ATOM      7  C   UNL     1      -0.161  12.104  19.202  0.00  0.00    +0.000 A 
ATOM      8  C   UNL     1      -0.666  10.786  19.213  0.00  0.00    +0.000 A 
ATOM      9  C   UNL     1       1.099   9.392  22.002  0.00  0.00    +0.000 C 
ATOM     10  O   UNL     1       1.936   9.515  22.879  0.00  0.00    +0.000 OA
ENDROOT
BRANCH   1  15
ATOM     11  C   UNL     1       2.453   5.758  19.166  0.00  0.00    +0.000 A 
ATOM     12  C   UNL     1       2.493   6.503  17.974  0.00  0.00    +0.000 A 
ATOM     13  C   UNL     1       2.302   7.882  17.982  0.00  0.00    +0.000 A 
ATOM     14  C   UNL     1       2.013   8.533  19.173  0.00  0.00    +0.000 A 
ATOM     15  C   UNL     1       1.753   7.782  20.330  0.00  0.00    +0.000 A 
ATOM     16  C   UNL     1       2.036   6.422  20.337  0.00  0.00    +0.000 A 
BRANCH  11  17
ATOM     17  C   UNL     1       2.816   4.273  19.235  0.00  0.00    +0.000 C 
ATOM     18  C   UNL     1       1.863   3.391  18.396  0.00  0.00    +0.000 C 
BRANCH  17  19
ATOM     19  N   UNL     1       2.693   3.803  20.631  0.00  0.00    +0.000 NA
ATOM     20  H   UNL     1       2.036   3.028  20.674  0.00  0.00    +0.000 HD
ATOM     21  H   UNL     1       2.324   4.553  21.211  0.00  0.00    +0.000 HD
ENDBRANCH  17  19
BRANCH  17  22
ATOM     22  C   UNL     1       4.284   4.058  18.678  0.00  0.00    +0.000 C 
BRANCH  22  24
ATOM     23  C   UNL     1       5.101   3.848  16.396  0.00  0.00    +0.000 C 
ATOM     24  N   UNL     1       4.400   3.194  17.487  0.00  0.00    +0.000 NA
ATOM     25  H   UNL     1       4.916   2.352  17.745  0.00  0.00    +0.000 HD
ENDBRANCH  22  24
ENDBRANCH  17  22
ENDBRANCH  11  17
ENDBRANCH   1  15
BRANCH   8  26
ATOM     26  C   UNL     1      -1.335  10.268  17.963  0.00  0.00    +0.000 C 
ATOM     27  F   UNL     1      -1.710  11.231  17.080  0.00  0.00    +0.000 F 
ATOM     28  F   UNL     1      -0.536   9.415  17.263  0.00  0.00    +0.000 F 
ATOM     29  F   UNL     1      -2.466   9.564  18.249  0.00  0.00    +0.000 F 
ENDBRANCH   8  26
BRANCH   6  30
ATOM     30  C   UNL     1       1.256  14.007  20.176  0.00  0.00    +0.000 C 
BRANCH  30  31
ATOM     31  C   UNL     1       1.448  14.481  18.730  0.00  0.00    +0.000 C 
BRANCH  31  32
ATOM     32  N   UNL     1       2.830  14.349  18.277  0.00  0.00    +0.000 NA
ATOM     33  C   UNL     1       3.735  14.627  19.424  0.00  0.00    +0.000 C 
ATOM     34  C   UNL     1       4.620  15.441  18.456  0.00  0.00    +0.000 C 
ATOM     35  C   UNL     1       5.751  14.662  17.806  0.00  0.00    +0.000 C 
ATOM     36  C   UNL     1       3.317  15.600  17.635  0.00  0.00    +0.000 C 
ENDBRANCH  31  32
ENDBRANCH  30  31
ENDBRANCH   6  30
TORSDOF 9
ENDMDL
MODEL 7
REMARK VINA RESULT:      -6.9      4.888      7.869
REMARK  Name = 
REMARK  12 active torsions:
REMARK  status: ('A' for Active; 'I' for Inactive)
REMARK    1  A    between atoms: C_1  and  N_2
REMARK    2  A    between atoms: N_2  and  C_3
REMARK    3  A    between atoms: C_3  and  C_4
REMARK    4  A    between atoms: C_4  and  C_5
REMARK    5  A    between atoms: C_4  and  N_6
REMARK    6  A    between atoms: C_4  and  C_7
REMARK    7  A    between atoms: C_11  and  N_12
REMARK    8  A    between atoms: C_17  and  C_18
REMARK    9  A    between atoms: C_18  and  C_19
REMARK   10  A    between atoms: C_19  and  N_20
REMARK   11  A    between atoms: C_22  and  C_23
REMARK   12  A    between atoms: C_26  and  C_27
REMARK                            x       y       z     vdW  Elec       q    Type
REMARK                         _______ _______ _______ _____ _____    ______ ____
ROOT
ATOM      1  N   UNL     1       2.736   7.772  19.290  0.00  0.00    +0.000 N 
ATOM      2  C   UNL     1       2.353   8.529  20.504  0.00  0.00    +0.000 C 
ATOM      3  C   UNL     1       1.161   9.301  20.030  0.00  0.00    +0.000 A 
ATOM      4  C   UNL     1       1.288   9.471  18.649  0.00  0.00    +0.000 A 
ATOM      5  C   UNL     1       0.276   9.963  17.842  0.00  0.00    +0.000 A 
ATOM      6  C   UNL     1      -0.947  10.247  18.449  0.00  0.00    +0.000 A 
ATOM      7  C   UNL     1      -1.098  10.027  19.838  0.00  0.00    +0.000 A 
ATOM      8  C   UNL     1      -0.050   9.549  20.653  0.00  0.00    +0.000 A 
ATOM      9  C   UNL     1       2.345   8.546  18.185  0.00  0.00    +0.000 C 
ATOM     10  O   UNL     1       2.638   8.390  17.012  0.00  0.00    +0.000 OA
ENDROOT
BRANCH   1  15
ATOM     11  C   UNL     1       2.760   4.113  19.041  0.00  0.00    +0.000 A 
ATOM     12  C   UNL     1       2.157   3.825  20.278  0.00  0.00    +0.000 A 
ATOM     13  C   UNL     1       1.453   4.800  20.979  0.00  0.00    +0.000 A 
ATOM     14  C   UNL     1       1.386   6.094  20.482  0.00  0.00    +0.000 A 
ATOM     15  C   UNL     1       2.161   6.453  19.369  0.00  0.00    +0.000 A 
ATOM     16  C   UNL     1       2.783   5.458  18.623  0.00  0.00    +0.000 A 
BRANCH  11  17
ATOM     17  C   UNL     1       3.403   3.042  18.156  0.00  0.00    +0.000 C 
ATOM     18  C   UNL     1       2.370   2.038  17.596  0.00  0.00    +0.000 C 
BRANCH  17  19
ATOM     19  N   UNL     1       4.356   2.250  18.962  0.00  0.00    +0.000 NA
ATOM     20  H   UNL     1       5.024   2.872  19.409  0.00  0.00    +0.000 HD
ATOM     21  H   UNL     1       4.878   1.623  18.354  0.00  0.00    +0.000 HD
ENDBRANCH  17  19
BRANCH  17  22
ATOM     22  C   UNL     1       4.120   3.733  16.923  0.00  0.00    +0.000 C 
BRANCH  22  24
ATOM     23  C   UNL     1       6.190   3.966  15.667  0.00  0.00    +0.000 C 
ATOM     24  N   UNL     1       5.595   3.776  16.978  0.00  0.00    +0.000 NA
ATOM     25  H   UNL     1       5.876   4.552  17.577  0.00  0.00    +0.000 HD
ENDBRANCH  22  24
ENDBRANCH  17  22
ENDBRANCH  11  17
ENDBRANCH   1  15
BRANCH   8  26
ATOM     26  C   UNL     1      -0.365   9.200  22.088  0.00  0.00    +0.000 C 
ATOM     27  F   UNL     1      -1.184  10.082  22.720  0.00  0.00    +0.000 F 
ATOM     28  F   UNL     1      -0.969   7.984  22.205  0.00  0.00    +0.000 F 
ATOM     29  F   UNL     1       0.762   9.127  22.850  0.00  0.00    +0.000 F 
ENDBRANCH   8  26
BRANCH   6  30
ATOM     30  C   UNL     1      -2.119  10.630  17.564  0.00  0.00    +0.000 C 
BRANCH  30  31
ATOM     31  C   UNL     1      -3.304   9.665  17.700  0.00  0.00    +0.000 C 
BRANCH  31  32
ATOM     32  N   UNL     1      -4.586  10.362  17.772  0.00  0.00    +0.000 NA
ATOM     33  C   UNL     1      -4.719  11.239  16.578  0.00  0.00    +0.000 C 
ATOM     34  C   UNL     1      -5.285  12.329  17.511  0.00  0.00    +0.000 C 
ATOM     35  C   UNL     1      -6.800  12.346  17.641  0.00  0.00    +0.000 C 
ATOM     36  C   UNL     1      -4.496  11.586  18.616  0.00  0.00    +0.000 C 
ENDBRANCH  31  32
ENDBRANCH  30  31
ENDBRANCH   6  30
TORSDOF 9
ENDMDL
MODEL 8
REMARK VINA RESULT:      -6.9      4.680      7.352
REMARK  Name = 
REMARK  12 active torsions:
REMARK  status: ('A' for Active; 'I' for Inactive)
REMARK    1  A    between atoms: C_1  and  N_2
REMARK    2  A    between atoms: N_2  and  C_3
REMARK    3  A    between atoms: C_3  and  C_4
REMARK    4  A    between atoms: C_4  and  C_5
REMARK    5  A    between atoms: C_4  and  N_6
REMARK    6  A    between atoms: C_4  and  C_7
REMARK    7  A    between atoms: C_11  and  N_12
REMARK    8  A    between atoms: C_17  and  C_18
REMARK    9  A    between atoms: C_18  and  C_19
REMARK   10  A    between atoms: C_19  and  N_20
REMARK   11  A    between atoms: C_22  and  C_23
REMARK   12  A    between atoms: C_26  and  C_27
REMARK                            x       y       z     vdW  Elec       q    Type
REMARK                         _______ _______ _______ _____ _____    ______ ____
ROOT
ATOM      1  N   UNL     1       0.753   8.279  21.317  0.00  0.00    +0.000 N 
ATOM      2  C   UNL     1      -0.498   8.602  20.590  0.00  0.00    +0.000 C 
ATOM      3  C   UNL     1      -0.352  10.073  20.352  0.00  0.00    +0.000 A 
ATOM      4  C   UNL     1       0.475  10.584  21.355  0.00  0.00    +0.000 A 
ATOM      5  C   UNL     1       0.990  11.869  21.340  0.00  0.00    +0.000 A 
ATOM      6  C   UNL     1       0.704  12.662  20.230  0.00  0.00    +0.000 A 
ATOM      7  C   UNL     1      -0.089  12.131  19.186  0.00  0.00    +0.000 A 
ATOM      8  C   UNL     1      -0.629  10.828  19.225  0.00  0.00    +0.000 A 
ATOM      9  C   UNL     1       1.127   9.435  22.021  0.00  0.00    +0.000 C 
ATOM     10  O   UNL     1       1.976   9.551  22.887  0.00  0.00    +0.000 OA
ENDROOT
BRANCH   1  15
ATOM     11  C   UNL     1       2.351   5.717  19.237  0.00  0.00    +0.000 A 
ATOM     12  C   UNL     1       2.399   6.439  18.031  0.00  0.00    +0.000 A 
ATOM     13  C   UNL     1       2.245   7.822  18.015  0.00  0.00    +0.000 A 
ATOM     14  C   UNL     1       1.986   8.501  19.198  0.00  0.00    +0.000 A 
ATOM     15  C   UNL     1       1.718   7.779  20.371  0.00  0.00    +0.000 A 
ATOM     16  C   UNL     1       1.965   6.411  20.400  0.00  0.00    +0.000 A 
BRANCH  11  17
ATOM     17  C   UNL     1       2.674   4.223  19.328  0.00  0.00    +0.000 C 
ATOM     18  C   UNL     1       1.785   3.366  18.399  0.00  0.00    +0.000 C 
BRANCH  17  19
ATOM     19  N   UNL     1       2.413   3.749  20.704  0.00  0.00    +0.000 NA
ATOM     20  H   UNL     1       2.653   2.764  20.777  0.00  0.00    +0.000 HD
ATOM     21  H   UNL     1       1.422   3.842  20.914  0.00  0.00    +0.000 HD
ENDBRANCH  17  19
BRANCH  17  22
ATOM     22  C   UNL     1       4.183   3.979  18.907  0.00  0.00    +0.000 C 
BRANCH  22  24
ATOM     23  C   UNL     1       4.969   3.908  16.607  0.00  0.00    +0.000 C 
ATOM     24  N   UNL     1       4.389   3.152  17.702  0.00  0.00    +0.000 NA
ATOM     25  H   UNL     1       5.021   2.386  17.938  0.00  0.00    +0.000 HD
ENDBRANCH  22  24
ENDBRANCH  17  22
ENDBRANCH  11  17
ENDBRANCH   1  15
BRANCH   8  26
ATOM     26  C   UNL     1      -1.326  10.307  17.991  0.00  0.00    +0.000 C 
ATOM     27  F   UNL     1      -2.461   9.600  18.237  0.00  0.00    +0.000 F 
ATOM     28  F   UNL     1      -1.688  11.306  17.140  0.00  0.00    +0.000 F 
ATOM     29  F   UNL     1      -0.521   9.479  17.268  0.00  0.00    +0.000 F 
ENDBRANCH   8  26
BRANCH   6  30
ATOM     30  C   UNL     1       1.390  14.011  20.111  0.00  0.00    +0.000 C 
BRANCH  30  31
ATOM     31  C   UNL     1       0.685  15.109  20.918  0.00  0.00    +0.000 C 
BRANCH  31  32
ATOM     32  N   UNL     1       0.403  16.297  20.117  0.00  0.00    +0.000 NA
ATOM     33  C   UNL     1      -0.999  16.218  19.625  0.00  0.00    +0.000 C 
ATOM     34  C   UNL     1      -0.489  16.726  18.260  0.00  0.00    +0.000 C 
ATOM     35  C   UNL     1      -0.550  18.232  18.068  0.00  0.00    +0.000 C 
ATOM     36  C   UNL     1       0.868  16.133  18.712  0.00  0.00    +0.000 C 
ENDBRANCH  31  32
ENDBRANCH  30  31
ENDBRANCH   6  30
TORSDOF 9
ENDMDL
MODEL 9
REMARK VINA RESULT:      -6.9      4.374      7.486
REMARK  Name = 
REMARK  12 active torsions:
REMARK  status: ('A' for Active; 'I' for Inactive)
REMARK    1  A    between atoms: C_1  and  N_2
REMARK    2  A    between atoms: N_2  and  C_3
REMARK    3  A    between atoms: C_3  and  C_4
REMARK    4  A    between atoms: C_4  and  C_5
REMARK    5  A    between atoms: C_4  and  N_6
REMARK    6  A    between atoms: C_4  and  C_7
REMARK    7  A    between atoms: C_11  and  N_12
REMARK    8  A    between atoms: C_17  and  C_18
REMARK    9  A    between atoms: C_18  and  C_19
REMARK   10  A    between atoms: C_19  and  N_20
REMARK   11  A    between atoms: C_22  and  C_23
REMARK   12  A    between atoms: C_26  and  C_27
REMARK                            x       y       z     vdW  Elec       q    Type
REMARK                         _______ _______ _______ _____ _____    ______ ____
ROOT
ATOM      1  N   UNL     1       0.284   9.354  20.833  0.00  0.00    +0.000 N 
ATOM      2  C   UNL     1      -0.968   9.276  20.045  0.00  0.00    +0.000 C 
ATOM      3  C   UNL     1      -1.108  10.677  19.536  0.00  0.00    +0.000 A 
ATOM      4  C   UNL     1      -0.452  11.521  20.435  0.00  0.00    +0.000 A 
ATOM      5  C   UNL     1      -0.203  12.860  20.185  0.00  0.00    +0.000 A 
ATOM      6  C   UNL     1      -0.587  13.362  18.943  0.00  0.00    +0.000 A 
ATOM      7  C   UNL     1      -1.205  12.499  18.008  0.00  0.00    +0.000 A 
ATOM      8  C   UNL     1      -1.475  11.142  18.285  0.00  0.00    +0.000 A 
ATOM      9  C   UNL     1       0.383  10.671  21.312  0.00  0.00    +0.000 C 
ATOM     10  O   UNL     1       1.148  11.114  22.151  0.00  0.00    +0.000 OA
ENDROOT
BRANCH   1  15
ATOM     11  C   UNL     1       2.359   6.843  19.151  0.00  0.00    +0.000 A 
ATOM     12  C   UNL     1       2.402   7.439  17.878  0.00  0.00    +0.000 A 
ATOM     13  C   UNL     1       2.069   8.779  17.700  0.00  0.00    +0.000 A 
ATOM     14  C   UNL     1       1.634   9.531  18.782  0.00  0.00    +0.000 A 
ATOM     15  C   UNL     1       1.375   8.901  20.010  0.00  0.00    +0.000 A 
ATOM     16  C   UNL     1       1.798   7.591  20.204  0.00  0.00    +0.000 A 
BRANCH  11  17
ATOM     17  C   UNL     1       2.869   5.426  19.426  0.00  0.00    +0.000 C 
ATOM     18  C   UNL     1       2.212   4.792  20.673  0.00  0.00    +0.000 C 
BRANCH  17  19
ATOM     19  N   UNL     1       4.320   5.473  19.702  0.00  0.00    +0.000 NA
ATOM     20  H   UNL     1       4.819   4.934  18.999  0.00  0.00    +0.000 HD
ATOM     21  H   UNL     1       4.509   5.049  20.607  0.00  0.00    +0.000 HD
ENDBRANCH  17  19
BRANCH  17  22
ATOM     22  C   UNL     1       2.544   4.494  18.186  0.00  0.00    +0.000 C 
BRANCH  22  24
ATOM     23  C   UNL     1       2.914   2.090  18.157  0.00  0.00    +0.000 C 
ATOM     24  N   UNL     1       1.998   3.161  18.508  0.00  0.00    +0.000 NA
ATOM     25  H   UNL     1       1.817   3.118  19.511  0.00  0.00    +0.000 HD
ENDBRANCH  22  24
ENDBRANCH  17  22
ENDBRANCH  11  17
ENDBRANCH   1  15
BRANCH   8  26
ATOM     26  C   UNL     1      -1.991  10.274  17.163  0.00  0.00    +0.000 C 
ATOM     27  F   UNL     1      -2.264  10.940  16.010  0.00  0.00    +0.000 F 
ATOM     28  F   UNL     1      -1.111   9.291  16.822  0.00  0.00    +0.000 F 
ATOM     29  F   UNL     1      -3.144   9.635  17.507  0.00  0.00    +0.000 F 
ENDBRANCH   8  26
BRANCH   6  30
ATOM     30  C   UNL     1      -0.180  14.780  18.580  0.00  0.00    +0.000 C 
BRANCH  30  31
ATOM     31  C   UNL     1       1.006  15.287  19.411  0.00  0.00    +0.000 C 
BRANCH  31  32
ATOM     32  N   UNL     1       2.268  15.219  18.680  0.00  0.00    +0.000 NA
ATOM     33  C   UNL     1       3.051  14.061  19.189  0.00  0.00    +0.000 C 
ATOM     34  C   UNL     1       4.304  14.960  19.145  0.00  0.00    +0.000 C 
ATOM     35  C   UNL     1       5.109  14.886  17.858  0.00  0.00    +0.000 C 
ATOM     36  C   UNL     1       3.292  16.125  19.272  0.00  0.00    +0.000 C 
ENDBRANCH  31  32
ENDBRANCH  30  31
ENDBRANCH   6  30
TORSDOF 9
ENDMDL
