MODEL 1
REMARK VINA RESULT:      -8.0      0.000      0.000
REMARK  Name = 
REMARK  5 active torsions:
REMARK  status: ('A' for Active; 'I' for Inactive)
REMARK    1  A    between atoms: C_1  and  C_2
REMARK    2  A    between atoms: C_4  and  C_5
REMARK    3  A    between atoms: N_6  and  C_7
REMARK    4  A    between atoms: C_10  and  N_11
REMARK    5  A    between atoms: C_12  and  C_14
REMARK                            x       y       z     vdW  Elec       q    Type
REMARK                         _______ _______ _______ _____ _____    ______ ____
ROOT
ATOM      1  C   UNL     1       3.119   6.810  18.320  0.00  0.00    +0.000 A 
ATOM      2  C   UNL     1       2.853   7.954  17.553  0.00  0.00    +0.000 A 
ATOM      3  C   UNL     1       1.996   8.971  18.055  0.00  0.00    +0.000 A 
ATOM      4  C   UNL     1       1.441   8.875  19.349  0.00  0.00    +0.000 A 
ATOM      5  C   UNL     1       1.777   7.735  20.083  0.00  0.00    +0.000 A 
ATOM      6  C   UNL     1       2.576   6.711  19.584  0.00  0.00    +0.000 A 
ATOM      7  F   UNL     1       2.872   5.691  20.402  0.00  0.00    +0.000 F 
ENDROOT
BRANCH   1  13
ATOM      8  C   UNL     1       7.251   4.549  17.135  0.00  0.00    +0.000 C 
ATOM      9  C   UNL     1       5.804   4.797  17.348  0.00  0.00    +0.000 A 
ATOM     10  C   UNL     1       4.775   3.863  17.146  0.00  0.00    +0.000 A 
ATOM     11  C   UNL     1       3.616   4.508  17.504  0.00  0.00    +0.000 A 
ATOM     12  C   UNL     1       2.224   4.020  17.442  0.00  0.00    +0.000 C 
ATOM     13  N   UNL     1       3.979   5.789  17.869  0.00  0.00    +0.000 N 
ATOM     14  N   UNL     1       5.324   5.979  17.761  0.00  0.00    +0.000 NA
ENDBRANCH   1  13
BRANCH   4  15
ATOM     15  N   UNL     1       0.588   9.895  19.914  0.00  0.00    +0.000 N 
ATOM     16  C   UNL     1      -0.597  10.414  19.279  0.00  0.00    +0.000 C 
ATOM     17  O   UNL     1      -1.004  10.041  18.185  0.00  0.00    +0.000 OA
ATOM     18  H   UNL     1       0.853  10.274  20.822  0.00  0.00    +0.000 HD
BRANCH  16  19
ATOM     19  C   UNL     1      -1.306  11.548  19.945  0.00  0.00    +0.000 A 
ATOM     20  N   UNL     1      -2.126  12.256  19.085  0.00  0.00    +0.000 NA
ATOM     21  N   UNL     1      -2.776  13.091  19.873  0.00  0.00    +0.000 N 
ATOM     22  C   UNL     1      -2.387  12.959  21.093  0.00  0.00    +0.000 A 
ATOM     23  N   UNL     1      -2.759  13.640  22.066  0.00  0.00    +0.000 NA
ATOM     24  C   UNL     1      -3.142  14.311  22.963  0.00  0.00    +0.000 A 
ATOM     25  C   UNL     1      -2.240  13.456  23.546  0.00  0.00    +0.000 A 
ATOM     26  C   UNL     1      -1.300  12.175  22.805  0.00  0.00    +0.000 A 
ATOM     27  C   UNL     1      -1.449  12.042  21.338  0.00  0.00    +0.000 A 
ATOM     28  H   UNL     1      -3.474  13.791  19.696  0.00  0.00    +0.000 HD
ENDBRANCH  16  19
ENDBRANCH   4  15
TORSDOF 3
ENDMDL
MODEL 2
REMARK VINA RESULT:      -8.0      7.349      8.884
REMARK  Name = 
REMARK  5 active torsions:
REMARK  status: ('A' for Active; 'I' for Inactive)
REMARK    1  A    between atoms: C_1  and  C_2
REMARK    2  A    between atoms: C_4  and  C_5
REMARK    3  A    between atoms: N_6  and  C_7
REMARK    4  A    between atoms: C_10  and  N_11
REMARK    5  A    between atoms: C_12  and  C_14
REMARK                            x       y       z     vdW  Elec       q    Type
REMARK                         _______ _______ _______ _____ _____    ______ ____
ROOT
ATOM      1  C   UNL     1       6.104   5.891  18.049  0.00  0.00    +0.000 A 
ATOM      2  C   UNL     1       7.360   5.965  18.669  0.00  0.00    +0.000 A 
ATOM      3  C   UNL     1       8.183   7.111  18.487  0.00  0.00    +0.000 A 
ATOM      4  C   UNL     1       7.733   8.211  17.727  0.00  0.00    +0.000 A 
ATOM      5  C   UNL     1       6.457   8.098  17.171  0.00  0.00    +0.000 A 
ATOM      6  C   UNL     1       5.662   6.963  17.303  0.00  0.00    +0.000 A 
ATOM      7  F   UNL     1       4.433   6.993  16.768  0.00  0.00    +0.000 F 
ENDROOT
BRANCH   1  13
ATOM      8  C   UNL     1       3.004   2.841  20.211  0.00  0.00    +0.000 C 
ATOM      9  C   UNL     1       3.881   3.443  19.178  0.00  0.00    +0.000 A 
ATOM     10  C   UNL     1       4.049   2.967  17.867  0.00  0.00    +0.000 A 
ATOM     11  C   UNL     1       4.910   3.850  17.262  0.00  0.00    +0.000 A 
ATOM     12  C   UNL     1       5.475   3.808  15.898  0.00  0.00    +0.000 C 
ATOM     13  N   UNL     1       5.248   4.785  18.219  0.00  0.00    +0.000 N 
ATOM     14  N   UNL     1       4.630   4.532  19.407  0.00  0.00    +0.000 NA
ENDBRANCH   1  13
BRANCH   4  15
ATOM     15  N   UNL     1       8.521   9.407  17.538  0.00  0.00    +0.000 N 
ATOM     16  C   UNL     1       9.076  10.199  18.606  0.00  0.00    +0.000 C 
ATOM     17  O   UNL     1       8.933   9.936  19.795  0.00  0.00    +0.000 OA
ATOM     18  H   UNL     1       8.685   9.709  16.579  0.00  0.00    +0.000 HD
BRANCH  16  19
ATOM     19  C   UNL     1       9.772  11.470  18.244  0.00  0.00    +0.000 A 
ATOM     20  N   UNL     1      11.019  11.265  17.684  0.00  0.00    +0.000 NA
ATOM     21  N   UNL     1      11.396  12.467  17.289  0.00  0.00    +0.000 N 
ATOM     22  C   UNL     1      10.507  13.345  17.596  0.00  0.00    +0.000 A 
ATOM     23  N   UNL     1      10.588  14.574  17.419  0.00  0.00    +0.000 NA
ATOM     24  C   UNL     1      10.708  15.738  17.229  0.00  0.00    +0.000 A 
ATOM     25  C   UNL     1       9.479  15.620  17.831  0.00  0.00    +0.000 A 
ATOM     26  C   UNL     1       8.652  14.173  18.372  0.00  0.00    +0.000 A 
ATOM     27  C   UNL     1       9.411  12.910  18.222  0.00  0.00    +0.000 A 
ATOM     28  H   UNL     1      12.222  12.805  16.828  0.00  0.00    +0.000 HD
ENDBRANCH  16  19
ENDBRANCH   4  15
TORSDOF 3
ENDMDL
MODEL 3
REMARK VINA RESULT:      -8.0      1.928      2.777
REMARK  Name = 
REMARK  5 active torsions:
REMARK  status: ('A' for Active; 'I' for Inactive)
REMARK    1  A    between atoms: C_1  and  C_2
REMARK    2  A    between atoms: C_4  and  C_5
REMARK    3  A    between atoms: N_6  and  C_7
REMARK    4  A    between atoms: C_10  and  N_11
REMARK    5  A    between atoms: C_12  and  C_14
REMARK                            x       y       z     vdW  Elec       q    Type
REMARK                         _______ _______ _______ _____ _____    ______ ____
ROOT
ATOM      1  C   UNL     1       4.311   6.139  17.581  0.00  0.00    +0.000 A 
ATOM      2  C   UNL     1       3.842   7.434  17.315  0.00  0.00    +0.000 A 
ATOM      3  C   UNL     1       2.883   8.040  18.172  0.00  0.00    +0.000 A 
ATOM      4  C   UNL     1       2.426   7.374  19.329  0.00  0.00    +0.000 A 
ATOM      5  C   UNL     1       2.961   6.106  19.566  0.00  0.00    +0.000 A 
ATOM      6  C   UNL     1       3.865   5.484  18.709  0.00  0.00    +0.000 A 
ATOM      7  F   UNL     1       4.349   4.288  19.069  0.00  0.00    +0.000 F 
ENDROOT
BRANCH   1  13
ATOM      8  C   UNL     1       6.193   3.689  13.833  0.00  0.00    +0.000 C 
ATOM      9  C   UNL     1       6.101   4.430  15.115  0.00  0.00    +0.000 A 
ATOM     10  C   UNL     1       7.184   4.771  15.942  0.00  0.00    +0.000 A 
ATOM     11  C   UNL     1       6.641   5.481  16.986  0.00  0.00    +0.000 A 
ATOM     12  C   UNL     1       7.311   6.040  18.177  0.00  0.00    +0.000 C 
ATOM     13  N   UNL     1       5.278   5.511  16.769  0.00  0.00    +0.000 N 
ATOM     14  N   UNL     1       4.936   4.853  15.626  0.00  0.00    +0.000 NA
ENDBRANCH   1  13
BRANCH   4  15
ATOM     15  N   UNL     1       1.474   7.959  20.245  0.00  0.00    +0.000 N 
ATOM     16  C   UNL     1       0.916   9.282  20.112  0.00  0.00    +0.000 C 
ATOM     17  O   UNL     1       1.198  10.052  19.200  0.00  0.00    +0.000 OA
ATOM     18  H   UNL     1       1.186   7.393  21.042  0.00  0.00    +0.000 HD
BRANCH  16  19
ATOM     19  C   UNL     1       0.030   9.779  21.206  0.00  0.00    +0.000 A 
ATOM     20  N   UNL     1       0.158   9.057  22.379  0.00  0.00    +0.000 NA
ATOM     21  N   UNL     1      -0.562   9.733  23.254  0.00  0.00    +0.000 N 
ATOM     22  C   UNL     1      -1.118  10.750  22.695  0.00  0.00    +0.000 A 
ATOM     23  N   UNL     1      -1.908  11.548  23.230  0.00  0.00    +0.000 NA
ATOM     24  C   UNL     1      -2.654  12.286  23.782  0.00  0.00    +0.000 A 
ATOM     25  C   UNL     1      -2.584  12.774  22.500  0.00  0.00    +0.000 A 
ATOM     26  C   UNL     1      -1.647  12.179  21.144  0.00  0.00    +0.000 A 
ATOM     27  C   UNL     1      -0.876  10.939  21.396  0.00  0.00    +0.000 A 
ATOM     28  H   UNL     1      -0.758   9.591  24.229  0.00  0.00    +0.000 HD
ENDBRANCH  16  19
ENDBRANCH   4  15
TORSDOF 3
ENDMDL
MODEL 4
REMARK VINA RESULT:      -7.9      1.442      1.855
REMARK  Name = 
REMARK  5 active torsions:
REMARK  status: ('A' for Active; 'I' for Inactive)
REMARK    1  A    between atoms: C_1  and  C_2
REMARK    2  A    between atoms: C_4  and  C_5
REMARK    3  A    between atoms: N_6  and  C_7
REMARK    4  A    between atoms: C_10  and  N_11
REMARK    5  A    between atoms: C_12  and  C_14
REMARK                            x       y       z     vdW  Elec       q    Type
REMARK                         _______ _______ _______ _____ _____    ______ ____
ROOT
ATOM      1  C   UNL     1       3.212   6.671  18.489  0.00  0.00    +0.000 A 
ATOM      2  C   UNL     1       2.939   7.839  17.761  0.00  0.00    +0.000 A 
ATOM      3  C   UNL     1       1.995   8.784  18.248  0.00  0.00    +0.000 A 
ATOM      4  C   UNL     1       1.356   8.592  19.491  0.00  0.00    +0.000 A 
ATOM      5  C   UNL     1       1.700   7.432  20.192  0.00  0.00    +0.000 A 
ATOM      6  C   UNL     1       2.587   6.478  19.703  0.00  0.00    +0.000 A 
ATOM      7  F   UNL     1       2.878   5.433  20.490  0.00  0.00    +0.000 F 
ENDROOT
BRANCH   1  13
ATOM      8  C   UNL     1       7.534   4.632  17.623  0.00  0.00    +0.000 C 
ATOM      9  C   UNL     1       6.064   4.826  17.675  0.00  0.00    +0.000 A 
ATOM     10  C   UNL     1       5.101   3.895  17.253  0.00  0.00    +0.000 A 
ATOM     11  C   UNL     1       3.885   4.475  17.522  0.00  0.00    +0.000 A 
ATOM     12  C   UNL     1       2.529   3.965  17.236  0.00  0.00    +0.000 C 
ATOM     13  N   UNL     1       4.156   5.720  18.054  0.00  0.00    +0.000 N 
ATOM     14  N   UNL     1       5.497   5.949  18.137  0.00  0.00    +0.000 NA
ENDBRANCH   1  13
BRANCH   4  15
ATOM     15  N   UNL     1       0.411   9.536  20.041  0.00  0.00    +0.000 N 
ATOM     16  C   UNL     1       0.559  10.195  21.314  0.00  0.00    +0.000 C 
ATOM     17  O   UNL     1       1.510  10.018  22.067  0.00  0.00    +0.000 OA
ATOM     18  H   UNL     1      -0.420   9.740  19.487  0.00  0.00    +0.000 HD
BRANCH  16  19
ATOM     19  C   UNL     1      -0.564  11.059  21.788  0.00  0.00    +0.000 A 
ATOM     20  N   UNL     1      -0.636  11.146  23.167  0.00  0.00    +0.000 NA
ATOM     21  N   UNL     1      -1.563  12.061  23.383  0.00  0.00    +0.000 N 
ATOM     22  C   UNL     1      -2.054  12.481  22.270  0.00  0.00    +0.000 A 
ATOM     23  N   UNL     1      -2.986  13.294  22.133  0.00  0.00    +0.000 NA
ATOM     24  C   UNL     1      -3.874  14.074  22.050  0.00  0.00    +0.000 A 
ATOM     25  C   UNL     1      -3.572  13.769  20.745  0.00  0.00    +0.000 A 
ATOM     26  C   UNL     1      -2.339  12.689  20.125  0.00  0.00    +0.000 A 
ATOM     27  C   UNL     1      -1.561  11.953  21.148  0.00  0.00    +0.000 A 
ATOM     28  H   UNL     1      -1.947  12.456  24.223  0.00  0.00    +0.000 HD
ENDBRANCH  16  19
ENDBRANCH   4  15
TORSDOF 3
ENDMDL
MODEL 5
REMARK VINA RESULT:      -7.9      2.532      9.688
REMARK  Name = 
REMARK  5 active torsions:
REMARK  status: ('A' for Active; 'I' for Inactive)
REMARK    1  A    between atoms: C_1  and  C_2
REMARK    2  A    between atoms: C_4  and  C_5
REMARK    3  A    between atoms: N_6  and  C_7
REMARK    4  A    between atoms: C_10  and  N_11
REMARK    5  A    between atoms: C_12  and  C_14
REMARK                            x       y       z     vdW  Elec       q    Type
REMARK                         _______ _______ _______ _____ _____    ______ ____
ROOT
ATOM      1  C   UNL     1      -0.530  10.698  21.948  0.00  0.00    +0.000 A 
ATOM      2  C   UNL     1       0.361   9.872  22.650  0.00  0.00    +0.000 A 
ATOM      3  C   UNL     1       1.178   8.941  21.952  0.00  0.00    +0.000 A 
ATOM      4  C   UNL     1       1.147   8.866  20.544  0.00  0.00    +0.000 A 
ATOM      5  C   UNL     1       0.272   9.743  19.896  0.00  0.00    +0.000 A 
ATOM      6  C   UNL     1      -0.566  10.625  20.572  0.00  0.00    +0.000 A 
ATOM      7  F   UNL     1      -1.322  11.455  19.840  0.00  0.00    +0.000 F 
ENDROOT
BRANCH   1  13
ATOM      8  C   UNL     1      -4.195  12.499  24.577  0.00  0.00    +0.000 C 
ATOM      9  C   UNL     1      -2.959  12.438  23.758  0.00  0.00    +0.000 A 
ATOM     10  C   UNL     1      -2.144  13.531  23.423  0.00  0.00    +0.000 A 
ATOM     11  C   UNL     1      -1.102  13.005  22.698  0.00  0.00    +0.000 A 
ATOM     12  C   UNL     1       0.024  13.705  22.048  0.00  0.00    +0.000 C 
ATOM     13  N   UNL     1      -1.342  11.649  22.598  0.00  0.00    +0.000 N 
ATOM     14  N   UNL     1      -2.492  11.294  23.236  0.00  0.00    +0.000 NA
ENDBRANCH   1  13
BRANCH   4  15
ATOM     15  N   UNL     1       1.977   7.957  19.789  0.00  0.00    +0.000 N 
ATOM     16  C   UNL     1       2.071   6.540  20.034  0.00  0.00    +0.000 C 
ATOM     17  O   UNL     1       1.452   5.957  20.917  0.00  0.00    +0.000 OA
ATOM     18  H   UNL     1       2.538   8.353  19.036  0.00  0.00    +0.000 HD
BRANCH  16  19
ATOM     19  C   UNL     1       3.063   5.757  19.236  0.00  0.00    +0.000 A 
ATOM     20  N   UNL     1       3.157   4.436  19.633  0.00  0.00    +0.000 NA
ATOM     21  N   UNL     1       3.940   3.883  18.726  0.00  0.00    +0.000 N 
ATOM     22  C   UNL     1       4.333   4.759  17.869  0.00  0.00    +0.000 A 
ATOM     23  N   UNL     1       5.127   4.572  16.930  0.00  0.00    +0.000 NA
ATOM     24  C   UNL     1       5.884   4.348  16.047  0.00  0.00    +0.000 A 
ATOM     25  C   UNL     1       5.598   5.684  15.912  0.00  0.00    +0.000 A 
ATOM     26  C   UNL     1       4.526   6.683  16.874  0.00  0.00    +0.000 A 
ATOM     27  C   UNL     1       3.896   6.010  18.033  0.00  0.00    +0.000 A 
ATOM     28  H   UNL     1       4.282   2.947  18.601  0.00  0.00    +0.000 HD
ENDBRANCH  16  19
ENDBRANCH   4  15
TORSDOF 3
ENDMDL
MODEL 6
REMARK VINA RESULT:      -7.9      2.226      9.618
REMARK  Name = 
REMARK  5 active torsions:
REMARK  status: ('A' for Active; 'I' for Inactive)
REMARK    1  A    between atoms: C_1  and  C_2
REMARK    2  A    between atoms: C_4  and  C_5
REMARK    3  A    between atoms: N_6  and  C_7
REMARK    4  A    between atoms: C_10  and  N_11
REMARK    5  A    between atoms: C_12  and  C_14
REMARK                            x       y       z     vdW  Elec       q    Type
REMARK                         _______ _______ _______ _____ _____    ______ ____
ROOT
ATOM      1  C   UNL     1      -0.557  10.799  21.931  0.00  0.00    +0.000 A 
ATOM      2  C   UNL     1      -0.431  10.789  20.534  0.00  0.00    +0.000 A 
ATOM      3  C   UNL     1       0.388   9.819  19.894  0.00  0.00    +0.000 A 
ATOM      4  C   UNL     1       1.045   8.821  20.644  0.00  0.00    +0.000 A 
ATOM      5  C   UNL     1       0.848   8.855  22.027  0.00  0.00    +0.000 A 
ATOM      6  C   UNL     1       0.086   9.827  22.667  0.00  0.00    +0.000 A 
ATOM      7  F   UNL     1      -0.074   9.724  23.994  0.00  0.00    +0.000 F 
ENDROOT
BRANCH   1  13
ATOM      8  C   UNL     1      -4.250  12.516  24.579  0.00  0.00    +0.000 C 
ATOM      9  C   UNL     1      -3.006  12.480  23.771  0.00  0.00    +0.000 A 
ATOM     10  C   UNL     1      -2.187  13.583  23.479  0.00  0.00    +0.000 A 
ATOM     11  C   UNL     1      -1.138  13.081  22.749  0.00  0.00    +0.000 A 
ATOM     12  C   UNL     1      -0.006  13.802  22.133  0.00  0.00    +0.000 C 
ATOM     13  N   UNL     1      -1.376  11.729  22.603  0.00  0.00    +0.000 N 
ATOM     14  N   UNL     1      -2.533  11.354  23.218  0.00  0.00    +0.000 NA
ENDBRANCH   1  13
BRANCH   4  15
ATOM     15  N   UNL     1       1.865   7.798  20.037  0.00  0.00    +0.000 N 
ATOM     16  C   UNL     1       2.308   7.811  18.666  0.00  0.00    +0.000 C 
ATOM     17  O   UNL     1       2.029   8.698  17.867  0.00  0.00    +0.000 OA
ATOM     18  H   UNL     1       2.141   7.013  20.625  0.00  0.00    +0.000 HD
BRANCH  16  19
ATOM     19  C   UNL     1       3.057   6.620  18.163  0.00  0.00    +0.000 A 
ATOM     20  N   UNL     1       2.552   5.422  18.636  0.00  0.00    +0.000 NA
ATOM     21  N   UNL     1       3.223   4.504  17.967  0.00  0.00    +0.000 N 
ATOM     22  C   UNL     1       4.086   5.051  17.184  0.00  0.00    +0.000 A 
ATOM     23  N   UNL     1       4.914   4.461  16.468  0.00  0.00    +0.000 NA
ATOM     24  C   UNL     1       5.685   3.858  15.800  0.00  0.00    +0.000 A 
ATOM     25  C   UNL     1       5.970   5.175  15.535  0.00  0.00    +0.000 A 
ATOM     26  C   UNL     1       5.200   6.617  16.168  0.00  0.00    +0.000 A 
ATOM     27  C   UNL     1       4.143   6.385  17.179  0.00  0.00    +0.000 A 
ATOM     28  H   UNL     1       3.194   3.500  17.973  0.00  0.00    +0.000 HD
ENDBRANCH  16  19
ENDBRANCH   4  15
TORSDOF 3
ENDMDL
MODEL 7
REMARK VINA RESULT:      -7.9      2.141      3.221
REMARK  Name = 
REMARK  5 active torsions:
REMARK  status: ('A' for Active; 'I' for Inactive)
REMARK    1  A    between atoms: C_1  and  C_2
REMARK    2  A    between atoms: C_4  and  C_5
REMARK    3  A    between atoms: N_6  and  C_7
REMARK    4  A    between atoms: C_10  and  N_11
REMARK    5  A    between atoms: C_12  and  C_14
REMARK                            x       y       z     vdW  Elec       q    Type
REMARK                         _______ _______ _______ _____ _____    ______ ____
ROOT
ATOM      1  C   UNL     1       4.509   5.689  17.741  0.00  0.00    +0.000 A 
ATOM      2  C   UNL     1       4.112   5.018  18.907  0.00  0.00    +0.000 A 
ATOM      3  C   UNL     1       3.206   5.633  19.814  0.00  0.00    +0.000 A 
ATOM      4  C   UNL     1       2.652   6.900  19.536  0.00  0.00    +0.000 A 
ATOM      5  C   UNL     1       3.051   7.500  18.338  0.00  0.00    +0.000 A 
ATOM      6  C   UNL     1       3.973   6.929  17.466  0.00  0.00    +0.000 A 
ATOM      7  F   UNL     1       4.237   7.576  16.323  0.00  0.00    +0.000 F 
ENDROOT
BRANCH   1  13
ATOM      8  C   UNL     1       6.038   3.660  13.601  0.00  0.00    +0.000 C 
ATOM      9  C   UNL     1       6.057   4.214  14.977  0.00  0.00    +0.000 A 
ATOM     10  C   UNL     1       7.193   4.344  15.793  0.00  0.00    +0.000 A 
ATOM     11  C   UNL     1       6.751   4.937  16.950  0.00  0.00    +0.000 A 
ATOM     12  C   UNL     1       7.508   5.262  18.175  0.00  0.00    +0.000 C 
ATOM     13  N   UNL     1       5.388   5.108  16.804  0.00  0.00    +0.000 N 
ATOM     14  N   UNL     1       4.951   4.651  15.598  0.00  0.00    +0.000 NA
ENDBRANCH   1  13
BRANCH   4  15
ATOM     15  N   UNL     1       1.707   7.552  20.412  0.00  0.00    +0.000 N 
ATOM     16  C   UNL     1       1.117   8.843  20.163  0.00  0.00    +0.000 C 
ATOM     17  O   UNL     1       1.361   9.526  19.175  0.00  0.00    +0.000 OA
ATOM     18  H   UNL     1       1.449   7.062  21.267  0.00  0.00    +0.000 HD
BRANCH  16  19
ATOM     19  C   UNL     1       0.243   9.428  21.225  0.00  0.00    +0.000 A 
ATOM     20  N   UNL     1       0.369   8.788  22.444  0.00  0.00    +0.000 NA
ATOM     21  N   UNL     1      -0.337   9.533  23.273  0.00  0.00    +0.000 N 
ATOM     22  C   UNL     1      -0.885  10.515  22.647  0.00  0.00    +0.000 A 
ATOM     23  N   UNL     1      -1.661  11.359  23.129  0.00  0.00    +0.000 NA
ATOM     24  C   UNL     1      -2.394  12.144  23.631  0.00  0.00    +0.000 A 
ATOM     25  C   UNL     1      -2.327  12.540  22.318  0.00  0.00    +0.000 A 
ATOM     26  C   UNL     1      -1.404  11.839  21.002  0.00  0.00    +0.000 A 
ATOM     27  C   UNL     1      -0.648  10.610  21.337  0.00  0.00    +0.000 A 
ATOM     28  H   UNL     1      -0.529   9.463  24.257  0.00  0.00    +0.000 HD
ENDBRANCH  16  19
ENDBRANCH   4  15
TORSDOF 3
ENDMDL
MODEL 8
REMARK VINA RESULT:      -7.8      1.700      1.880
REMARK  Name = 
REMARK  5 active torsions:
REMARK  status: ('A' for Active; 'I' for Inactive)
REMARK    1  A    between atoms: C_1  and  C_2
REMARK    2  A    between atoms: C_4  and  C_5
REMARK    3  A    between atoms: N_6  and  C_7
REMARK    4  A    between atoms: C_10  and  N_11
REMARK    5  A    between atoms: C_12  and  C_14
REMARK                            x       y       z     vdW  Elec       q    Type
REMARK                         _______ _______ _______ _____ _____    ______ ____
ROOT
ATOM      1  C   UNL     1       3.052   6.737  18.394  0.00  0.00    +0.000 A 
ATOM      2  C   UNL     1       2.749   7.904  17.676  0.00  0.00    +0.000 A 
ATOM      3  C   UNL     1       1.921   8.906  18.252  0.00  0.00    +0.000 A 
ATOM      4  C   UNL     1       1.432   8.771  19.569  0.00  0.00    +0.000 A 
ATOM      5  C   UNL     1       1.803   7.608  20.250  0.00  0.00    +0.000 A 
ATOM      6  C   UNL     1       2.574   6.600  19.680  0.00  0.00    +0.000 A 
ATOM      7  F   UNL     1       2.909   5.556  20.450  0.00  0.00    +0.000 F 
ENDROOT
BRANCH   1  13
ATOM      8  C   UNL     1       7.114   4.512  16.930  0.00  0.00    +0.000 C 
ATOM      9  C   UNL     1       5.680   4.753  17.226  0.00  0.00    +0.000 A 
ATOM     10  C   UNL     1       4.640   3.826  17.049  0.00  0.00    +0.000 A 
ATOM     11  C   UNL     1       3.502   4.460  17.486  0.00  0.00    +0.000 A 
ATOM     12  C   UNL     1       2.108   3.974  17.481  0.00  0.00    +0.000 C 
ATOM     13  N   UNL     1       3.886   5.729  17.869  0.00  0.00    +0.000 N 
ATOM     14  N   UNL     1       5.224   5.923  17.698  0.00  0.00    +0.000 NA
ENDBRANCH   1  13
BRANCH   4  15
ATOM     15  N   UNL     1       0.611   9.773  20.207  0.00  0.00    +0.000 N 
ATOM     16  C   UNL     1       0.712  10.151  21.594  0.00  0.00    +0.000 C 
ATOM     17  O   UNL     1       1.510   9.654  22.380  0.00  0.00    +0.000 OA
ATOM     18  H   UNL     1      -0.090  10.237  19.631  0.00  0.00    +0.000 HD
BRANCH  16  19
ATOM     19  C   UNL     1      -0.288  11.126  22.126  0.00  0.00    +0.000 A 
ATOM     20  N   UNL     1      -1.208  10.546  22.981  0.00  0.00    +0.000 NA
ATOM     21  N   UNL     1      -1.887  11.569  23.464  0.00  0.00    +0.000 N 
ATOM     22  C   UNL     1      -1.474  12.673  22.948  0.00  0.00    +0.000 A 
ATOM     23  N   UNL     1      -1.948  13.806  23.147  0.00  0.00    +0.000 NA
ATOM     24  C   UNL     1      -2.429  14.867  23.367  0.00  0.00    +0.000 A 
ATOM     25  C   UNL     1      -1.421  15.135  22.475  0.00  0.00    +0.000 A 
ATOM     26  C   UNL     1      -0.281  14.028  21.735  0.00  0.00    +0.000 A 
ATOM     27  C   UNL     1      -0.476  12.597  22.065  0.00  0.00    +0.000 A 
ATOM     28  H   UNL     1      -2.645  11.635  24.120  0.00  0.00    +0.000 HD
ENDBRANCH  16  19
ENDBRANCH   4  15
TORSDOF 3
ENDMDL
MODEL 9
REMARK VINA RESULT:      -7.8      1.706      1.795
REMARK  Name = 
REMARK  5 active torsions:
REMARK  status: ('A' for Active; 'I' for Inactive)
REMARK    1  A    between atoms: C_1  and  C_2
REMARK    2  A    between atoms: C_4  and  C_5
REMARK    3  A    between atoms: N_6  and  C_7
REMARK    4  A    between atoms: C_10  and  N_11
REMARK    5  A    between atoms: C_12  and  C_14
REMARK                            x       y       z     vdW  Elec       q    Type
REMARK                         _______ _______ _______ _____ _____    ______ ____
ROOT
ATOM      1  C   UNL     1       2.539   7.096  18.592  0.00  0.00    +0.000 A 
ATOM      2  C   UNL     1       2.139   8.265  17.927  0.00  0.00    +0.000 A 
ATOM      3  C   UNL     1       1.411   9.271  18.620  0.00  0.00    +0.000 A 
ATOM      4  C   UNL     1       1.123   9.137  19.995  0.00  0.00    +0.000 A 
ATOM      5  C   UNL     1       1.585   7.973  20.614  0.00  0.00    +0.000 A 
ATOM      6  C   UNL     1       2.258   6.961  19.935  0.00  0.00    +0.000 A 
ATOM      7  F   UNL     1       2.698   5.914  20.647  0.00  0.00    +0.000 F 
ENDROOT
BRANCH   1  13
ATOM      8  C   UNL     1       6.329   4.846  16.552  0.00  0.00    +0.000 C 
ATOM      9  C   UNL     1       4.955   5.097  17.051  0.00  0.00    +0.000 A 
ATOM     10  C   UNL     1       3.892   4.179  17.022  0.00  0.00    +0.000 A 
ATOM     11  C   UNL     1       2.835   4.820  17.620  0.00  0.00    +0.000 A 
ATOM     12  C   UNL     1       1.450   4.345  17.813  0.00  0.00    +0.000 C 
ATOM     13  N   UNL     1       3.281   6.084  17.949  0.00  0.00    +0.000 N 
ATOM     14  N   UNL     1       4.582   6.268  17.588  0.00  0.00    +0.000 NA
ENDBRANCH   1  13
BRANCH   4  15
ATOM     15  N   UNL     1       0.412  10.144  20.748  0.00  0.00    +0.000 N 
ATOM     16  C   UNL     1       0.814  11.524  20.852  0.00  0.00    +0.000 C 
ATOM     17  O   UNL     1       1.810  11.987  20.309  0.00  0.00    +0.000 OA
ATOM     18  H   UNL     1      -0.428   9.848  21.243  0.00  0.00    +0.000 HD
BRANCH  16  19
ATOM     19  C   UNL     1       0.030  12.412  21.763  0.00  0.00    +0.000 A 
ATOM     20  N   UNL     1       0.543  13.694  21.843  0.00  0.00    +0.000 NA
ATOM     21  N   UNL     1      -0.356  14.357  22.546  0.00  0.00    +0.000 N 
ATOM     22  C   UNL     1      -1.315  13.578  22.906  0.00  0.00    +0.000 A 
ATOM     23  N   UNL     1      -2.282  13.880  23.628  0.00  0.00    +0.000 NA
ATOM     24  C   UNL     1      -3.188  14.213  24.317  0.00  0.00    +0.000 A 
ATOM     25  C   UNL     1      -3.429  12.885  24.062  0.00  0.00    +0.000 A 
ATOM     26  C   UNL     1      -2.498  11.763  23.090  0.00  0.00    +0.000 A 
ATOM     27  C   UNL     1      -1.242  12.303  22.519  0.00  0.00    +0.000 A 
ATOM     28  H   UNL     1      -0.414  15.312  22.849  0.00  0.00    +0.000 HD
ENDBRANCH  16  19
ENDBRANCH   4  15
TORSDOF 3
ENDMDL
