MODEL 1
REMARK VINA RESULT:      -8.3      0.000      0.000
REMARK  Name = 
REMARK  4 active torsions:
REMARK  status: ('A' for Active; 'I' for Inactive)
REMARK    1  A    between atoms: C_5  and  O_6
REMARK    2  A    between atoms: O_6  and  C_7
REMARK    3  A    between atoms: C_10  and  C_11
REMARK    4  A    between atoms: C_14  and  C_15
REMARK                            x       y       z     vdW  Elec       q    Type
REMARK                         _______ _______ _______ _____ _____    ______ ____
ROOT
ATOM      1  C   UNL     1       2.220   7.631  19.447  0.00  0.00    +0.000 A 
ATOM      2  C   UNL     1       2.303   8.166  18.174  0.00  0.00    +0.000 A 
ATOM      3  C   UNL     1       1.716   9.415  17.949  0.00  0.00    +0.000 A 
ATOM      4  C   UNL     1       1.056  10.081  18.989  0.00  0.00    +0.000 A 
ATOM      5  C   UNL     1       1.005   9.436  20.219  0.00  0.00    +0.000 A 
ATOM      6  N   UNL     1       1.551   8.222  20.462  0.00  0.00    +0.000 NA
ENDROOT
BRANCH   4   7
ATOM      7  C   UNL     1       0.441  11.386  18.824  0.00  0.00    +0.000 A 
ATOM      8  N   UNL     1      -0.732  11.593  18.205  0.00  0.00    +0.000 NA
ATOM      9  O   UNL     1      -0.913  12.972  18.295  0.00  0.00    +0.000 OA
ATOM     10  C   UNL     1       0.179  13.473  18.946  0.00  0.00    +0.000 A 
ATOM     11  N   UNL     1       1.029  12.535  19.301  0.00  0.00    +0.000 NA
BRANCH  10  12
ATOM     12  C   UNL     1       0.371  14.961  19.202  0.00  0.00    +0.000 C 
ATOM     13  C   UNL     1       1.382  15.391  20.244  0.00  0.00    +0.000 C 
ATOM     14  C   UNL     1       1.670  15.659  18.792  0.00  0.00    +0.000 C 
ATOM     15  C   UNL     1       2.812  14.941  18.119  0.00  0.00    +0.000 C 
ATOM     16  C   UNL     1       3.349  15.975  17.139  0.00  0.00    +0.000 C 
ATOM     17  N   UNL     1       2.974  17.256  17.738  0.00  0.00    +0.000 NA
ATOM     18  C   UNL     1       1.623  17.072  18.272  0.00  0.00    +0.000 C 
ATOM     19  H   UNL     1       2.983  17.995  17.038  0.00  0.00    +0.000 HD
ENDBRANCH  10  12
ENDBRANCH   4   7
BRANCH   1  20
ATOM     20  O   UNL     1       2.910   6.444  19.703  0.00  0.00    +0.000 OA
BRANCH  20  25
ATOM     21  F   UNL     1       0.386   1.685  18.562  0.00  0.00    +0.000 F 
ATOM     22  C   UNL     1       0.976   2.860  18.818  0.00  0.00    +0.000 A 
ATOM     23  C   UNL     1       0.854   3.433  20.080  0.00  0.00    +0.000 A 
ATOM     24  C   UNL     1       1.495   4.645  20.362  0.00  0.00    +0.000 A 
ATOM     25  C   UNL     1       2.262   5.268  19.369  0.00  0.00    +0.000 A 
ATOM     26  C   UNL     1       2.316   4.710  18.085  0.00  0.00    +0.000 A 
ATOM     27  C   UNL     1       1.698   3.492  17.815  0.00  0.00    +0.000 A 
ENDBRANCH  20  25
ENDBRANCH   1  20
TORSDOF 4
ENDMDL
MODEL 2
REMARK VINA RESULT:      -8.3      3.131      4.342
REMARK  Name = 
REMARK  4 active torsions:
REMARK  status: ('A' for Active; 'I' for Inactive)
REMARK    1  A    between atoms: C_5  and  O_6
REMARK    2  A    between atoms: O_6  and  C_7
REMARK    3  A    between atoms: C_10  and  C_11
REMARK    4  A    between atoms: C_14  and  C_15
REMARK                            x       y       z     vdW  Elec       q    Type
REMARK                         _______ _______ _______ _____ _____    ______ ____
ROOT
ATOM      1  C   UNL     1       1.970   7.821  19.733  0.00  0.00    +0.000 A 
ATOM      2  C   UNL     1       1.827   8.625  18.615  0.00  0.00    +0.000 A 
ATOM      3  C   UNL     1       1.058   9.787  18.739  0.00  0.00    +0.000 A 
ATOM      4  C   UNL     1       0.450  10.103  19.960  0.00  0.00    +0.000 A 
ATOM      5  C   UNL     1       0.633   9.208  21.007  0.00  0.00    +0.000 A 
ATOM      6  N   UNL     1       1.359   8.069  20.913  0.00  0.00    +0.000 NA
ENDROOT
BRANCH   4   7
ATOM      7  C   UNL     1      -0.346  11.302  20.157  0.00  0.00    +0.000 A 
ATOM      8  N   UNL     1      -1.107  11.865  19.205  0.00  0.00    +0.000 NA
ATOM      9  O   UNL     1      -1.674  12.965  19.846  0.00  0.00    +0.000 OA
ATOM     10  C   UNL     1      -1.187  12.975  21.122  0.00  0.00    +0.000 A 
ATOM     11  N   UNL     1      -0.379  11.965  21.362  0.00  0.00    +0.000 NA
BRANCH  10  12
ATOM     12  C   UNL     1      -1.544  14.058  22.131  0.00  0.00    +0.000 C 
ATOM     13  C   UNL     1      -2.781  14.896  21.885  0.00  0.00    +0.000 C 
ATOM     14  C   UNL     1      -2.779  13.912  23.023  0.00  0.00    +0.000 C 
ATOM     15  C   UNL     1      -3.696  12.717  22.970  0.00  0.00    +0.000 C 
ATOM     16  C   UNL     1      -4.095  12.514  24.425  0.00  0.00    +0.000 C 
ATOM     17  N   UNL     1      -3.954  13.845  25.017  0.00  0.00    +0.000 NA
ATOM     18  C   UNL     1      -2.735  14.416  24.442  0.00  0.00    +0.000 C 
ATOM     19  H   UNL     1      -3.875  13.779  26.030  0.00  0.00    +0.000 HD
ENDBRANCH  10  12
ENDBRANCH   4   7
BRANCH   1  20
ATOM     20  O   UNL     1       2.834   6.729  19.644  0.00  0.00    +0.000 OA
BRANCH  20  25
ATOM     21  F   UNL     1       0.420   1.881  18.648  0.00  0.00    +0.000 F 
ATOM     22  C   UNL     1       1.035   3.043  18.907  0.00  0.00    +0.000 A 
ATOM     23  C   UNL     1       1.625   3.758  17.869  0.00  0.00    +0.000 A 
ATOM     24  C   UNL     1       2.240   4.988  18.131  0.00  0.00    +0.000 A 
ATOM     25  C   UNL     1       2.249   5.492  19.438  0.00  0.00    +0.000 A 
ATOM     26  C   UNL     1       1.709   4.725  20.479  0.00  0.00    +0.000 A 
ATOM     27  C   UNL     1       1.076   3.515  20.212  0.00  0.00    +0.000 A 
ENDBRANCH  20  25
ENDBRANCH   1  20
TORSDOF 4
ENDMDL
MODEL 3
REMARK VINA RESULT:      -8.3      3.193      4.462
REMARK  Name = 
REMARK  4 active torsions:
REMARK  status: ('A' for Active; 'I' for Inactive)
REMARK    1  A    between atoms: C_5  and  O_6
REMARK    2  A    between atoms: O_6  and  C_7
REMARK    3  A    between atoms: C_10  and  C_11
REMARK    4  A    between atoms: C_14  and  C_15
REMARK                            x       y       z     vdW  Elec       q    Type
REMARK                         _______ _______ _______ _____ _____    ______ ____
ROOT
ATOM      1  C   UNL     1       1.978   7.863  19.820  0.00  0.00    +0.000 A 
ATOM      2  C   UNL     1       1.330   8.063  21.026  0.00  0.00    +0.000 A 
ATOM      3  C   UNL     1       0.398   9.103  21.104  0.00  0.00    +0.000 A 
ATOM      4  C   UNL     1       0.152   9.914  19.989  0.00  0.00    +0.000 A 
ATOM      5  C   UNL     1       0.883   9.644  18.838  0.00  0.00    +0.000 A 
ATOM      6  N   UNL     1       1.803   8.655  18.739  0.00  0.00    +0.000 NA
ENDROOT
BRANCH   4   7
ATOM      7  C   UNL     1      -0.815  10.997  20.000  0.00  0.00    +0.000 A 
ATOM      8  N   UNL     1      -1.754  11.180  19.058  0.00  0.00    +0.000 NA
ATOM      9  O   UNL     1      -2.434  12.317  19.488  0.00  0.00    +0.000 OA
ATOM     10  C   UNL     1      -1.831  12.727  20.643  0.00  0.00    +0.000 A 
ATOM     11  N   UNL     1      -0.842  11.940  21.003  0.00  0.00    +0.000 NA
BRANCH  10  12
ATOM     12  C   UNL     1      -2.268  13.974  21.401  0.00  0.00    +0.000 C 
ATOM     13  C   UNL     1      -3.674  14.492  21.192  0.00  0.00    +0.000 C 
ATOM     14  C   UNL     1      -3.311  13.879  22.517  0.00  0.00    +0.000 C 
ATOM     15  C   UNL     1      -3.954  12.581  22.934  0.00  0.00    +0.000 C 
ATOM     16  C   UNL     1      -4.100  12.729  24.442  0.00  0.00    +0.000 C 
ATOM     17  N   UNL     1      -4.162  14.176  24.650  0.00  0.00    +0.000 NA
ATOM     18  C   UNL     1      -3.180  14.758  23.733  0.00  0.00    +0.000 C 
ATOM     19  H   UNL     1      -3.934  14.410  25.613  0.00  0.00    +0.000 HD
ENDBRANCH  10  12
ENDBRANCH   4   7
BRANCH   1  20
ATOM     20  O   UNL     1       2.816   6.753  19.707  0.00  0.00    +0.000 OA
BRANCH  20  25
ATOM     21  F   UNL     1       0.286   1.986  18.613  0.00  0.00    +0.000 F 
ATOM     22  C   UNL     1       0.929   3.127  18.896  0.00  0.00    +0.000 A 
ATOM     23  C   UNL     1       1.517   3.860  17.869  0.00  0.00    +0.000 A 
ATOM     24  C   UNL     1       2.161   5.069  18.155  0.00  0.00    +0.000 A 
ATOM     25  C   UNL     1       2.203   5.535  19.475  0.00  0.00    +0.000 A 
ATOM     26  C   UNL     1       1.664   4.749  20.503  0.00  0.00    +0.000 A 
ATOM     27  C   UNL     1       1.001   3.560  20.212  0.00  0.00    +0.000 A 
ENDBRANCH  20  25
ENDBRANCH   1  20
TORSDOF 4
ENDMDL
MODEL 4
REMARK VINA RESULT:      -8.2      6.591      7.427
REMARK  Name = 
REMARK  4 active torsions:
REMARK  status: ('A' for Active; 'I' for Inactive)
REMARK    1  A    between atoms: C_5  and  O_6
REMARK    2  A    between atoms: O_6  and  C_7
REMARK    3  A    between atoms: C_10  and  C_11
REMARK    4  A    between atoms: C_14  and  C_15
REMARK                            x       y       z     vdW  Elec       q    Type
REMARK                         _______ _______ _______ _____ _____    ______ ____
ROOT
ATOM      1  C   UNL     1       6.644   5.495  17.675  0.00  0.00    +0.000 A 
ATOM      2  C   UNL     1       7.665   5.608  18.602  0.00  0.00    +0.000 A 
ATOM      3  C   UNL     1       8.247   6.868  18.785  0.00  0.00    +0.000 A 
ATOM      4  C   UNL     1       7.804   7.964  18.033  0.00  0.00    +0.000 A 
ATOM      5  C   UNL     1       6.795   7.728  17.107  0.00  0.00    +0.000 A 
ATOM      6  N   UNL     1       6.225   6.518  16.898  0.00  0.00    +0.000 NA
ENDROOT
BRANCH   4   7
ATOM      7  C   UNL     1       8.355   9.298  18.187  0.00  0.00    +0.000 A 
ATOM      8  N   UNL     1       8.022  10.345  17.415  0.00  0.00    +0.000 NA
ATOM      9  O   UNL     1       8.785  11.390  17.932  0.00  0.00    +0.000 OA
ATOM     10  C   UNL     1       9.523  10.873  18.958  0.00  0.00    +0.000 A 
ATOM     11  N   UNL     1       9.282   9.596  19.160  0.00  0.00    +0.000 NA
BRANCH  10  12
ATOM     12  C   UNL     1      10.521  11.704  19.754  0.00  0.00    +0.000 C 
ATOM     13  C   UNL     1      12.000  11.453  19.546  0.00  0.00    +0.000 C 
ATOM     14  C   UNL     1      11.400  12.742  19.052  0.00  0.00    +0.000 C 
ATOM     15  C   UNL     1      11.336  13.009  17.571  0.00  0.00    +0.000 C 
ATOM     16  C   UNL     1      11.555  14.512  17.474  0.00  0.00    +0.000 C 
ATOM     17  N   UNL     1      12.317  14.836  18.681  0.00  0.00    +0.000 NA
ATOM     18  C   UNL     1      11.731  14.033  19.755  0.00  0.00    +0.000 C 
ATOM     19  H   UNL     1      12.243  15.828  18.895  0.00  0.00    +0.000 HD
ENDBRANCH  10  12
ENDBRANCH   4   7
BRANCH   1  20
ATOM     20  O   UNL     1       5.983   4.269  17.581  0.00  0.00    +0.000 OA
BRANCH  20  25
ATOM     21  F   UNL     1       0.786   4.141  19.398  0.00  0.00    +0.000 F 
ATOM     22  C   UNL     1       2.059   4.145  18.979  0.00  0.00    +0.000 A 
ATOM     23  C   UNL     1       2.365   3.687  17.701  0.00  0.00    +0.000 A 
ATOM     24  C   UNL     1       3.689   3.720  17.247  0.00  0.00    +0.000 A 
ATOM     25  C   UNL     1       4.695   4.220  18.084  0.00  0.00    +0.000 A 
ATOM     26  C   UNL     1       4.375   4.612  19.391  0.00  0.00    +0.000 A 
ATOM     27  C   UNL     1       3.054   4.603  19.830  0.00  0.00    +0.000 A 
ENDBRANCH  20  25
ENDBRANCH   1  20
TORSDOF 4
ENDMDL
MODEL 5
REMARK VINA RESULT:      -8.2      3.547      4.738
REMARK  Name = 
REMARK  4 active torsions:
REMARK  status: ('A' for Active; 'I' for Inactive)
REMARK    1  A    between atoms: C_5  and  O_6
REMARK    2  A    between atoms: O_6  and  C_7
REMARK    3  A    between atoms: C_10  and  C_11
REMARK    4  A    between atoms: C_14  and  C_15
REMARK                            x       y       z     vdW  Elec       q    Type
REMARK                         _______ _______ _______ _____ _____    ______ ____
ROOT
ATOM      1  C   UNL     1       2.276   7.647  18.695  0.00  0.00    +0.000 A 
ATOM      2  C   UNL     1       1.713   8.825  18.237  0.00  0.00    +0.000 A 
ATOM      3  C   UNL     1       1.073   9.651  19.167  0.00  0.00    +0.000 A 
ATOM      4  C   UNL     1       1.002   9.273  20.514  0.00  0.00    +0.000 A 
ATOM      5  C   UNL     1       1.572   8.053  20.858  0.00  0.00    +0.000 A 
ATOM      6  N   UNL     1       2.184   7.226  19.977  0.00  0.00    +0.000 NA
ENDROOT
BRANCH   4   7
ATOM      7  C   UNL     1       0.367  10.093  21.530  0.00  0.00    +0.000 A 
ATOM      8  N   UNL     1       0.032   9.652  22.753  0.00  0.00    +0.000 NA
ATOM      9  O   UNL     1      -0.532  10.772  23.362  0.00  0.00    +0.000 OA
ATOM     10  C   UNL     1      -0.501  11.781  22.443  0.00  0.00    +0.000 A 
ATOM     11  N   UNL     1       0.054  11.414  21.309  0.00  0.00    +0.000 NA
BRANCH  10  12
ATOM     12  C   UNL     1      -1.071  13.166  22.723  0.00  0.00    +0.000 C 
ATOM     13  C   UNL     1      -2.142  13.707  21.802  0.00  0.00    +0.000 C 
ATOM     14  C   UNL     1      -2.512  13.328  23.209  0.00  0.00    +0.000 C 
ATOM     15  C   UNL     1      -3.439  12.162  23.443  0.00  0.00    +0.000 C 
ATOM     16  C   UNL     1      -4.242  12.589  24.663  0.00  0.00    +0.000 C 
ATOM     17  N   UNL     1      -4.204  14.052  24.616  0.00  0.00    +0.000 NA
ATOM     18  C   UNL     1      -2.844  14.407  24.208  0.00  0.00    +0.000 C 
ATOM     19  H   UNL     1      -4.416  14.445  25.530  0.00  0.00    +0.000 HD
ENDBRANCH  10  12
ENDBRANCH   4   7
BRANCH   1  20
ATOM     20  O   UNL     1       3.018   6.884  17.793  0.00  0.00    +0.000 OA
BRANCH  20  25
ATOM     21  F   UNL     1       2.747   1.447  18.626  0.00  0.00    +0.000 F 
ATOM     22  C   UNL     1       2.831   2.764  18.392  0.00  0.00    +0.000 A 
ATOM     23  C   UNL     1       1.689   3.476  18.036  0.00  0.00    +0.000 A 
ATOM     24  C   UNL     1       1.767   4.857  17.823  0.00  0.00    +0.000 A 
ATOM     25  C   UNL     1       2.995   5.513  17.976  0.00  0.00    +0.000 A 
ATOM     26  C   UNL     1       4.145   4.767  18.268  0.00  0.00    +0.000 A 
ATOM     27  C   UNL     1       4.060   3.398  18.505  0.00  0.00    +0.000 A 
ENDBRANCH  20  25
ENDBRANCH   1  20
TORSDOF 4
ENDMDL
MODEL 6
REMARK VINA RESULT:      -8.2      4.402      8.878
REMARK  Name = 
REMARK  4 active torsions:
REMARK  status: ('A' for Active; 'I' for Inactive)
REMARK    1  A    between atoms: C_5  and  O_6
REMARK    2  A    between atoms: O_6  and  C_7
REMARK    3  A    between atoms: C_10  and  C_11
REMARK    4  A    between atoms: C_14  and  C_15
REMARK                            x       y       z     vdW  Elec       q    Type
REMARK                         _______ _______ _______ _____ _____    ______ ____
ROOT
ATOM      1  C   UNL     1       0.746  10.680  21.099  0.00  0.00    +0.000 A 
ATOM      2  C   UNL     1       0.860   9.585  21.938  0.00  0.00    +0.000 A 
ATOM      3  C   UNL     1       1.378   8.401  21.404  0.00  0.00    +0.000 A 
ATOM      4  C   UNL     1       1.750   8.340  20.055  0.00  0.00    +0.000 A 
ATOM      5  C   UNL     1       1.561   9.489  19.296  0.00  0.00    +0.000 A 
ATOM      6  N   UNL     1       1.049  10.644  19.782  0.00  0.00    +0.000 NA
ENDROOT
BRANCH   4   7
ATOM      7  C   UNL     1       2.308   7.146  19.445  0.00  0.00    +0.000 A 
ATOM      8  N   UNL     1       2.194   5.913  19.962  0.00  0.00    +0.000 NA
ATOM      9  O   UNL     1       2.868   5.109  19.044  0.00  0.00    +0.000 OA
ATOM     10  C   UNL     1       3.342   5.935  18.066  0.00  0.00    +0.000 A 
ATOM     11  N   UNL     1       3.011   7.192  18.263  0.00  0.00    +0.000 NA
BRANCH  10  12
ATOM     12  C   UNL     1       4.175   5.430  16.895  0.00  0.00    +0.000 C 
ATOM     13  C   UNL     1       5.001   6.428  16.111  0.00  0.00    +0.000 C 
ATOM     14  C   UNL     1       5.703   5.418  16.978  0.00  0.00    +0.000 C 
ATOM     15  C   UNL     1       6.465   5.886  18.191  0.00  0.00    +0.000 C 
ATOM     16  C   UNL     1       7.646   4.927  18.257  0.00  0.00    +0.000 C 
ATOM     17  N   UNL     1       7.822   4.489  16.871  0.00  0.00    +0.000 NA
ATOM     18  C   UNL     1       6.473   4.294  16.336  0.00  0.00    +0.000 C 
ATOM     19  H   UNL     1       8.350   3.620  16.835  0.00  0.00    +0.000 HD
ENDBRANCH  10  12
ENDBRANCH   4   7
BRANCH   1  20
ATOM     20  O   UNL     1       0.346  11.893  21.660  0.00  0.00    +0.000 OA
BRANCH  20  25
ATOM     21  F   UNL     1      -5.056  12.768  22.271  0.00  0.00    +0.000 F 
ATOM     22  C   UNL     1      -3.748  12.519  22.128  0.00  0.00    +0.000 A 
ATOM     23  C   UNL     1      -3.155  12.646  20.875  0.00  0.00    +0.000 A 
ATOM     24  C   UNL     1      -1.782  12.419  20.727  0.00  0.00    +0.000 A 
ATOM     25  C   UNL     1      -1.014  12.071  21.845  0.00  0.00    +0.000 A 
ATOM     26  C   UNL     1      -1.642  11.881  23.084  0.00  0.00    +0.000 A 
ATOM     27  C   UNL     1      -3.003  12.133  23.233  0.00  0.00    +0.000 A 
ENDBRANCH  20  25
ENDBRANCH   1  20
TORSDOF 4
ENDMDL
MODEL 7
REMARK VINA RESULT:      -8.1      3.281      4.548
REMARK  Name = 
REMARK  4 active torsions:
REMARK  status: ('A' for Active; 'I' for Inactive)
REMARK    1  A    between atoms: C_5  and  O_6
REMARK    2  A    between atoms: O_6  and  C_7
REMARK    3  A    between atoms: C_10  and  C_11
REMARK    4  A    between atoms: C_14  and  C_15
REMARK                            x       y       z     vdW  Elec       q    Type
REMARK                         _______ _______ _______ _____ _____    ______ ____
ROOT
ATOM      1  C   UNL     1       2.442   7.466  18.580  0.00  0.00    +0.000 A 
ATOM      2  C   UNL     1       2.068   8.513  17.757  0.00  0.00    +0.000 A 
ATOM      3  C   UNL     1       1.367   9.579  18.330  0.00  0.00    +0.000 A 
ATOM      4  C   UNL     1       1.052   9.562  19.695  0.00  0.00    +0.000 A 
ATOM      5  C   UNL     1       1.448   8.445  20.420  0.00  0.00    +0.000 A 
ATOM      6  N   UNL     1       2.113   7.392  19.889  0.00  0.00    +0.000 NA
ENDROOT
BRANCH   4   7
ATOM      7  C   UNL     1       0.342  10.645  20.352  0.00  0.00    +0.000 A 
ATOM      8  N   UNL     1       0.188  11.872  19.830  0.00  0.00    +0.000 NA
ATOM      9  O   UNL     1      -0.549  12.551  20.798  0.00  0.00    +0.000 OA
ATOM     10  C   UNL     1      -0.757  11.675  21.825  0.00  0.00    +0.000 A 
ATOM     11  N   UNL     1      -0.240  10.489  21.589  0.00  0.00    +0.000 NA
BRANCH  10  12
ATOM     12  C   UNL     1      -1.496  12.062  23.099  0.00  0.00    +0.000 C 
ATOM     13  C   UNL     1      -1.716  13.531  23.390  0.00  0.00    +0.000 C 
ATOM     14  C   UNL     1      -2.897  12.673  23.028  0.00  0.00    +0.000 C 
ATOM     15  C   UNL     1      -3.623  12.922  21.731  0.00  0.00    +0.000 C 
ATOM     16  C   UNL     1      -5.074  12.615  22.074  0.00  0.00    +0.000 C 
ATOM     17  N   UNL     1      -5.154  12.858  23.515  0.00  0.00    +0.000 NA
ATOM     18  C   UNL     1      -3.915  12.325  24.084  0.00  0.00    +0.000 C 
ATOM     19  H   UNL     1      -5.962  12.385  23.913  0.00  0.00    +0.000 HD
ENDBRANCH  10  12
ENDBRANCH   4   7
BRANCH   1  20
ATOM     20  O   UNL     1       3.245   6.462  18.035  0.00  0.00    +0.000 OA
BRANCH  20  25
ATOM     21  F   UNL     1       1.759   1.338  19.399  0.00  0.00    +0.000 F 
ATOM     22  C   UNL     1       2.148   2.571  19.047  0.00  0.00    +0.000 A 
ATOM     23  C   UNL     1       1.350   3.328  18.194  0.00  0.00    +0.000 A 
ATOM     24  C   UNL     1       1.736   4.629  17.849  0.00  0.00    +0.000 A 
ATOM     25  C   UNL     1       2.922   5.160  18.372  0.00  0.00    +0.000 A 
ATOM     26  C   UNL     1       3.744   4.357  19.174  0.00  0.00    +0.000 A 
ATOM     27  C   UNL     1       3.346   3.073  19.536  0.00  0.00    +0.000 A 
ENDBRANCH  20  25
ENDBRANCH   1  20
TORSDOF 4
ENDMDL
MODEL 8
REMARK VINA RESULT:      -8.1      2.708      3.785
REMARK  Name = 
REMARK  4 active torsions:
REMARK  status: ('A' for Active; 'I' for Inactive)
REMARK    1  A    between atoms: C_5  and  O_6
REMARK    2  A    between atoms: O_6  and  C_7
REMARK    3  A    between atoms: C_10  and  C_11
REMARK    4  A    between atoms: C_14  and  C_15
REMARK                            x       y       z     vdW  Elec       q    Type
REMARK                         _______ _______ _______ _____ _____    ______ ____
ROOT
ATOM      1  C   UNL     1       2.095   7.726  19.549  0.00  0.00    +0.000 A 
ATOM      2  C   UNL     1       1.996   8.454  18.376  0.00  0.00    +0.000 A 
ATOM      3  C   UNL     1       1.272   9.651  18.407  0.00  0.00    +0.000 A 
ATOM      4  C   UNL     1       0.662  10.075  19.595  0.00  0.00    +0.000 A 
ATOM      5  C   UNL     1       0.799   9.249  20.704  0.00  0.00    +0.000 A 
ATOM      6  N   UNL     1       1.480   8.079  20.700  0.00  0.00    +0.000 NA
ENDROOT
BRANCH   4   7
ATOM      7  C   UNL     1      -0.088  11.314  19.696  0.00  0.00    +0.000 A 
ATOM      8  N   UNL     1       0.208  12.431  19.013  0.00  0.00    +0.000 NA
ATOM      9  O   UNL     1      -0.771  13.335  19.423  0.00  0.00    +0.000 OA
ATOM     10  C   UNL     1      -1.556  12.684  20.331  0.00  0.00    +0.000 A 
ATOM     11  N   UNL     1      -1.183  11.438  20.520  0.00  0.00    +0.000 NA
BRANCH  10  12
ATOM     12  C   UNL     1      -2.721  13.359  21.044  0.00  0.00    +0.000 C 
ATOM     13  C   UNL     1      -3.414  12.613  22.164  0.00  0.00    +0.000 C 
ATOM     14  C   UNL     1      -2.580  13.820  22.497  0.00  0.00    +0.000 C 
ATOM     15  C   UNL     1      -1.314  13.647  23.296  0.00  0.00    +0.000 C 
ATOM     16  C   UNL     1      -1.257  14.910  24.143  0.00  0.00    +0.000 C 
ATOM     17  N   UNL     1      -2.657  15.320  24.259  0.00  0.00    +0.000 NA
ATOM     18  C   UNL     1      -3.255  15.091  22.943  0.00  0.00    +0.000 C 
ATOM     19  H   UNL     1      -2.722  16.303  24.515  0.00  0.00    +0.000 HD
ENDBRANCH  10  12
ENDBRANCH   4   7
BRANCH   1  20
ATOM     20  O   UNL     1       2.916   6.598  19.548  0.00  0.00    +0.000 OA
BRANCH  20  25
ATOM     21  F   UNL     1       0.352   1.815  18.613  0.00  0.00    +0.000 F 
ATOM     22  C   UNL     1       1.002   2.960  18.859  0.00  0.00    +0.000 A 
ATOM     23  C   UNL     1       1.638   3.629  17.817  0.00  0.00    +0.000 A 
ATOM     24  C   UNL     1       2.291   4.843  18.064  0.00  0.00    +0.000 A 
ATOM     25  C   UNL     1       2.292   5.378  19.358  0.00  0.00    +0.000 A 
ATOM     26  C   UNL     1       1.704   4.655  20.405  0.00  0.00    +0.000 A 
ATOM     27  C   UNL     1       1.034   3.461  20.153  0.00  0.00    +0.000 A 
ENDBRANCH  20  25
ENDBRANCH   1  20
TORSDOF 4
ENDMDL
MODEL 9
REMARK VINA RESULT:      -8.1      2.945      4.387
REMARK  Name = 
REMARK  4 active torsions:
REMARK  status: ('A' for Active; 'I' for Inactive)
REMARK    1  A    between atoms: C_5  and  O_6
REMARK    2  A    between atoms: O_6  and  C_7
REMARK    3  A    between atoms: C_10  and  C_11
REMARK    4  A    between atoms: C_14  and  C_15
REMARK                            x       y       z     vdW  Elec       q    Type
REMARK                         _______ _______ _______ _____ _____    ______ ____
ROOT
ATOM      1  C   UNL     1       2.049   7.791  19.514  0.00  0.00    +0.000 A 
ATOM      2  C   UNL     1       1.875   8.518  18.349  0.00  0.00    +0.000 A 
ATOM      3  C   UNL     1       1.115   9.691  18.416  0.00  0.00    +0.000 A 
ATOM      4  C   UNL     1       0.546  10.093  19.631  0.00  0.00    +0.000 A 
ATOM      5  C   UNL     1       0.759   9.270  20.731  0.00  0.00    +0.000 A 
ATOM      6  N   UNL     1       1.476   8.122  20.692  0.00  0.00    +0.000 NA
ENDROOT
BRANCH   4   7
ATOM      7  C   UNL     1      -0.238  11.307  19.770  0.00  0.00    +0.000 A 
ATOM      8  N   UNL     1      -0.209  12.326  18.897  0.00  0.00    +0.000 NA
ATOM      9  O   UNL     1      -1.109  13.245  19.434  0.00  0.00    +0.000 OA
ATOM     10  C   UNL     1      -1.585  12.702  20.593  0.00  0.00    +0.000 A 
ATOM     11  N   UNL     1      -1.089  11.508  20.832  0.00  0.00    +0.000 NA
BRANCH  10  12
ATOM     12  C   UNL     1      -2.570  13.430  21.498  0.00  0.00    +0.000 C 
ATOM     13  C   UNL     1      -3.286  14.648  20.956  0.00  0.00    +0.000 C 
ATOM     14  C   UNL     1      -4.071  13.389  21.203  0.00  0.00    +0.000 C 
ATOM     15  C   UNL     1      -4.661  12.643  20.034  0.00  0.00    +0.000 C 
ATOM     16  C   UNL     1      -5.968  12.095  20.588  0.00  0.00    +0.000 C 
ATOM     17  N   UNL     1      -6.311  13.024  21.665  0.00  0.00    +0.000 NA
ATOM     18  C   UNL     1      -5.053  13.336  22.345  0.00  0.00    +0.000 C 
ATOM     19  H   UNL     1      -6.969  12.595  22.312  0.00  0.00    +0.000 HD
ENDBRANCH  10  12
ENDBRANCH   4   7
BRANCH   1  20
ATOM     20  O   UNL     1       2.905   6.690  19.473  0.00  0.00    +0.000 OA
BRANCH  20  25
ATOM     21  F   UNL     1       0.468   1.827  18.614  0.00  0.00    +0.000 F 
ATOM     22  C   UNL     1       1.088   2.993  18.842  0.00  0.00    +0.000 A 
ATOM     23  C   UNL     1       1.724   3.653  17.794  0.00  0.00    +0.000 A 
ATOM     24  C   UNL     1       2.344   4.887  18.021  0.00  0.00    +0.000 A 
ATOM     25  C   UNL     1       2.313   5.451  19.303  0.00  0.00    +0.000 A 
ATOM     26  C   UNL     1       1.727   4.739  20.358  0.00  0.00    +0.000 A 
ATOM     27  C   UNL     1       1.088   3.524  20.124  0.00  0.00    +0.000 A 
ENDBRANCH  20  25
ENDBRANCH   1  20
TORSDOF 4
ENDMDL
