MODEL 1
REMARK VINA RESULT:      -8.8      0.000      0.000
REMARK  Name = 
REMARK  5 active torsions:
REMARK  status: ('A' for Active; 'I' for Inactive)
REMARK    1  A    between atoms: C_2  and  C_16
REMARK    2  A    between atoms: C_7  and  C_8
REMARK    3  A    between atoms: C_8  and  C_9
REMARK    4  A    between atoms: N_21  and  C_22
REMARK    5  A    between atoms: C_22  and  C_23
REMARK                            x       y       z     vdW  Elec       q    Type
REMARK                         _______ _______ _______ _____ _____    ______ ____
ROOT
ATOM      1  O   UNL     1       2.234   6.041  20.038  0.00  0.00    +0.000 OA
ATOM      2  C   UNL     1       2.322   7.088  19.404  0.00  0.00    +0.000 C 
ATOM      3  N   UNL     1       3.093   7.347  18.296  0.00  0.00    +0.000 N 
ATOM      4  C   UNL     1       3.874   6.352  17.775  0.00  0.00    +0.000 A 
ATOM      5  N   UNL     1       3.796   5.068  18.025  0.00  0.00    +0.000 NA
ATOM      6  C   UNL     1       4.839   4.412  17.421  0.00  0.00    +0.000 A 
ATOM      7  C   UNL     1       5.714   5.210  16.710  0.00  0.00    +0.000 A 
ATOM      8  S   UNL     1       5.130   6.835  16.724  0.00  0.00    +0.000 S 
ATOM      9  H   UNL     1       3.189   8.297  17.961  0.00  0.00    +0.000 HD
ENDROOT
BRANCH   2  10
ATOM     10  C   UNL     1       1.551   8.293  19.934  0.00  0.00    +0.000 A 
ATOM     11  C   UNL     1       1.355   8.322  21.399  0.00  0.00    +0.000 A 
ATOM     12  C   UNL     1       0.772   9.403  21.911  0.00  0.00    +0.000 A 
ATOM     13  C   UNL     1       0.314  10.498  21.034  0.00  0.00    +0.000 A 
ATOM     14  O   UNL     1      -0.218  11.480  21.553  0.00  0.00    +0.000 OA
ATOM     15  N   UNL     1       0.494  10.312  19.668  0.00  0.00    +0.000 N 
ATOM     16  N   UNL     1       1.140   9.209  19.106  0.00  0.00    +0.000 NA
BRANCH  15  17
ATOM     17  C   UNL     1      -0.033  11.322  18.750  0.00  0.00    +0.000 C 
BRANCH  17  18
ATOM     18  C   UNL     1      -1.451  11.052  18.296  0.00  0.00    +0.000 A 
ATOM     19  C   UNL     1      -2.507  11.850  18.761  0.00  0.00    +0.000 A 
ATOM     20  C   UNL     1      -3.817  11.616  18.337  0.00  0.00    +0.000 A 
ATOM     21  C   UNL     1      -4.086  10.583  17.441  0.00  0.00    +0.000 A 
ATOM     22  C   UNL     1      -3.047   9.786  16.967  0.00  0.00    +0.000 A 
ATOM     23  C   UNL     1      -1.736  10.014  17.397  0.00  0.00    +0.000 A 
ENDBRANCH  17  18
ENDBRANCH  15  17
ENDBRANCH   2  10
BRANCH   7  24
ATOM     24  C   UNL     1       7.000   4.822  16.050  0.00  0.00    +0.000 C 
BRANCH  24  25
ATOM     25  C   UNL     1       6.867   4.576  14.567  0.00  0.00    +0.000 A 
ATOM     26  C   UNL     1       5.861   3.727  14.082  0.00  0.00    +0.000 A 
ATOM     27  C   UNL     1       5.757   3.458  12.717  0.00  0.00    +0.000 A 
ATOM     28  C   UNL     1       6.649   4.042  11.820  0.00  0.00    +0.000 A 
ATOM     29  C   UNL     1       7.642   4.901  12.286  0.00  0.00    +0.000 A 
ATOM     30  C   UNL     1       7.754   5.166  13.654  0.00  0.00    +0.000 A 
ENDBRANCH  24  25
ENDBRANCH   7  24
TORSDOF 5
ENDMDL
MODEL 2
REMARK VINA RESULT:      -8.8      4.385     11.013
REMARK  Name = 
REMARK  5 active torsions:
REMARK  status: ('A' for Active; 'I' for Inactive)
REMARK    1  A    between atoms: C_2  and  C_16
REMARK    2  A    between atoms: C_7  and  C_8
REMARK    3  A    between atoms: C_8  and  C_9
REMARK    4  A    between atoms: N_21  and  C_22
REMARK    5  A    between atoms: C_22  and  C_23
REMARK                            x       y       z     vdW  Elec       q    Type
REMARK                         _______ _______ _______ _____ _____    ______ ____
ROOT
ATOM      1  O   UNL     1      -0.154   8.988  22.146  0.00  0.00    +0.000 OA
ATOM      2  C   UNL     1       0.118   9.637  21.141  0.00  0.00    +0.000 C 
ATOM      3  N   UNL     1      -0.335  10.886  20.788  0.00  0.00    +0.000 N 
ATOM      4  C   UNL     1      -1.188  11.551  21.625  0.00  0.00    +0.000 A 
ATOM      5  N   UNL     1      -1.443  11.277  22.881  0.00  0.00    +0.000 NA
ATOM      6  C   UNL     1      -2.455  12.083  23.337  0.00  0.00    +0.000 A 
ATOM      7  C   UNL     1      -2.973  12.971  22.415  0.00  0.00    +0.000 A 
ATOM      8  S   UNL     1      -2.067  12.849  20.950  0.00  0.00    +0.000 S 
ATOM      9  H   UNL     1      -0.153  11.244  19.860  0.00  0.00    +0.000 HD
ENDROOT
BRANCH   2  10
ATOM     10  C   UNL     1       1.005   8.968  20.096  0.00  0.00    +0.000 A 
ATOM     11  C   UNL     1       1.063   9.650  18.786  0.00  0.00    +0.000 A 
ATOM     12  C   UNL     1       1.899   9.152  17.879  0.00  0.00    +0.000 A 
ATOM     13  C   UNL     1       2.698   7.947  18.174  0.00  0.00    +0.000 A 
ATOM     14  O   UNL     1       3.460   7.523  17.305  0.00  0.00    +0.000 OA
ATOM     15  N   UNL     1       2.495   7.359  19.418  0.00  0.00    +0.000 N 
ATOM     16  N   UNL     1       1.656   7.884  20.404  0.00  0.00    +0.000 NA
BRANCH  15  17
ATOM     17  C   UNL     1       3.186   6.106  19.721  0.00  0.00    +0.000 C 
BRANCH  17  18
ATOM     18  C   UNL     1       2.368   4.870  19.419  0.00  0.00    +0.000 A 
ATOM     19  C   UNL     1       2.448   4.258  18.160  0.00  0.00    +0.000 A 
ATOM     20  C   UNL     1       1.706   3.109  17.878  0.00  0.00    +0.000 A 
ATOM     21  C   UNL     1       0.877   2.557  18.853  0.00  0.00    +0.000 A 
ATOM     22  C   UNL     1       0.791   3.151  20.110  0.00  0.00    +0.000 A 
ATOM     23  C   UNL     1       1.528   4.306  20.391  0.00  0.00    +0.000 A 
ENDBRANCH  17  18
ENDBRANCH  15  17
ENDBRANCH   2  10
BRANCH   7  24
ATOM     24  C   UNL     1      -4.148  13.885  22.562  0.00  0.00    +0.000 C 
BRANCH  24  25
ATOM     25  C   UNL     1      -5.478  13.171  22.516  0.00  0.00    +0.000 A 
ATOM     26  C   UNL     1      -6.230  13.007  23.689  0.00  0.00    +0.000 A 
ATOM     27  C   UNL     1      -7.438  12.310  23.664  0.00  0.00    +0.000 A 
ATOM     28  C   UNL     1      -7.914  11.779  22.468  0.00  0.00    +0.000 A 
ATOM     29  C   UNL     1      -7.185  11.949  21.292  0.00  0.00    +0.000 A 
ATOM     30  C   UNL     1      -5.971  12.640  21.315  0.00  0.00    +0.000 A 
ENDBRANCH  24  25
ENDBRANCH   7  24
TORSDOF 5
ENDMDL
MODEL 3
REMARK VINA RESULT:      -8.5      2.965     10.520
REMARK  Name = 
REMARK  5 active torsions:
REMARK  status: ('A' for Active; 'I' for Inactive)
REMARK    1  A    between atoms: C_2  and  C_16
REMARK    2  A    between atoms: C_7  and  C_8
REMARK    3  A    between atoms: C_8  and  C_9
REMARK    4  A    between atoms: N_21  and  C_22
REMARK    5  A    between atoms: C_22  and  C_23
REMARK                            x       y       z     vdW  Elec       q    Type
REMARK                         _______ _______ _______ _____ _____    ______ ____
ROOT
ATOM      1  O   UNL     1       2.217   8.236  18.883  0.00  0.00    +0.000 OA
ATOM      2  C   UNL     1       1.884   7.528  19.829  0.00  0.00    +0.000 C 
ATOM      3  N   UNL     1       1.062   7.851  20.882  0.00  0.00    +0.000 N 
ATOM      4  C   UNL     1       0.499   9.096  20.937  0.00  0.00    +0.000 A 
ATOM      5  N   UNL     1       0.414   9.972  19.967  0.00  0.00    +0.000 NA
ATOM      6  C   UNL     1      -0.090  11.154  20.449  0.00  0.00    +0.000 A 
ATOM      7  C   UNL     1      -0.385  11.170  21.798  0.00  0.00    +0.000 A 
ATOM      8  S   UNL     1      -0.111   9.595  22.451  0.00  0.00    +0.000 S 
ATOM      9  H   UNL     1       0.991   7.226  21.675  0.00  0.00    +0.000 HD
ENDROOT
BRANCH   2  10
ATOM     10  C   UNL     1       2.507   6.139  19.915  0.00  0.00    +0.000 A 
ATOM     11  C   UNL     1       1.634   5.089  20.482  0.00  0.00    +0.000 A 
ATOM     12  C   UNL     1       2.105   3.845  20.486  0.00  0.00    +0.000 A 
ATOM     13  C   UNL     1       3.458   3.551  19.976  0.00  0.00    +0.000 A 
ATOM     14  O   UNL     1       3.851   2.384  19.998  0.00  0.00    +0.000 OA
ATOM     15  N   UNL     1       4.204   4.640  19.538  0.00  0.00    +0.000 N 
ATOM     16  N   UNL     1       3.720   5.949  19.484  0.00  0.00    +0.000 NA
BRANCH  15  17
ATOM     17  C   UNL     1       5.587   4.417  19.118  0.00  0.00    +0.000 C 
BRANCH  17  18
ATOM     18  C   UNL     1       5.791   4.506  17.622  0.00  0.00    +0.000 A 
ATOM     19  C   UNL     1       7.015   4.949  17.100  0.00  0.00    +0.000 A 
ATOM     20  C   UNL     1       7.216   5.022  15.719  0.00  0.00    +0.000 A 
ATOM     21  C   UNL     1       6.197   4.650  14.845  0.00  0.00    +0.000 A 
ATOM     22  C   UNL     1       4.978   4.203  15.349  0.00  0.00    +0.000 A 
ATOM     23  C   UNL     1       4.772   4.137  16.731  0.00  0.00    +0.000 A 
ENDBRANCH  17  18
ENDBRANCH  15  17
ENDBRANCH   2  10
BRANCH   7  24
ATOM     24  C   UNL     1      -0.826  12.326  22.640  0.00  0.00    +0.000 C 
BRANCH  24  25
ATOM     25  C   UNL     1      -2.314  12.580  22.584  0.00  0.00    +0.000 A 
ATOM     26  C   UNL     1      -3.095  12.445  23.741  0.00  0.00    +0.000 A 
ATOM     27  C   UNL     1      -4.475  12.634  23.691  0.00  0.00    +0.000 A 
ATOM     28  C   UNL     1      -5.091  12.970  22.488  0.00  0.00    +0.000 A 
ATOM     29  C   UNL     1      -4.325  13.124  21.333  0.00  0.00    +0.000 A 
ATOM     30  C   UNL     1      -2.943  12.927  21.379  0.00  0.00    +0.000 A 
ENDBRANCH  24  25
ENDBRANCH   7  24
TORSDOF 5
ENDMDL
MODEL 4
REMARK VINA RESULT:      -8.5      2.640      9.584
REMARK  Name = 
REMARK  5 active torsions:
REMARK  status: ('A' for Active; 'I' for Inactive)
REMARK    1  A    between atoms: C_2  and  C_16
REMARK    2  A    between atoms: C_7  and  C_8
REMARK    3  A    between atoms: C_8  and  C_9
REMARK    4  A    between atoms: N_21  and  C_22
REMARK    5  A    between atoms: C_22  and  C_23
REMARK                            x       y       z     vdW  Elec       q    Type
REMARK                         _______ _______ _______ _____ _____    ______ ____
ROOT
ATOM      1  O   UNL     1       1.328   6.410  21.028  0.00  0.00    +0.000 OA
ATOM      2  C   UNL     1       1.914   6.518  19.955  0.00  0.00    +0.000 C 
ATOM      3  N   UNL     1       2.045   7.638  19.169  0.00  0.00    +0.000 N 
ATOM      4  C   UNL     1       1.491   8.818  19.583  0.00  0.00    +0.000 A 
ATOM      5  N   UNL     1       1.059   9.114  20.785  0.00  0.00    +0.000 NA
ATOM      6  C   UNL     1       0.443  10.340  20.769  0.00  0.00    +0.000 A 
ATOM      7  C   UNL     1       0.407  10.974  19.543  0.00  0.00    +0.000 A 
ATOM      8  S   UNL     1       1.279  10.024  18.394  0.00  0.00    +0.000 S 
ATOM      9  H   UNL     1       2.423   7.555  18.234  0.00  0.00    +0.000 HD
ENDROOT
BRANCH   2  10
ATOM     10  C   UNL     1       2.512   5.250  19.355  0.00  0.00    +0.000 A 
ATOM     11  C   UNL     1       1.842   3.991  19.744  0.00  0.00    +0.000 A 
ATOM     12  C   UNL     1       2.273   2.872  19.167  0.00  0.00    +0.000 A 
ATOM     13  C   UNL     1       3.397   2.902  18.212  0.00  0.00    +0.000 A 
ATOM     14  O   UNL     1       3.760   1.842  17.701  0.00  0.00    +0.000 OA
ATOM     15  N   UNL     1       3.986   4.142  17.989  0.00  0.00    +0.000 N 
ATOM     16  N   UNL     1       3.528   5.338  18.547  0.00  0.00    +0.000 NA
BRANCH  15  17
ATOM     17  C   UNL     1       5.167   4.211  17.129  0.00  0.00    +0.000 C 
BRANCH  17  18
ATOM     18  C   UNL     1       6.203   5.210  17.594  0.00  0.00    +0.000 A 
ATOM     19  C   UNL     1       6.383   6.417  16.902  0.00  0.00    +0.000 A 
ATOM     20  C   UNL     1       7.328   7.351  17.334  0.00  0.00    +0.000 A 
ATOM     21  C   UNL     1       8.101   7.091  18.463  0.00  0.00    +0.000 A 
ATOM     22  C   UNL     1       7.929   5.899  19.164  0.00  0.00    +0.000 A 
ATOM     23  C   UNL     1       6.989   4.960  18.729  0.00  0.00    +0.000 A 
ENDBRANCH  17  18
ENDBRANCH  15  17
ENDBRANCH   2  10
BRANCH   7  24
ATOM     24  C   UNL     1      -0.290  12.246  19.173  0.00  0.00    +0.000 C 
BRANCH  24  25
ATOM     25  C   UNL     1      -1.770  12.074  18.930  0.00  0.00    +0.000 A 
ATOM     26  C   UNL     1      -2.225  11.488  17.739  0.00  0.00    +0.000 A 
ATOM     27  C   UNL     1      -3.590  11.366  17.486  0.00  0.00    +0.000 A 
ATOM     28  C   UNL     1      -4.518  11.817  18.421  0.00  0.00    +0.000 A 
ATOM     29  C   UNL     1      -4.081  12.386  19.616  0.00  0.00    +0.000 A 
ATOM     30  C   UNL     1      -2.713  12.518  19.870  0.00  0.00    +0.000 A 
ENDBRANCH  24  25
ENDBRANCH   7  24
TORSDOF 5
ENDMDL
MODEL 5
REMARK VINA RESULT:      -8.3      3.454     10.493
REMARK  Name = 
REMARK  5 active torsions:
REMARK  status: ('A' for Active; 'I' for Inactive)
REMARK    1  A    between atoms: C_2  and  C_16
REMARK    2  A    between atoms: C_7  and  C_8
REMARK    3  A    between atoms: C_8  and  C_9
REMARK    4  A    between atoms: N_21  and  C_22
REMARK    5  A    between atoms: C_22  and  C_23
REMARK                            x       y       z     vdW  Elec       q    Type
REMARK                         _______ _______ _______ _____ _____    ______ ____
ROOT
ATOM      1  O   UNL     1       2.206   8.089  18.955  0.00  0.00    +0.000 OA
ATOM      2  C   UNL     1       1.859   7.417  19.921  0.00  0.00    +0.000 C 
ATOM      3  N   UNL     1       1.042   7.787  20.962  0.00  0.00    +0.000 N 
ATOM      4  C   UNL     1       0.499   9.042  20.976  0.00  0.00    +0.000 A 
ATOM      5  N   UNL     1       0.431   9.889  19.978  0.00  0.00    +0.000 NA
ATOM      6  C   UNL     1      -0.055  11.094  20.422  0.00  0.00    +0.000 A 
ATOM      7  C   UNL     1      -0.352  11.157  21.769  0.00  0.00    +0.000 A 
ATOM      8  S   UNL     1      -0.105   9.599  22.473  0.00  0.00    +0.000 S 
ATOM      9  H   UNL     1       0.958   7.189  21.774  0.00  0.00    +0.000 HD
ENDROOT
BRANCH   2  10
ATOM     10  C   UNL     1       2.459   6.021  20.053  0.00  0.00    +0.000 A 
ATOM     11  C   UNL     1       1.725   5.100  20.947  0.00  0.00    +0.000 A 
ATOM     12  C   UNL     1       2.161   3.845  21.014  0.00  0.00    +0.000 A 
ATOM     13  C   UNL     1       3.349   3.419  20.251  0.00  0.00    +0.000 A 
ATOM     14  O   UNL     1       3.715   2.246  20.343  0.00  0.00    +0.000 OA
ATOM     15  N   UNL     1       3.990   4.403  19.505  0.00  0.00    +0.000 N 
ATOM     16  N   UNL     1       3.532   5.716  19.383  0.00  0.00    +0.000 NA
BRANCH  15  17
ATOM     17  C   UNL     1       5.231   4.056  18.811  0.00  0.00    +0.000 C 
BRANCH  17  18
ATOM     18  C   UNL     1       6.060   5.256  18.410  0.00  0.00    +0.000 A 
ATOM     19  C   UNL     1       7.214   5.593  19.133  0.00  0.00    +0.000 A 
ATOM     20  C   UNL     1       7.992   6.692  18.760  0.00  0.00    +0.000 A 
ATOM     21  C   UNL     1       7.627   7.464  17.660  0.00  0.00    +0.000 A 
ATOM     22  C   UNL     1       6.487   7.138  16.929  0.00  0.00    +0.000 A 
ATOM     23  C   UNL     1       5.703   6.044  17.305  0.00  0.00    +0.000 A 
ENDBRANCH  17  18
ENDBRANCH  15  17
ENDBRANCH   2  10
BRANCH   7  24
ATOM     24  C   UNL     1      -0.776  12.346  22.573  0.00  0.00    +0.000 C 
BRANCH  24  25
ATOM     25  C   UNL     1      -2.270  12.559  22.594  0.00  0.00    +0.000 A 
ATOM     26  C   UNL     1      -2.929  13.040  21.453  0.00  0.00    +0.000 A 
ATOM     27  C   UNL     1      -4.302  13.282  21.476  0.00  0.00    +0.000 A 
ATOM     28  C   UNL     1      -5.035  13.037  22.635  0.00  0.00    +0.000 A 
ATOM     29  C   UNL     1      -4.396  12.543  23.771  0.00  0.00    +0.000 A 
ATOM     30  C   UNL     1      -3.019  12.307  23.754  0.00  0.00    +0.000 A 
ENDBRANCH  24  25
ENDBRANCH   7  24
TORSDOF 5
ENDMDL
MODEL 6
REMARK VINA RESULT:      -8.3      2.689      9.460
REMARK  Name = 
REMARK  5 active torsions:
REMARK  status: ('A' for Active; 'I' for Inactive)
REMARK    1  A    between atoms: C_2  and  C_16
REMARK    2  A    between atoms: C_7  and  C_8
REMARK    3  A    between atoms: C_8  and  C_9
REMARK    4  A    between atoms: N_21  and  C_22
REMARK    5  A    between atoms: C_22  and  C_23
REMARK                            x       y       z     vdW  Elec       q    Type
REMARK                         _______ _______ _______ _____ _____    ______ ____
ROOT
ATOM      1  O   UNL     1       1.381   6.581  21.187  0.00  0.00    +0.000 OA
ATOM      2  C   UNL     1       1.915   6.607  20.082  0.00  0.00    +0.000 C 
ATOM      3  N   UNL     1       2.013   7.666  19.212  0.00  0.00    +0.000 N 
ATOM      4  C   UNL     1       1.483   8.877  19.566  0.00  0.00    +0.000 A 
ATOM      5  N   UNL     1       1.111   9.261  20.762  0.00  0.00    +0.000 NA
ATOM      6  C   UNL     1       0.500  10.488  20.687  0.00  0.00    +0.000 A 
ATOM      7  C   UNL     1       0.406  11.032  19.422  0.00  0.00    +0.000 A 
ATOM      8  S   UNL     1       1.219   9.996  18.304  0.00  0.00    +0.000 S 
ATOM      9  H   UNL     1       2.345   7.514  18.269  0.00  0.00    +0.000 HD
ENDROOT
BRANCH   2  10
ATOM     10  C   UNL     1       2.479   5.295  19.547  0.00  0.00    +0.000 A 
ATOM     11  C   UNL     1       1.773   4.075  19.993  0.00  0.00    +0.000 A 
ATOM     12  C   UNL     1       2.173   2.918  19.474  0.00  0.00    +0.000 A 
ATOM     13  C   UNL     1       3.301   2.870  18.523  0.00  0.00    +0.000 A 
ATOM     14  O   UNL     1       3.635   1.776  18.067  0.00  0.00    +0.000 OA
ATOM     15  N   UNL     1       3.925   4.081  18.244  0.00  0.00    +0.000 N 
ATOM     16  N   UNL     1       3.500   5.314  18.741  0.00  0.00    +0.000 NA
BRANCH  15  17
ATOM     17  C   UNL     1       5.111   4.074  17.387  0.00  0.00    +0.000 C 
BRANCH  17  18
ATOM     18  C   UNL     1       6.075   5.204  17.671  0.00  0.00    +0.000 A 
ATOM     19  C   UNL     1       7.038   5.076  18.682  0.00  0.00    +0.000 A 
ATOM     20  C   UNL     1       7.940   6.110  18.942  0.00  0.00    +0.000 A 
ATOM     21  C   UNL     1       7.892   7.283  18.193  0.00  0.00    +0.000 A 
ATOM     22  C   UNL     1       6.945   7.423  17.181  0.00  0.00    +0.000 A 
ATOM     23  C   UNL     1       6.035   6.392  16.925  0.00  0.00    +0.000 A 
ENDBRANCH  17  18
ENDBRANCH  15  17
ENDBRANCH   2  10
BRANCH   7  24
ATOM     24  C   UNL     1      -0.303  12.279  18.995  0.00  0.00    +0.000 C 
BRANCH  24  25
ATOM     25  C   UNL     1      -1.756  12.059  18.652  0.00  0.00    +0.000 A 
ATOM     26  C   UNL     1      -2.752  12.329  19.602  0.00  0.00    +0.000 A 
ATOM     27  C   UNL     1      -4.095  12.087  19.310  0.00  0.00    +0.000 A 
ATOM     28  C   UNL     1      -4.459  11.584  18.063  0.00  0.00    +0.000 A 
ATOM     29  C   UNL     1      -3.481  11.328  17.103  0.00  0.00    +0.000 A 
ATOM     30  C   UNL     1      -2.135  11.562  17.396  0.00  0.00    +0.000 A 
ENDBRANCH  24  25
ENDBRANCH   7  24
TORSDOF 5
ENDMDL
MODEL 7
REMARK VINA RESULT:      -8.3      7.504      9.511
REMARK  Name = 
REMARK  5 active torsions:
REMARK  status: ('A' for Active; 'I' for Inactive)
REMARK    1  A    between atoms: C_2  and  C_16
REMARK    2  A    between atoms: C_7  and  C_8
REMARK    3  A    between atoms: C_8  and  C_9
REMARK    4  A    between atoms: N_21  and  C_22
REMARK    5  A    between atoms: C_22  and  C_23
REMARK                            x       y       z     vdW  Elec       q    Type
REMARK                         _______ _______ _______ _____ _____    ______ ____
ROOT
ATOM      1  O   UNL     1       7.498  10.009  17.361  0.00  0.00    +0.000 OA
ATOM      2  C   UNL     1       8.402   9.602  18.085  0.00  0.00    +0.000 C 
ATOM      3  N   UNL     1       8.618   8.321  18.532  0.00  0.00    +0.000 N 
ATOM      4  C   UNL     1       7.766   7.323  18.148  0.00  0.00    +0.000 A 
ATOM      5  N   UNL     1       6.892   7.357  17.173  0.00  0.00    +0.000 NA
ATOM      6  C   UNL     1       6.128   6.216  17.191  0.00  0.00    +0.000 A 
ATOM      7  C   UNL     1       6.427   5.315  18.193  0.00  0.00    +0.000 A 
ATOM      8  S   UNL     1       7.796   5.890  19.076  0.00  0.00    +0.000 S 
ATOM      9  H   UNL     1       9.313   8.148  19.247  0.00  0.00    +0.000 HD
ENDROOT
BRANCH   2  10
ATOM     10  C   UNL     1       9.375  10.638  18.637  0.00  0.00    +0.000 A 
ATOM     11  C   UNL     1       9.450  10.712  20.111  0.00  0.00    +0.000 A 
ATOM     12  C   UNL     1      10.356  11.535  20.632  0.00  0.00    +0.000 A 
ATOM     13  C   UNL     1      11.214  12.358  19.759  0.00  0.00    +0.000 A 
ATOM     14  O   UNL     1      12.041  13.104  20.286  0.00  0.00    +0.000 OA
ATOM     15  N   UNL     1      10.992  12.248  18.391  0.00  0.00    +0.000 N 
ATOM     16  N   UNL     1      10.079  11.363  17.816  0.00  0.00    +0.000 NA
BRANCH  15  17
ATOM     17  C   UNL     1      11.747  13.117  17.488  0.00  0.00    +0.000 C 
BRANCH  17  18
ATOM     18  C   UNL     1      11.246  14.544  17.456  0.00  0.00    +0.000 A 
ATOM     19  C   UNL     1       9.896  14.827  17.709  0.00  0.00    +0.000 A 
ATOM     20  C   UNL     1       9.429  16.143  17.694  0.00  0.00    +0.000 A 
ATOM     21  C   UNL     1      10.307  17.192  17.429  0.00  0.00    +0.000 A 
ATOM     22  C   UNL     1      11.652  16.927  17.181  0.00  0.00    +0.000 A 
ATOM     23  C   UNL     1      12.120  15.609  17.188  0.00  0.00    +0.000 A 
ENDBRANCH  17  18
ENDBRANCH  15  17
ENDBRANCH   2  10
BRANCH   7  24
ATOM     24  C   UNL     1       5.708   4.053  18.554  0.00  0.00    +0.000 C 
BRANCH  24  25
ATOM     25  C   UNL     1       4.206   4.199  18.576  0.00  0.00    +0.000 A 
ATOM     26  C   UNL     1       3.574   4.815  19.665  0.00  0.00    +0.000 A 
ATOM     27  C   UNL     1       2.184   4.915  19.715  0.00  0.00    +0.000 A 
ATOM     28  C   UNL     1       1.409   4.411  18.673  0.00  0.00    +0.000 A 
ATOM     29  C   UNL     1       2.025   3.812  17.575  0.00  0.00    +0.000 A 
ATOM     30  C   UNL     1       3.417   3.703  17.526  0.00  0.00    +0.000 A 
ENDBRANCH  24  25
ENDBRANCH   7  24
TORSDOF 5
ENDMDL
MODEL 8
REMARK VINA RESULT:      -8.3      4.498     10.674
REMARK  Name = 
REMARK  5 active torsions:
REMARK  status: ('A' for Active; 'I' for Inactive)
REMARK    1  A    between atoms: C_2  and  C_16
REMARK    2  A    between atoms: C_7  and  C_8
REMARK    3  A    between atoms: C_8  and  C_9
REMARK    4  A    between atoms: N_21  and  C_22
REMARK    5  A    between atoms: C_22  and  C_23
REMARK                            x       y       z     vdW  Elec       q    Type
REMARK                         _______ _______ _______ _____ _____    ______ ____
ROOT
ATOM      1  O   UNL     1       0.019   9.083  22.128  0.00  0.00    +0.000 OA
ATOM      2  C   UNL     1       0.168   9.647  21.048  0.00  0.00    +0.000 C 
ATOM      3  N   UNL     1      -0.430  10.801  20.603  0.00  0.00    +0.000 N 
ATOM      4  C   UNL     1      -1.301  11.464  21.423  0.00  0.00    +0.000 A 
ATOM      5  N   UNL     1      -1.459  11.300  22.713  0.00  0.00    +0.000 NA
ATOM      6  C   UNL     1      -2.525  12.046  23.151  0.00  0.00    +0.000 A 
ATOM      7  C   UNL     1      -3.180  12.777  22.180  0.00  0.00    +0.000 A 
ATOM      8  S   UNL     1      -2.345  12.592  20.679  0.00  0.00    +0.000 S 
ATOM      9  H   UNL     1      -0.335  11.076  19.634  0.00  0.00    +0.000 HD
ENDROOT
BRANCH   2  10
ATOM     10  C   UNL     1       1.063   8.962  20.021  0.00  0.00    +0.000 A 
ATOM     11  C   UNL     1       1.139   9.629  18.704  0.00  0.00    +0.000 A 
ATOM     12  C   UNL     1       1.982   9.117  17.812  0.00  0.00    +0.000 A 
ATOM     13  C   UNL     1       2.772   7.912  18.129  0.00  0.00    +0.000 A 
ATOM     14  O   UNL     1       3.542   7.474  17.272  0.00  0.00    +0.000 OA
ATOM     15  N   UNL     1       2.553   7.339  19.377  0.00  0.00    +0.000 N 
ATOM     16  N   UNL     1       1.706   7.878  20.348  0.00  0.00    +0.000 NA
BRANCH  15  17
ATOM     17  C   UNL     1       3.235   6.086  19.701  0.00  0.00    +0.000 C 
BRANCH  17  18
ATOM     18  C   UNL     1       2.347   4.866  19.605  0.00  0.00    +0.000 A 
ATOM     19  C   UNL     1       2.042   4.309  18.354  0.00  0.00    +0.000 A 
ATOM     20  C   UNL     1       1.234   3.174  18.258  0.00  0.00    +0.000 A 
ATOM     21  C   UNL     1       0.723   2.581  19.411  0.00  0.00    +0.000 A 
ATOM     22  C   UNL     1       1.022   3.119  20.660  0.00  0.00    +0.000 A 
ATOM     23  C   UNL     1       1.825   4.260  20.758  0.00  0.00    +0.000 A 
ENDBRANCH  17  18
ENDBRANCH  15  17
ENDBRANCH   2  10
BRANCH   7  24
ATOM     24  C   UNL     1      -4.434  13.583  22.310  0.00  0.00    +0.000 C 
BRANCH  24  25
ATOM     25  C   UNL     1      -5.434  13.325  21.209  0.00  0.00    +0.000 A 
ATOM     26  C   UNL     1      -5.681  14.307  20.239  0.00  0.00    +0.000 A 
ATOM     27  C   UNL     1      -6.635  14.096  19.243  0.00  0.00    +0.000 A 
ATOM     28  C   UNL     1      -7.345  12.899  19.198  0.00  0.00    +0.000 A 
ATOM     29  C   UNL     1      -7.097  11.907  20.145  0.00  0.00    +0.000 A 
ATOM     30  C   UNL     1      -6.148  12.118  21.149  0.00  0.00    +0.000 A 
ENDBRANCH  24  25
ENDBRANCH   7  24
TORSDOF 5
ENDMDL
MODEL 9
REMARK VINA RESULT:      -8.2      3.274     10.334
REMARK  Name = 
REMARK  5 active torsions:
REMARK  status: ('A' for Active; 'I' for Inactive)
REMARK    1  A    between atoms: C_2  and  C_16
REMARK    2  A    between atoms: C_7  and  C_8
REMARK    3  A    between atoms: C_8  and  C_9
REMARK    4  A    between atoms: N_21  and  C_22
REMARK    5  A    between atoms: C_22  and  C_23
REMARK                            x       y       z     vdW  Elec       q    Type
REMARK                         _______ _______ _______ _____ _____    ______ ____
ROOT
ATOM      1  O   UNL     1       1.544   8.418  21.957  0.00  0.00    +0.000 OA
ATOM      2  C   UNL     1       1.501   8.293  20.737  0.00  0.00    +0.000 C 
ATOM      3  N   UNL     1       1.044   9.196  19.807  0.00  0.00    +0.000 N 
ATOM      4  C   UNL     1       0.577  10.412  20.226  0.00  0.00    +0.000 A 
ATOM      5  N   UNL     1       0.749  10.966  21.401  0.00  0.00    +0.000 NA
ATOM      6  C   UNL     1       0.012  12.121  21.483  0.00  0.00    +0.000 A 
ATOM      7  C   UNL     1      -0.726  12.439  20.359  0.00  0.00    +0.000 A 
ATOM      8  S   UNL     1      -0.386  11.285  19.120  0.00  0.00    +0.000 S 
ATOM      9  H   UNL     1       0.922   8.910  18.845  0.00  0.00    +0.000 HD
ENDROOT
BRANCH   2  10
ATOM     10  C   UNL     1       1.928   6.949  20.156  0.00  0.00    +0.000 A 
ATOM     11  C   UNL     1       1.369   5.761  20.836  0.00  0.00    +0.000 A 
ATOM     12  C   UNL     1       1.640   4.573  20.302  0.00  0.00    +0.000 A 
ATOM     13  C   UNL     1       2.494   4.464  19.104  0.00  0.00    +0.000 A 
ATOM     14  O   UNL     1       2.716   3.344  18.643  0.00  0.00    +0.000 OA
ATOM     15  N   UNL     1       3.016   5.653  18.606  0.00  0.00    +0.000 N 
ATOM     16  N   UNL     1       2.715   6.916  19.120  0.00  0.00    +0.000 NA
BRANCH  15  17
ATOM     17  C   UNL     1       3.950   5.590  17.482  0.00  0.00    +0.000 C 
BRANCH  17  18
ATOM     18  C   UNL     1       5.369   5.970  17.846  0.00  0.00    +0.000 A 
ATOM     19  C   UNL     1       6.033   6.984  17.141  0.00  0.00    +0.000 A 
ATOM     20  C   UNL     1       7.338   7.350  17.480  0.00  0.00    +0.000 A 
ATOM     21  C   UNL     1       7.992   6.708  18.530  0.00  0.00    +0.000 A 
ATOM     22  C   UNL     1       7.343   5.703  19.243  0.00  0.00    +0.000 A 
ATOM     23  C   UNL     1       6.039   5.331  18.900  0.00  0.00    +0.000 A 
ENDBRANCH  17  18
ENDBRANCH  15  17
ENDBRANCH   2  10
BRANCH   7  24
ATOM     24  C   UNL     1      -1.713  13.549  20.178  0.00  0.00    +0.000 C 
BRANCH  24  25
ATOM     25  C   UNL     1      -3.072  13.249  20.763  0.00  0.00    +0.000 A 
ATOM     26  C   UNL     1      -3.305  13.431  22.134  0.00  0.00    +0.000 A 
ATOM     27  C   UNL     1      -4.544  13.114  22.691  0.00  0.00    +0.000 A 
ATOM     28  C   UNL     1      -5.567  12.623  21.885  0.00  0.00    +0.000 A 
ATOM     29  C   UNL     1      -5.356  12.454  20.517  0.00  0.00    +0.000 A 
ATOM     30  C   UNL     1      -4.114  12.763  19.958  0.00  0.00    +0.000 A 
ENDBRANCH  24  25
ENDBRANCH   7  24
TORSDOF 5
ENDMDL
