MODEL 1
REMARK VINA RESULT:      -9.1      0.000      0.000
REMARK  Name = 
REMARK  4 active torsions:
REMARK  status: ('A' for Active; 'I' for Inactive)
REMARK    1  A    between atoms: C_1  and  C_2
REMARK    2  A    between atoms: C_5  and  C_6
REMARK    3  A    between atoms: C_10  and  C_11
REMARK    4  A    between atoms: N_13  and  C_14
REMARK                            x       y       z     vdW  Elec       q    Type
REMARK                         _______ _______ _______ _____ _____    ______ ____
ROOT
ATOM      1  C   UNL     1       2.339   8.306  18.104  0.00  0.00    +0.000 C 
ATOM      2  O   UNL     1       2.280   8.894  17.031  0.00  0.00    +0.000 OA
ATOM      3  N   UNL     1       1.624   8.727  19.218  0.00  0.00    +0.000 N 
ATOM      4  H   UNL     1       1.527   8.077  19.975  0.00  0.00    +0.000 HD
ENDROOT
BRANCH   3   5
ATOM      5  C   UNL     1       0.601   9.749  19.119  0.00  0.00    +0.000 C 
ATOM      6  C   UNL     1       1.118  11.181  18.819  0.00  0.00    +0.000 C 
ATOM      7  C   UNL     1      -0.063  12.080  19.211  0.00  0.00    +0.000 C 
ATOM      8  C   UNL     1      -0.387  11.420  20.517  0.00  0.00    +0.000 A 
ATOM      9  C   UNL     1      -0.758  12.028  21.702  0.00  0.00    +0.000 A 
ATOM     10  C   UNL     1      -0.767  11.244  22.854  0.00  0.00    +0.000 A 
ATOM     11  C   UNL     1      -0.499   9.871  22.780  0.00  0.00    +0.000 A 
ATOM     12  F   UNL     1      -0.472   9.148  23.907  0.00  0.00    +0.000 F 
ATOM     13  C   UNL     1      -0.179   9.248  21.576  0.00  0.00    +0.000 A 
ATOM     14  C   UNL     1      -0.055  10.051  20.453  0.00  0.00    +0.000 A 
ENDBRANCH   3   5
BRANCH   1  19
ATOM     15  C   UNL     1       4.950   5.691  17.205  0.00  0.00    +0.000 A 
ATOM     16  C   UNL     1       4.941   4.888  18.355  0.00  0.00    +0.000 A 
ATOM     17  C   UNL     1       4.104   5.183  19.430  0.00  0.00    +0.000 A 
ATOM     18  C   UNL     1       3.254   6.290  19.378  0.00  0.00    +0.000 A 
ATOM     19  C   UNL     1       3.226   7.103  18.239  0.00  0.00    +0.000 A 
ATOM     20  C   UNL     1       4.074   6.789  17.154  0.00  0.00    +0.000 A 
BRANCH  15  25
ATOM     21  C   UNL     1       6.450   3.814  13.019  0.00  0.00    +0.000 C 
ATOM     22  C   UNL     1       6.551   4.564  14.284  0.00  0.00    +0.000 A 
ATOM     23  N   UNL     1       7.538   5.308  14.733  0.00  0.00    +0.000 NA
ATOM     24  N   UNL     1       7.108   5.832  15.933  0.00  0.00    +0.000 NA
ATOM     25  C   UNL     1       5.889   5.370  16.135  0.00  0.00    +0.000 A 
ATOM     26  O   UNL     1       5.469   4.539  15.126  0.00  0.00    +0.000 OA
ENDBRANCH  15  25
ENDBRANCH   1  19
TORSDOF 3
ENDMDL
MODEL 2
REMARK VINA RESULT:      -8.9      2.419      3.000
REMARK  Name = 
REMARK  4 active torsions:
REMARK  status: ('A' for Active; 'I' for Inactive)
REMARK    1  A    between atoms: C_1  and  C_2
REMARK    2  A    between atoms: C_5  and  C_6
REMARK    3  A    between atoms: C_10  and  C_11
REMARK    4  A    between atoms: N_13  and  C_14
REMARK                            x       y       z     vdW  Elec       q    Type
REMARK                         _______ _______ _______ _____ _____    ______ ____
ROOT
ATOM      1  C   UNL     1       1.848   9.305  18.382  0.00  0.00    +0.000 C 
ATOM      2  O   UNL     1       2.282  10.106  17.563  0.00  0.00    +0.000 OA
ATOM      3  N   UNL     1       0.888   9.657  19.323  0.00  0.00    +0.000 N 
ATOM      4  H   UNL     1       0.407   8.912  19.790  0.00  0.00    +0.000 HD
ENDROOT
BRANCH   3   5
ATOM      5  C   UNL     1       0.186  10.923  19.251  0.00  0.00    +0.000 C 
ATOM      6  C   UNL     1      -0.496  11.382  20.568  0.00  0.00    +0.000 C 
ATOM      7  C   UNL     1      -1.495  12.450  20.103  0.00  0.00    +0.000 C 
ATOM      8  C   UNL     1      -2.054  11.701  18.932  0.00  0.00    +0.000 A 
ATOM      9  C   UNL     1      -3.371  11.644  18.516  0.00  0.00    +0.000 A 
ATOM     10  C   UNL     1      -3.704  10.689  17.556  0.00  0.00    +0.000 A 
ATOM     11  C   UNL     1      -2.711   9.888  16.978  0.00  0.00    +0.000 A 
ATOM     12  F   UNL     1      -3.062   8.949  16.091  0.00  0.00    +0.000 F 
ATOM     13  C   UNL     1      -1.374   9.984  17.359  0.00  0.00    +0.000 A 
ATOM     14  C   UNL     1      -1.065  10.850  18.395  0.00  0.00    +0.000 A 
ENDBRANCH   3   5
BRANCH   1  19
ATOM     15  C   UNL     1       4.028   6.317  17.502  0.00  0.00    +0.000 A 
ATOM     16  C   UNL     1       3.470   5.320  18.315  0.00  0.00    +0.000 A 
ATOM     17  C   UNL     1       2.395   5.601  19.157  0.00  0.00    +0.000 A 
ATOM     18  C   UNL     1       1.853   6.887  19.204  0.00  0.00    +0.000 A 
ATOM     19  C   UNL     1       2.376   7.901  18.393  0.00  0.00    +0.000 A 
ATOM     20  C   UNL     1       3.461   7.602  17.539  0.00  0.00    +0.000 A 
BRANCH  15  25
ATOM     21  C   UNL     1       6.512   4.137  13.983  0.00  0.00    +0.000 C 
ATOM     22  C   UNL     1       6.285   5.042  15.124  0.00  0.00    +0.000 A 
ATOM     23  N   UNL     1       7.087   5.948  15.640  0.00  0.00    +0.000 NA
ATOM     24  N   UNL     1       6.377   6.558  16.650  0.00  0.00    +0.000 NA
ATOM     25  C   UNL     1       5.190   5.982  16.684  0.00  0.00    +0.000 A 
ATOM     26  O   UNL     1       5.062   4.991  15.743  0.00  0.00    +0.000 OA
ENDBRANCH  15  25
ENDBRANCH   1  19
TORSDOF 3
ENDMDL
MODEL 3
REMARK VINA RESULT:      -8.6      3.454      4.897
REMARK  Name = 
REMARK  4 active torsions:
REMARK  status: ('A' for Active; 'I' for Inactive)
REMARK    1  A    between atoms: C_1  and  C_2
REMARK    2  A    between atoms: C_5  and  C_6
REMARK    3  A    between atoms: C_10  and  C_11
REMARK    4  A    between atoms: N_13  and  C_14
REMARK                            x       y       z     vdW  Elec       q    Type
REMARK                         _______ _______ _______ _____ _____    ______ ____
ROOT
ATOM      1  C   UNL     1       2.068   9.401  18.169  0.00  0.00    +0.000 C 
ATOM      2  O   UNL     1       2.485  10.379  17.560  0.00  0.00    +0.000 OA
ATOM      3  N   UNL     1       1.032   9.490  19.090  0.00  0.00    +0.000 N 
ATOM      4  H   UNL     1       0.585   8.635  19.363  0.00  0.00    +0.000 HD
ENDROOT
BRANCH   3   5
ATOM      5  C   UNL     1       0.239  10.695  19.223  0.00  0.00    +0.000 C 
ATOM      6  C   UNL     1      -0.483  10.870  20.586  0.00  0.00    +0.000 C 
ATOM      7  C   UNL     1      -1.555  11.929  20.294  0.00  0.00    +0.000 C 
ATOM      8  C   UNL     1      -2.050  11.355  19.001  0.00  0.00    +0.000 A 
ATOM      9  C   UNL     1      -3.357  11.277  18.556  0.00  0.00    +0.000 A 
ATOM     10  C   UNL     1      -3.613  10.480  17.441  0.00  0.00    +0.000 A 
ATOM     11  C   UNL     1      -2.559   9.865  16.753  0.00  0.00    +0.000 A 
ATOM     12  F   UNL     1      -2.835   9.070  15.711  0.00  0.00    +0.000 F 
ATOM     13  C   UNL     1      -1.236   9.989  17.169  0.00  0.00    +0.000 A 
ATOM     14  C   UNL     1      -0.998  10.682  18.345  0.00  0.00    +0.000 A 
ENDBRANCH   3   5
BRANCH   1  19
ATOM     15  C   UNL     1       2.626   5.645  18.374  0.00  0.00    +0.000 A 
ATOM     16  C   UNL     1       3.775   5.494  17.584  0.00  0.00    +0.000 A 
ATOM     17  C   UNL     1       4.375   6.595  16.974  0.00  0.00    +0.000 A 
ATOM     18  C   UNL     1       3.838   7.873  17.141  0.00  0.00    +0.000 A 
ATOM     19  C   UNL     1       2.702   8.061  17.936  0.00  0.00    +0.000 A 
ATOM     20  C   UNL     1       2.108   6.939  18.555  0.00  0.00    +0.000 A 
BRANCH  15  25
ATOM     21  C   UNL     1       1.371   2.484  21.799  0.00  0.00    +0.000 C 
ATOM     22  C   UNL     1       1.433   3.066  20.446  0.00  0.00    +0.000 A 
ATOM     23  N   UNL     1       0.781   2.715  19.359  0.00  0.00    +0.000 NA
ATOM     24  N   UNL     1       1.153   3.614  18.383  0.00  0.00    +0.000 NA
ATOM     25  C   UNL     1       2.007   4.451  18.941  0.00  0.00    +0.000 A 
ATOM     26  O   UNL     1       2.245   4.155  20.259  0.00  0.00    +0.000 OA
ENDBRANCH  15  25
ENDBRANCH   1  19
TORSDOF 3
ENDMDL
MODEL 4
REMARK VINA RESULT:      -8.6      3.343      8.038
REMARK  Name = 
REMARK  4 active torsions:
REMARK  status: ('A' for Active; 'I' for Inactive)
REMARK    1  A    between atoms: C_1  and  C_2
REMARK    2  A    between atoms: C_5  and  C_6
REMARK    3  A    between atoms: C_10  and  C_11
REMARK    4  A    between atoms: N_13  and  C_14
REMARK                            x       y       z     vdW  Elec       q    Type
REMARK                         _______ _______ _______ _____ _____    ______ ____
ROOT
ATOM      1  C   UNL     1       2.000   8.520  18.478  0.00  0.00    +0.000 C 
ATOM      2  O   UNL     1       2.732   8.794  17.534  0.00  0.00    +0.000 OA
ATOM      3  N   UNL     1       2.131   7.338  19.196  0.00  0.00    +0.000 N 
ATOM      4  H   UNL     1       1.673   7.289  20.087  0.00  0.00    +0.000 HD
ENDROOT
BRANCH   3   5
ATOM      5  C   UNL     1       3.273   6.466  19.016  0.00  0.00    +0.000 C 
ATOM      6  C   UNL     1       3.472   5.917  17.578  0.00  0.00    +0.000 C 
ATOM      7  C   UNL     1       4.420   4.726  17.773  0.00  0.00    +0.000 C 
ATOM      8  C   UNL     1       3.728   4.118  18.956  0.00  0.00    +0.000 A 
ATOM      9  C   UNL     1       3.516   2.775  19.213  0.00  0.00    +0.000 A 
ATOM     10  C   UNL     1       2.634   2.447  20.241  0.00  0.00    +0.000 A 
ATOM     11  C   UNL     1       2.066   3.451  21.036  0.00  0.00    +0.000 A 
ATOM     12  F   UNL     1       1.188   3.112  21.989  0.00  0.00    +0.000 F 
ATOM     13  C   UNL     1       2.323   4.801  20.811  0.00  0.00    +0.000 A 
ATOM     14  C   UNL     1       3.105   5.130  19.715  0.00  0.00    +0.000 A 
ENDBRANCH   3   5
BRANCH   1  19
ATOM     15  C   UNL     1      -1.178  10.591  18.210  0.00  0.00    +0.000 A 
ATOM     16  C   UNL     1      -1.197  11.228  19.459  0.00  0.00    +0.000 A 
ATOM     17  C   UNL     1      -0.194  10.993  20.399  0.00  0.00    +0.000 A 
ATOM     18  C   UNL     1       0.851  10.114  20.109  0.00  0.00    +0.000 A 
ATOM     19  C   UNL     1       0.909   9.474  18.866  0.00  0.00    +0.000 A 
ATOM     20  C   UNL     1      -0.109   9.726  17.920  0.00  0.00    +0.000 A 
BRANCH  15  25
ATOM     21  C   UNL     1      -3.771  10.141  14.164  0.00  0.00    +0.000 C 
ATOM     22  C   UNL     1      -3.441  10.620  15.518  0.00  0.00    +0.000 A 
ATOM     23  N   UNL     1      -4.177  11.316  16.357  0.00  0.00    +0.000 NA
ATOM     24  N   UNL     1      -3.427  11.451  17.504  0.00  0.00    +0.000 NA
ATOM     25  C   UNL     1      -2.284  10.829  17.287  0.00  0.00    +0.000 A 
ATOM     26  O   UNL     1      -2.215  10.283  16.030  0.00  0.00    +0.000 OA
ENDBRANCH  15  25
ENDBRANCH   1  19
TORSDOF 3
ENDMDL
MODEL 5
REMARK VINA RESULT:      -8.5      3.545      8.217
REMARK  Name = 
REMARK  4 active torsions:
REMARK  status: ('A' for Active; 'I' for Inactive)
REMARK    1  A    between atoms: C_1  and  C_2
REMARK    2  A    between atoms: C_5  and  C_6
REMARK    3  A    between atoms: C_10  and  C_11
REMARK    4  A    between atoms: N_13  and  C_14
REMARK                            x       y       z     vdW  Elec       q    Type
REMARK                         _______ _______ _______ _____ _____    ______ ____
ROOT
ATOM      1  C   UNL     1       2.019   8.655  18.442  0.00  0.00    +0.000 C 
ATOM      2  O   UNL     1       2.882   9.088  17.688  0.00  0.00    +0.000 OA
ATOM      3  N   UNL     1       2.043   7.351  18.922  0.00  0.00    +0.000 N 
ATOM      4  H   UNL     1       1.460   7.140  19.709  0.00  0.00    +0.000 HD
ENDROOT
BRANCH   3   5
ATOM      5  C   UNL     1       3.201   6.500  18.738  0.00  0.00    +0.000 C 
ATOM      6  C   UNL     1       3.875   6.582  17.342  0.00  0.00    +0.000 C 
ATOM      7  C   UNL     1       4.732   5.311  17.279  0.00  0.00    +0.000 C 
ATOM      8  C   UNL     1       3.703   4.355  17.804  0.00  0.00    +0.000 A 
ATOM      9  C   UNL     1       3.448   3.066  17.372  0.00  0.00    +0.000 A 
ATOM     10  C   UNL     1       2.285   2.450  17.830  0.00  0.00    +0.000 A 
ATOM     11  C   UNL     1       1.464   3.092  18.765  0.00  0.00    +0.000 A 
ATOM     12  F   UNL     1       0.329   2.498  19.157  0.00  0.00    +0.000 F 
ATOM     13  C   UNL     1       1.750   4.369  19.242  0.00  0.00    +0.000 A 
ATOM     14  C   UNL     1       2.842   5.026  18.697  0.00  0.00    +0.000 A 
ENDBRANCH   3   5
BRANCH   1  19
ATOM     15  C   UNL     1      -1.235  10.608  18.201  0.00  0.00    +0.000 A 
ATOM     16  C   UNL     1      -1.306  11.182  19.479  0.00  0.00    +0.000 A 
ATOM     17  C   UNL     1      -0.315  10.941  20.430  0.00  0.00    +0.000 A 
ATOM     18  C   UNL     1       0.771  10.119  20.122  0.00  0.00    +0.000 A 
ATOM     19  C   UNL     1       0.882   9.544  18.851  0.00  0.00    +0.000 A 
ATOM     20  C   UNL     1      -0.125   9.802  17.894  0.00  0.00    +0.000 A 
BRANCH  15  25
ATOM     21  C   UNL     1      -3.803  10.129  14.142  0.00  0.00    +0.000 C 
ATOM     22  C   UNL     1      -3.476  10.626  15.491  0.00  0.00    +0.000 A 
ATOM     23  N   UNL     1      -4.208  11.346  16.312  0.00  0.00    +0.000 NA
ATOM     24  N   UNL     1      -3.466  11.489  17.463  0.00  0.00    +0.000 NA
ATOM     25  C   UNL     1      -2.329  10.847  17.266  0.00  0.00    +0.000 A 
ATOM     26  O   UNL     1      -2.259  10.279  16.018  0.00  0.00    +0.000 OA
ENDBRANCH  15  25
ENDBRANCH   1  19
TORSDOF 3
ENDMDL
MODEL 6
REMARK VINA RESULT:      -8.3      3.333      8.345
REMARK  Name = 
REMARK  4 active torsions:
REMARK  status: ('A' for Active; 'I' for Inactive)
REMARK    1  A    between atoms: C_1  and  C_2
REMARK    2  A    between atoms: C_5  and  C_6
REMARK    3  A    between atoms: C_10  and  C_11
REMARK    4  A    between atoms: N_13  and  C_14
REMARK                            x       y       z     vdW  Elec       q    Type
REMARK                         _______ _______ _______ _____ _____    ______ ____
ROOT
ATOM      1  C   UNL     1       1.959   8.510  18.438  0.00  0.00    +0.000 C 
ATOM      2  O   UNL     1       2.611   8.728  17.424  0.00  0.00    +0.000 OA
ATOM      3  N   UNL     1       2.148   7.368  19.207  0.00  0.00    +0.000 N 
ATOM      4  H   UNL     1       1.767   7.369  20.134  0.00  0.00    +0.000 HD
ENDROOT
BRANCH   3   5
ATOM      5  C   UNL     1       3.270   6.480  18.980  0.00  0.00    +0.000 C 
ATOM      6  C   UNL     1       3.445   5.987  17.518  0.00  0.00    +0.000 C 
ATOM      7  C   UNL     1       4.369   4.769  17.656  0.00  0.00    +0.000 C 
ATOM      8  C   UNL     1       3.675   4.128  18.819  0.00  0.00    +0.000 A 
ATOM      9  C   UNL     1       3.437   2.780  19.022  0.00  0.00    +0.000 A 
ATOM     10  C   UNL     1       2.557   2.428  20.045  0.00  0.00    +0.000 A 
ATOM     11  C   UNL     1       2.017   3.410  20.885  0.00  0.00    +0.000 A 
ATOM     12  F   UNL     1       1.141   3.050  21.832  0.00  0.00    +0.000 F 
ATOM     13  C   UNL     1       2.301   4.763  20.714  0.00  0.00    +0.000 A 
ATOM     14  C   UNL     1       3.080   5.120  19.625  0.00  0.00    +0.000 A 
ENDBRANCH   3   5
BRANCH   1  19
ATOM     15  C   UNL     1      -1.209  10.608  18.308  0.00  0.00    +0.000 A 
ATOM     16  C   UNL     1      -1.138  11.290  19.532  0.00  0.00    +0.000 A 
ATOM     17  C   UNL     1      -0.077  11.076  20.411  0.00  0.00    +0.000 A 
ATOM     18  C   UNL     1       0.938  10.175  20.084  0.00  0.00    +0.000 A 
ATOM     19  C   UNL     1       0.906   9.490  18.864  0.00  0.00    +0.000 A 
ATOM     20  C   UNL     1      -0.170   9.721  17.979  0.00  0.00    +0.000 A 
BRANCH  15  25
ATOM     21  C   UNL     1      -5.600  12.202  17.094  0.00  0.00    +0.000 C 
ATOM     22  C   UNL     1      -4.296  11.543  16.905  0.00  0.00    +0.000 A 
ATOM     23  N   UNL     1      -3.749  11.080  15.802  0.00  0.00    +0.000 NA
ATOM     24  N   UNL     1      -2.502  10.616  16.157  0.00  0.00    +0.000 NA
ATOM     25  C   UNL     1      -2.372  10.827  17.453  0.00  0.00    +0.000 A 
ATOM     26  O   UNL     1      -3.488  11.406  18.004  0.00  0.00    +0.000 OA
ENDBRANCH  15  25
ENDBRANCH   1  19
TORSDOF 3
ENDMDL
MODEL 7
REMARK VINA RESULT:      -8.3      3.515      8.521
REMARK  Name = 
REMARK  4 active torsions:
REMARK  status: ('A' for Active; 'I' for Inactive)
REMARK    1  A    between atoms: C_1  and  C_2
REMARK    2  A    between atoms: C_5  and  C_6
REMARK    3  A    between atoms: C_10  and  C_11
REMARK    4  A    between atoms: N_13  and  C_14
REMARK                            x       y       z     vdW  Elec       q    Type
REMARK                         _______ _______ _______ _____ _____    ______ ____
ROOT
ATOM      1  C   UNL     1       1.883   8.682  18.400  0.00  0.00    +0.000 C 
ATOM      2  O   UNL     1       2.551   8.982  17.418  0.00  0.00    +0.000 OA
ATOM      3  N   UNL     1       2.079   7.494  19.093  0.00  0.00    +0.000 N 
ATOM      4  H   UNL     1       1.679   7.425  20.009  0.00  0.00    +0.000 HD
ENDROOT
BRANCH   3   5
ATOM      5  C   UNL     1       3.225   6.647  18.832  0.00  0.00    +0.000 C 
ATOM      6  C   UNL     1       3.838   6.775  17.412  0.00  0.00    +0.000 C 
ATOM      7  C   UNL     1       4.687   5.504  17.269  0.00  0.00    +0.000 C 
ATOM      8  C   UNL     1       3.679   4.534  17.805  0.00  0.00    +0.000 A 
ATOM      9  C   UNL     1       3.401   3.260  17.341  0.00  0.00    +0.000 A 
ATOM     10  C   UNL     1       2.256   2.632  17.828  0.00  0.00    +0.000 A 
ATOM     11  C   UNL     1       1.478   3.244  18.820  0.00  0.00    +0.000 A 
ATOM     12  F   UNL     1       0.360   2.639  19.239  0.00  0.00    +0.000 F 
ATOM     13  C   UNL     1       1.790   4.504  19.326  0.00  0.00    +0.000 A 
ATOM     14  C   UNL     1       2.859   5.176  18.757  0.00  0.00    +0.000 A 
ENDBRANCH   3   5
BRANCH   1  19
ATOM     15  C   UNL     1      -1.341  10.698  18.353  0.00  0.00    +0.000 A 
ATOM     16  C   UNL     1      -1.297  11.316  19.611  0.00  0.00    +0.000 A 
ATOM     17  C   UNL     1      -0.236  11.086  20.487  0.00  0.00    +0.000 A 
ATOM     18  C   UNL     1       0.805  10.230  20.122  0.00  0.00    +0.000 A 
ATOM     19  C   UNL     1       0.801   9.610  18.868  0.00  0.00    +0.000 A 
ATOM     20  C   UNL     1      -0.276   9.857  17.987  0.00  0.00    +0.000 A 
BRANCH  15  25
ATOM     21  C   UNL     1      -5.772  12.220  17.192  0.00  0.00    +0.000 C 
ATOM     22  C   UNL     1      -4.445  11.615  16.978  0.00  0.00    +0.000 A 
ATOM     23  N   UNL     1      -3.876  11.236  15.855  0.00  0.00    +0.000 NA
ATOM     24  N   UNL     1      -2.617  10.791  16.194  0.00  0.00    +0.000 NA
ATOM     25  C   UNL     1      -2.504  10.929  17.502  0.00  0.00    +0.000 A 
ATOM     26  O   UNL     1      -3.642  11.439  18.075  0.00  0.00    +0.000 OA
ENDBRANCH  15  25
ENDBRANCH   1  19
TORSDOF 3
ENDMDL
MODEL 8
REMARK VINA RESULT:      -8.3      2.907      8.486
REMARK  Name = 
REMARK  4 active torsions:
REMARK  status: ('A' for Active; 'I' for Inactive)
REMARK    1  A    between atoms: C_1  and  C_2
REMARK    2  A    between atoms: C_5  and  C_6
REMARK    3  A    between atoms: C_10  and  C_11
REMARK    4  A    between atoms: N_13  and  C_14
REMARK                            x       y       z     vdW  Elec       q    Type
REMARK                         _______ _______ _______ _____ _____    ______ ____
ROOT
ATOM      1  C   UNL     1       2.540   6.811  18.463  0.00  0.00    +0.000 C 
ATOM      2  O   UNL     1       1.845   6.021  17.835  0.00  0.00    +0.000 OA
ATOM      3  N   UNL     1       3.772   6.452  18.994  0.00  0.00    +0.000 N 
ATOM      4  H   UNL     1       4.385   7.193  19.276  0.00  0.00    +0.000 HD
ENDROOT
BRANCH   3   5
ATOM      5  C   UNL     1       4.406   5.195  18.651  0.00  0.00    +0.000 C 
ATOM      6  C   UNL     1       4.396   4.835  17.141  0.00  0.00    +0.000 C 
ATOM      7  C   UNL     1       4.697   3.330  17.126  0.00  0.00    +0.000 C 
ATOM      8  C   UNL     1       3.758   2.932  18.223  0.00  0.00    +0.000 A 
ATOM      9  C   UNL     1       2.953   1.808  18.281  0.00  0.00    +0.000 A 
ATOM     10  C   UNL     1       1.976   1.764  19.274  0.00  0.00    +0.000 A 
ATOM     11  C   UNL     1       1.888   2.787  20.227  0.00  0.00    +0.000 A 
ATOM     12  F   UNL     1       0.913   2.743  21.144  0.00  0.00    +0.000 F 
ATOM     13  C   UNL     1       2.734   3.893  20.201  0.00  0.00    +0.000 A 
ATOM     14  C   UNL     1       3.625   3.991  19.145  0.00  0.00    +0.000 A 
ENDBRANCH   3   5
BRANCH   1  19
ATOM     15  C   UNL     1       0.944   9.776  20.229  0.00  0.00    +0.000 A 
ATOM     16  C   UNL     1       1.079  10.780  19.259  0.00  0.00    +0.000 A 
ATOM     17  C   UNL     1       1.690  10.515  18.034  0.00  0.00    +0.000 A 
ATOM     18  C   UNL     1       2.179   9.238  17.752  0.00  0.00    +0.000 A 
ATOM     19  C   UNL     1       2.045   8.209  18.692  0.00  0.00    +0.000 A 
ATOM     20  C   UNL     1       1.418   8.489  19.926  0.00  0.00    +0.000 A 
BRANCH  15  25
ATOM     21  C   UNL     1      -2.210  11.804  23.269  0.00  0.00    +0.000 C 
ATOM     22  C   UNL     1      -1.047  10.997  22.859  0.00  0.00    +0.000 A 
ATOM     23  N   UNL     1      -0.282  10.212  23.586  0.00  0.00    +0.000 NA
ATOM     24  N   UNL     1       0.623   9.646  22.715  0.00  0.00    +0.000 NA
ATOM     25  C   UNL     1       0.349  10.125  21.516  0.00  0.00    +0.000 A 
ATOM     26  O   UNL     1      -0.702  11.008  21.532  0.00  0.00    +0.000 OA
ENDBRANCH  15  25
ENDBRANCH   1  19
TORSDOF 3
ENDMDL
MODEL 9
REMARK VINA RESULT:      -8.3      3.330      8.681
REMARK  Name = 
REMARK  4 active torsions:
REMARK  status: ('A' for Active; 'I' for Inactive)
REMARK    1  A    between atoms: C_1  and  C_2
REMARK    2  A    between atoms: C_5  and  C_6
REMARK    3  A    between atoms: C_10  and  C_11
REMARK    4  A    between atoms: N_13  and  C_14
REMARK                            x       y       z     vdW  Elec       q    Type
REMARK                         _______ _______ _______ _____ _____    ______ ____
ROOT
ATOM      1  C   UNL     1       2.668   7.117  18.723  0.00  0.00    +0.000 C 
ATOM      2  O   UNL     1       3.043   6.719  17.627  0.00  0.00    +0.000 OA
ATOM      3  N   UNL     1       2.913   6.405  19.891  0.00  0.00    +0.000 N 
ATOM      4  H   UNL     1       2.799   6.893  20.759  0.00  0.00    +0.000 HD
ENDROOT
BRANCH   3   5
ATOM      5  C   UNL     1       3.812   5.269  19.910  0.00  0.00    +0.000 C 
ATOM      6  C   UNL     1       4.946   5.299  18.851  0.00  0.00    +0.000 C 
ATOM      7  C   UNL     1       5.429   3.843  18.797  0.00  0.00    +0.000 C 
ATOM      8  C   UNL     1       4.080   3.191  18.754  0.00  0.00    +0.000 A 
ATOM      9  C   UNL     1       3.694   2.096  18.003  0.00  0.00    +0.000 A 
ATOM     10  C   UNL     1       2.331   1.814  17.927  0.00  0.00    +0.000 A 
ATOM     11  C   UNL     1       1.409   2.565  18.667  0.00  0.00    +0.000 A 
ATOM     12  F   UNL     1       0.102   2.302  18.543  0.00  0.00    +0.000 F 
ATOM     13  C   UNL     1       1.805   3.634  19.467  0.00  0.00    +0.000 A 
ATOM     14  C   UNL     1       3.144   3.987  19.448  0.00  0.00    +0.000 A 
ENDBRANCH   3   5
BRANCH   1  19
ATOM     15  C   UNL     1       0.602   9.921  20.248  0.00  0.00    +0.000 A 
ATOM     16  C   UNL     1       0.443  10.775  19.147  0.00  0.00    +0.000 A 
ATOM     17  C   UNL     1       1.004  10.462  17.909  0.00  0.00    +0.000 A 
ATOM     18  C   UNL     1       1.736   9.284  17.746  0.00  0.00    +0.000 A 
ATOM     19  C   UNL     1       1.900   8.402  18.819  0.00  0.00    +0.000 A 
ATOM     20  C   UNL     1       1.321   8.727  20.066  0.00  0.00    +0.000 A 
BRANCH  15  25
ATOM     21  C   UNL     1      -2.520  12.005  23.283  0.00  0.00    +0.000 C 
ATOM     22  C   UNL     1      -1.337  11.224  22.877  0.00  0.00    +0.000 A 
ATOM     23  N   UNL     1      -0.507  10.525  23.619  0.00  0.00    +0.000 NA
ATOM     24  N   UNL     1       0.388   9.943  22.748  0.00  0.00    +0.000 NA
ATOM     25  C   UNL     1       0.044  10.328  21.534  0.00  0.00    +0.000 A 
ATOM     26  O   UNL     1      -1.046  11.162  21.538  0.00  0.00    +0.000 OA
ENDBRANCH  15  25
ENDBRANCH   1  19
TORSDOF 3
ENDMDL
