MODEL 1
REMARK VINA RESULT:      -8.7      0.000      0.000
REMARK  Name = 
REMARK  5 active torsions:
REMARK  status: ('A' for Active; 'I' for Inactive)
REMARK    1  A    between atoms: C_1  and  C_2
REMARK    2  A    between atoms: C_2  and  C_3
REMARK    3  A    between atoms: C_4  and  C_5
REMARK    4  A    between atoms: C_11  and  C_12
REMARK    5  A    between atoms: N_24  and  C_25
REMARK                            x       y       z     vdW  Elec       q    Type
REMARK                         _______ _______ _______ _____ _____    ______ ____
ROOT
ATOM      1  C   UNL     1       4.890   3.810  19.275  0.00  0.00    +0.000 C 
ATOM      2  O   UNL     1       5.054   2.750  19.882  0.00  0.00    +0.000 OA
ATOM      3  N   UNL     1       3.905   4.718  19.700  0.00  0.00    +0.000 N 
ATOM      4  C   UNL     1       3.239   4.464  20.974  0.00  0.00    +0.000 C 
ATOM      5  C   UNL     1       1.731   4.595  20.795  0.00  0.00    +0.000 C 
ATOM      6  C   UNL     1       1.326   5.959  20.208  0.00  0.00    +0.000 C 
ATOM      7  C   UNL     1       2.166   6.401  18.986  0.00  0.00    +0.000 C 
ATOM      8  C   UNL     1       3.676   6.083  19.235  0.00  0.00    +0.000 C 
ENDROOT
BRANCH   7   9
ATOM      9  C   UNL     1       2.097   7.898  18.797  0.00  0.00    +0.000 A 
ATOM     10  N   UNL     1       2.537   8.471  17.686  0.00  0.00    +0.000 NA
ATOM     11  N   UNL     1       1.965   9.701  17.563  0.00  0.00    +0.000 NA
ATOM     12  C   UNL     1       1.275   9.916  18.653  0.00  0.00    +0.000 A 
ATOM     13  C   UNL     1       0.407  10.979  19.057  0.00  0.00    +0.000 A 
ATOM     14  C   UNL     1       0.493  11.292  20.371  0.00  0.00    +0.000 A 
ATOM     15  C   UNL     1       0.545  10.163  21.322  0.00  0.00    +0.000 A 
ATOM     16  C   UNL     1       1.016   8.972  20.882  0.00  0.00    +0.000 A 
ATOM     17  N   UNL     1       1.456   8.864  19.556  0.00  0.00    +0.000 N 
ENDBRANCH   7   9
BRANCH   1  19
ATOM     18  C   UNL     1       5.371   4.097  16.780  0.00  0.00    +0.000 A 
ATOM     19  C   UNL     1       5.749   4.120  18.132  0.00  0.00    +0.000 A 
ATOM     20  C   UNL     1       7.084   4.553  18.086  0.00  0.00    +0.000 A 
ATOM     21  N   UNL     1       7.593   4.563  16.862  0.00  0.00    +0.000 NA
ATOM     22  N   UNL     1       6.527   4.360  16.046  0.00  0.00    +0.000 N 
BRANCH  22  23
ATOM     23  C   UNL     1       6.745   4.467  14.645  0.00  0.00    +0.000 A 
ATOM     24  C   UNL     1       6.084   3.577  13.785  0.00  0.00    +0.000 A 
ATOM     25  C   UNL     1       6.307   3.631  12.408  0.00  0.00    +0.000 A 
ATOM     26  C   UNL     1       7.210   4.552  11.885  0.00  0.00    +0.000 A 
ATOM     27  C   UNL     1       7.882   5.425  12.737  0.00  0.00    +0.000 A 
ATOM     28  C   UNL     1       7.654   5.377  14.112  0.00  0.00    +0.000 A 
ENDBRANCH  22  23
BRANCH  18  30
ATOM     29  C   UNL     1       3.269   2.692  17.036  0.00  0.00    +0.000 C 
ATOM     30  C   UNL     1       4.043   3.700  16.189  0.00  0.00    +0.000 C 
ENDBRANCH  18  30
ENDBRANCH   1  19
TORSDOF 4
ENDMDL
MODEL 2
REMARK VINA RESULT:      -8.3      4.570      9.883
REMARK  Name = 
REMARK  5 active torsions:
REMARK  status: ('A' for Active; 'I' for Inactive)
REMARK    1  A    between atoms: C_1  and  C_2
REMARK    2  A    between atoms: C_2  and  C_3
REMARK    3  A    between atoms: C_4  and  C_5
REMARK    4  A    between atoms: C_11  and  C_12
REMARK    5  A    between atoms: N_24  and  C_25
REMARK                            x       y       z     vdW  Elec       q    Type
REMARK                         _______ _______ _______ _____ _____    ______ ____
ROOT
ATOM      1  C   UNL     1      -0.160  13.312  22.347  0.00  0.00    +0.000 C 
ATOM      2  O   UNL     1      -0.826  13.734  23.294  0.00  0.00    +0.000 OA
ATOM      3  N   UNL     1      -0.232  11.955  21.987  0.00  0.00    +0.000 N 
ATOM      4  C   UNL     1      -1.252  11.127  22.625  0.00  0.00    +0.000 C 
ATOM      5  C   UNL     1      -0.618   9.835  23.125  0.00  0.00    +0.000 C 
ATOM      6  C   UNL     1       0.113   9.069  22.008  0.00  0.00    +0.000 C 
ATOM      7  C   UNL     1       1.038   9.949  21.132  0.00  0.00    +0.000 C 
ATOM      8  C   UNL     1       0.330  11.304  20.807  0.00  0.00    +0.000 C 
ENDROOT
BRANCH   7   9
ATOM      9  C   UNL     1       1.292   9.298  19.793  0.00  0.00    +0.000 A 
ATOM     10  N   UNL     1       1.085   9.954  18.661  0.00  0.00    +0.000 NA
ATOM     11  N   UNL     1       1.797   9.357  17.665  0.00  0.00    +0.000 NA
ATOM     12  C   UNL     1       2.337   8.278  18.170  0.00  0.00    +0.000 A 
ATOM     13  C   UNL     1       3.244   7.307  17.638  0.00  0.00    +0.000 A 
ATOM     14  C   UNL     1       2.998   6.040  18.046  0.00  0.00    +0.000 A 
ATOM     15  C   UNL     1       2.686   5.852  19.477  0.00  0.00    +0.000 A 
ATOM     16  C   UNL     1       2.161   6.894  20.165  0.00  0.00    +0.000 A 
ATOM     17  N   UNL     1       1.913   8.097  19.489  0.00  0.00    +0.000 N 
ENDBRANCH   7   9
BRANCH   1  19
ATOM     18  C   UNL     1       0.384  14.787  20.330  0.00  0.00    +0.000 A 
ATOM     19  C   UNL     1       0.678  14.242  21.590  0.00  0.00    +0.000 A 
ATOM     20  C   UNL     1       1.900  14.848  21.926  0.00  0.00    +0.000 A 
ATOM     21  N   UNL     1       2.459  15.500  20.916  0.00  0.00    +0.000 NA
ATOM     22  N   UNL     1       1.500  15.533  19.956  0.00  0.00    +0.000 N 
BRANCH  22  23
ATOM     23  C   UNL     1       1.764  16.307  18.792  0.00  0.00    +0.000 A 
ATOM     24  C   UNL     1       0.889  17.351  18.459  0.00  0.00    +0.000 A 
ATOM     25  C   UNL     1       1.099  18.104  17.301  0.00  0.00    +0.000 A 
ATOM     26  C   UNL     1       2.163  17.799  16.456  0.00  0.00    +0.000 A 
ATOM     27  C   UNL     1       3.022  16.751  16.774  0.00  0.00    +0.000 A 
ATOM     28  C   UNL     1       2.818  16.004  17.935  0.00  0.00    +0.000 A 
ENDBRANCH  22  23
BRANCH  18  30
ATOM     29  C   UNL     1      -0.498  13.573  18.279  0.00  0.00    +0.000 C 
ATOM     30  C   UNL     1      -0.805  14.507  19.448  0.00  0.00    +0.000 C 
ENDBRANCH  18  30
ENDBRANCH   1  19
TORSDOF 4
ENDMDL
MODEL 3
REMARK VINA RESULT:      -8.2      5.145      8.876
REMARK  Name = 
REMARK  5 active torsions:
REMARK  status: ('A' for Active; 'I' for Inactive)
REMARK    1  A    between atoms: C_1  and  C_2
REMARK    2  A    between atoms: C_2  and  C_3
REMARK    3  A    between atoms: C_4  and  C_5
REMARK    4  A    between atoms: C_11  and  C_12
REMARK    5  A    between atoms: N_24  and  C_25
REMARK                            x       y       z     vdW  Elec       q    Type
REMARK                         _______ _______ _______ _____ _____    ______ ____
ROOT
ATOM      1  C   UNL     1      -0.789  12.453  22.137  0.00  0.00    +0.000 C 
ATOM      2  O   UNL     1      -0.293  13.166  23.011  0.00  0.00    +0.000 OA
ATOM      3  N   UNL     1      -1.880  12.921  21.383  0.00  0.00    +0.000 N 
ATOM      4  C   UNL     1      -2.264  14.323  21.528  0.00  0.00    +0.000 C 
ATOM      5  C   UNL     1      -3.770  14.418  21.739  0.00  0.00    +0.000 C 
ATOM      6  C   UNL     1      -4.565  13.728  20.617  0.00  0.00    +0.000 C 
ATOM      7  C   UNL     1      -4.049  12.316  20.246  0.00  0.00    +0.000 C 
ATOM      8  C   UNL     1      -2.487  12.315  20.202  0.00  0.00    +0.000 C 
ENDROOT
BRANCH   7   9
ATOM      9  C   UNL     1      -4.490  11.928  18.855  0.00  0.00    +0.000 A 
ATOM     10  N   UNL     1      -5.578  12.454  18.308  0.00  0.00    +0.000 NA
ATOM     11  N   UNL     1      -5.504  12.318  16.955  0.00  0.00    +0.000 NA
ATOM     12  C   UNL     1      -4.435  11.611  16.695  0.00  0.00    +0.000 A 
ATOM     13  C   UNL     1      -3.803  11.222  15.471  0.00  0.00    +0.000 A 
ATOM     14  C   UNL     1      -3.273   9.977  15.496  0.00  0.00    +0.000 A 
ATOM     15  C   UNL     1      -2.520   9.599  16.709  0.00  0.00    +0.000 A 
ATOM     16  C   UNL     1      -2.814  10.227  17.872  0.00  0.00    +0.000 A 
ATOM     17  N   UNL     1      -3.832  11.190  17.884  0.00  0.00    +0.000 N 
ENDBRANCH   7   9
BRANCH   1  19
ATOM     18  C   UNL     1       0.546  10.768  20.751  0.00  0.00    +0.000 A 
ATOM     19  C   UNL     1      -0.212  11.134  21.875  0.00  0.00    +0.000 A 
ATOM     20  C   UNL     1      -0.212   9.968  22.657  0.00  0.00    +0.000 A 
ATOM     21  N   UNL     1       0.259   8.906  22.019  0.00  0.00    +0.000 NA
ATOM     22  N   UNL     1       0.797   9.403  20.877  0.00  0.00    +0.000 N 
BRANCH  22  23
ATOM     23  C   UNL     1       1.518   8.502  20.045  0.00  0.00    +0.000 A 
ATOM     24  C   UNL     1       1.788   8.871  18.719  0.00  0.00    +0.000 A 
ATOM     25  C   UNL     1       2.459   7.992  17.866  0.00  0.00    +0.000 A 
ATOM     26  C   UNL     1       2.836   6.731  18.322  0.00  0.00    +0.000 A 
ATOM     27  C   UNL     1       2.552   6.355  19.632  0.00  0.00    +0.000 A 
ATOM     28  C   UNL     1       1.889   7.235  20.487  0.00  0.00    +0.000 A 
ENDBRANCH  22  23
BRANCH  18  30
ATOM     29  C   UNL     1       1.887  12.721  19.834  0.00  0.00    +0.000 C 
ATOM     30  C   UNL     1       0.888  11.604  19.545  0.00  0.00    +0.000 C 
ENDBRANCH  18  30
ENDBRANCH   1  19
TORSDOF 4
ENDMDL
MODEL 4
REMARK VINA RESULT:      -8.2      3.321      6.145
REMARK  Name = 
REMARK  5 active torsions:
REMARK  status: ('A' for Active; 'I' for Inactive)
REMARK    1  A    between atoms: C_1  and  C_2
REMARK    2  A    between atoms: C_2  and  C_3
REMARK    3  A    between atoms: C_4  and  C_5
REMARK    4  A    between atoms: C_11  and  C_12
REMARK    5  A    between atoms: N_24  and  C_25
REMARK                            x       y       z     vdW  Elec       q    Type
REMARK                         _______ _______ _______ _____ _____    ______ ____
ROOT
ATOM      1  C   UNL     1       0.230   8.662  21.177  0.00  0.00    +0.000 C 
ATOM      2  O   UNL     1      -0.417   7.742  21.683  0.00  0.00    +0.000 OA
ATOM      3  N   UNL     1       0.176   9.950  21.737  0.00  0.00    +0.000 N 
ATOM      4  C   UNL     1      -0.493  10.113  23.025  0.00  0.00    +0.000 C 
ATOM      5  C   UNL     1      -1.459  11.289  22.952  0.00  0.00    +0.000 C 
ATOM      6  C   UNL     1      -0.766  12.590  22.507  0.00  0.00    +0.000 C 
ATOM      7  C   UNL     1       0.157  12.431  21.276  0.00  0.00    +0.000 C 
ATOM      8  C   UNL     1       0.990  11.114  21.402  0.00  0.00    +0.000 C 
ENDROOT
BRANCH   7   9
ATOM      9  C   UNL     1       1.175  13.545  21.216  0.00  0.00    +0.000 A 
ATOM     10  N   UNL     1       1.362  14.358  22.246  0.00  0.00    +0.000 NA
ATOM     11  N   UNL     1       2.588  14.941  22.135  0.00  0.00    +0.000 NA
ATOM     12  C   UNL     1       3.089  14.570  20.985  0.00  0.00    +0.000 A 
ATOM     13  C   UNL     1       4.359  14.790  20.363  0.00  0.00    +0.000 A 
ATOM     14  C   UNL     1       4.294  14.972  19.023  0.00  0.00    +0.000 A 
ATOM     15  C   UNL     1       3.405  14.063  18.272  0.00  0.00    +0.000 A 
ATOM     16  C   UNL     1       2.365  13.494  18.925  0.00  0.00    +0.000 A 
ATOM     17  N   UNL     1       2.158  13.807  20.275  0.00  0.00    +0.000 N 
ENDBRANCH   7   9
BRANCH   1  19
ATOM     18  C   UNL     1       1.871   7.251  19.815  0.00  0.00    +0.000 A 
ATOM     19  C   UNL     1       1.071   8.388  20.012  0.00  0.00    +0.000 A 
ATOM     20  C   UNL     1       1.250   9.117  18.825  0.00  0.00    +0.000 A 
ATOM     21  N   UNL     1       2.231   8.652  18.064  0.00  0.00    +0.000 NA
ATOM     22  N   UNL     1       2.566   7.463  18.626  0.00  0.00    +0.000 N 
BRANCH  22  23
ATOM     23  C   UNL     1       3.507   6.652  17.932  0.00  0.00    +0.000 A 
ATOM     24  C   UNL     1       3.216   5.294  17.734  0.00  0.00    +0.000 A 
ATOM     25  C   UNL     1       4.136   4.463  17.091  0.00  0.00    +0.000 A 
ATOM     26  C   UNL     1       5.361   4.975  16.671  0.00  0.00    +0.000 A 
ATOM     27  C   UNL     1       5.660   6.318  16.883  0.00  0.00    +0.000 A 
ATOM     28  C   UNL     1       4.739   7.150  17.517  0.00  0.00    +0.000 A 
ENDBRANCH  22  23
BRANCH  18  30
ATOM     29  C   UNL     1       1.189   4.899  20.492  0.00  0.00    +0.000 C 
ATOM     30  C   UNL     1       2.098   6.096  20.756  0.00  0.00    +0.000 C 
ENDBRANCH  18  30
ENDBRANCH   1  19
TORSDOF 4
ENDMDL
MODEL 5
REMARK VINA RESULT:      -8.1      5.814      9.898
REMARK  Name = 
REMARK  5 active torsions:
REMARK  status: ('A' for Active; 'I' for Inactive)
REMARK    1  A    between atoms: C_1  and  C_2
REMARK    2  A    between atoms: C_2  and  C_3
REMARK    3  A    between atoms: C_4  and  C_5
REMARK    4  A    between atoms: C_11  and  C_12
REMARK    5  A    between atoms: N_24  and  C_25
REMARK                            x       y       z     vdW  Elec       q    Type
REMARK                         _______ _______ _______ _____ _____    ______ ____
ROOT
ATOM      1  C   UNL     1      -1.260  12.989  22.934  0.00  0.00    +0.000 C 
ATOM      2  O   UNL     1      -0.563  13.676  23.684  0.00  0.00    +0.000 OA
ATOM      3  N   UNL     1      -2.519  13.456  22.521  0.00  0.00    +0.000 N 
ATOM      4  C   UNL     1      -2.879  14.836  22.838  0.00  0.00    +0.000 C 
ATOM      5  C   UNL     1      -4.277  14.871  23.444  0.00  0.00    +0.000 C 
ATOM      6  C   UNL     1      -5.327  14.208  22.535  0.00  0.00    +0.000 C 
ATOM      7  C   UNL     1      -4.901  12.834  21.965  0.00  0.00    +0.000 C 
ATOM      8  C   UNL     1      -3.406  12.887  21.510  0.00  0.00    +0.000 C 
ENDROOT
BRANCH   7   9
ATOM      9  C   UNL     1      -5.687  12.498  20.720  0.00  0.00    +0.000 A 
ATOM     10  N   UNL     1      -7.008  12.599  20.694  0.00  0.00    +0.000 NA
ATOM     11  N   UNL     1      -7.422  12.696  19.400  0.00  0.00    +0.000 NA
ATOM     12  C   UNL     1      -6.365  12.538  18.645  0.00  0.00    +0.000 A 
ATOM     13  C   UNL     1      -6.164  12.620  17.230  0.00  0.00    +0.000 A 
ATOM     14  C   UNL     1      -5.283  11.714  16.745  0.00  0.00    +0.000 A 
ATOM     15  C   UNL     1      -4.041  11.514  17.520  0.00  0.00    +0.000 A 
ATOM     16  C   UNL     1      -4.056  11.795  18.844  0.00  0.00    +0.000 A 
ATOM     17  N   UNL     1      -5.248  12.240  19.430  0.00  0.00    +0.000 N 
ENDBRANCH   7   9
BRANCH   1  19
ATOM     18  C   UNL     1       0.074  11.503  21.337  0.00  0.00    +0.000 A 
ATOM     19  C   UNL     1      -0.747  11.704  22.458  0.00  0.00    +0.000 A 
ATOM     20  C   UNL     1      -0.881  10.414  22.995  0.00  0.00    +0.000 A 
ATOM     21  N   UNL     1      -0.428   9.460  22.194  0.00  0.00    +0.000 NA
ATOM     22  N   UNL     1       0.229  10.123  21.209  0.00  0.00    +0.000 N 
BRANCH  22  23
ATOM     23  C   UNL     1       0.957   9.344  20.267  0.00  0.00    +0.000 A 
ATOM     24  C   UNL     1       0.982   9.752  18.925  0.00  0.00    +0.000 A 
ATOM     25  C   UNL     1       1.655   8.988  17.969  0.00  0.00    +0.000 A 
ATOM     26  C   UNL     1       2.278   7.800  18.341  0.00  0.00    +0.000 A 
ATOM     27  C   UNL     1       2.239   7.383  19.668  0.00  0.00    +0.000 A 
ATOM     28  C   UNL     1       1.574   8.149  20.625  0.00  0.00    +0.000 A 
ENDBRANCH  22  23
BRANCH  18  30
ATOM     29  C   UNL     1      -0.493  12.949  19.326  0.00  0.00    +0.000 C 
ATOM     30  C   UNL     1       0.563  12.524  20.343  0.00  0.00    +0.000 C 
ENDBRANCH  18  30
ENDBRANCH   1  19
TORSDOF 4
ENDMDL
MODEL 6
REMARK VINA RESULT:      -8.1      7.084      9.784
REMARK  Name = 
REMARK  5 active torsions:
REMARK  status: ('A' for Active; 'I' for Inactive)
REMARK    1  A    between atoms: C_1  and  C_2
REMARK    2  A    between atoms: C_2  and  C_3
REMARK    3  A    between atoms: C_4  and  C_5
REMARK    4  A    between atoms: C_11  and  C_12
REMARK    5  A    between atoms: N_24  and  C_25
REMARK                            x       y       z     vdW  Elec       q    Type
REMARK                         _______ _______ _______ _____ _____    ______ ____
ROOT
ATOM      1  C   UNL     1       5.471  16.493  19.326  0.00  0.00    +0.000 C 
ATOM      2  O   UNL     1       5.766  17.687  19.250  0.00  0.00    +0.000 OA
ATOM      3  N   UNL     1       4.213  16.050  18.882  0.00  0.00    +0.000 N 
ATOM      4  C   UNL     1       3.366  16.995  18.159  0.00  0.00    +0.000 C 
ATOM      5  C   UNL     1       1.958  16.965  18.741  0.00  0.00    +0.000 C 
ATOM      6  C   UNL     1       1.353  15.550  18.740  0.00  0.00    +0.000 C 
ATOM      7  C   UNL     1       2.301  14.451  19.278  0.00  0.00    +0.000 C 
ATOM      8  C   UNL     1       3.745  14.676  18.723  0.00  0.00    +0.000 C 
ENDROOT
BRANCH   7   9
ATOM      9  C   UNL     1       1.887  13.087  18.776  0.00  0.00    +0.000 A 
ATOM     10  N   UNL     1       2.695  12.361  18.017  0.00  0.00    +0.000 NA
ATOM     11  N   UNL     1       2.314  11.055  18.085  0.00  0.00    +0.000 NA
ATOM     12  C   UNL     1       1.213  11.011  18.790  0.00  0.00    +0.000 A 
ATOM     13  C   UNL     1       0.407   9.927  19.262  0.00  0.00    +0.000 A 
ATOM     14  C   UNL     1      -0.923  10.179  19.244  0.00  0.00    +0.000 A 
ATOM     15  C   UNL     1      -1.353  11.506  19.729  0.00  0.00    +0.000 A 
ATOM     16  C   UNL     1      -0.473  12.533  19.665  0.00  0.00    +0.000 A 
ATOM     17  N   UNL     1       0.798  12.304  19.121  0.00  0.00    +0.000 N 
ENDBRANCH   7   9
BRANCH   1  19
ATOM     18  C   UNL     1       7.575  15.047  19.167  0.00  0.00    +0.000 A 
ATOM     19  C   UNL     1       6.454  15.545  19.851  0.00  0.00    +0.000 A 
ATOM     20  C   UNL     1       6.567  14.961  21.123  0.00  0.00    +0.000 A 
ATOM     21  N   UNL     1       7.487  14.008  21.185  0.00  0.00    +0.000 NA
ATOM     22  N   UNL     1       8.163  14.107  20.012  0.00  0.00    +0.000 N 
BRANCH  22  23
ATOM     23  C   UNL     1       9.320  13.296  19.852  0.00  0.00    +0.000 A 
ATOM     24  C   UNL     1      10.579  13.847  20.133  0.00  0.00    +0.000 A 
ATOM     25  C   UNL     1      11.737  13.089  19.948  0.00  0.00    +0.000 A 
ATOM     26  C   UNL     1      11.647  11.791  19.453  0.00  0.00    +0.000 A 
ATOM     27  C   UNL     1      10.400  11.247  19.154  0.00  0.00    +0.000 A 
ATOM     28  C   UNL     1       9.243  12.001  19.347  0.00  0.00    +0.000 A 
ENDBRANCH  22  23
BRANCH  18  30
ATOM     29  C   UNL     1       9.191  16.248  17.618  0.00  0.00    +0.000 C 
ATOM     30  C   UNL     1       7.992  15.312  17.744  0.00  0.00    +0.000 C 
ENDBRANCH  18  30
ENDBRANCH   1  19
TORSDOF 4
ENDMDL
MODEL 7
REMARK VINA RESULT:      -8.0      3.367      6.186
REMARK  Name = 
REMARK  5 active torsions:
REMARK  status: ('A' for Active; 'I' for Inactive)
REMARK    1  A    between atoms: C_1  and  C_2
REMARK    2  A    between atoms: C_2  and  C_3
REMARK    3  A    between atoms: C_4  and  C_5
REMARK    4  A    between atoms: C_11  and  C_12
REMARK    5  A    between atoms: N_24  and  C_25
REMARK                            x       y       z     vdW  Elec       q    Type
REMARK                         _______ _______ _______ _____ _____    ______ ____
ROOT
ATOM      1  C   UNL     1       0.364   8.713  21.106  0.00  0.00    +0.000 C 
ATOM      2  O   UNL     1      -0.252   7.828  21.703  0.00  0.00    +0.000 OA
ATOM      3  N   UNL     1       0.310  10.040  21.566  0.00  0.00    +0.000 N 
ATOM      4  C   UNL     1      -0.318  10.294  22.860  0.00  0.00    +0.000 C 
ATOM      5  C   UNL     1      -1.303  11.450  22.730  0.00  0.00    +0.000 C 
ATOM      6  C   UNL     1      -0.644  12.720  22.163  0.00  0.00    +0.000 C 
ATOM      7  C   UNL     1       0.241  12.477  20.916  0.00  0.00    +0.000 C 
ATOM      8  C   UNL     1       1.096  11.184  21.115  0.00  0.00    +0.000 C 
ENDROOT
BRANCH   7   9
ATOM      9  C   UNL     1       1.240  13.595  20.737  0.00  0.00    +0.000 A 
ATOM     10  N   UNL     1       2.445  13.533  21.287  0.00  0.00    +0.000 NA
ATOM     11  N   UNL     1       3.278  14.386  20.627  0.00  0.00    +0.000 NA
ATOM     12  C   UNL     1       2.551  15.043  19.761  0.00  0.00    +0.000 A 
ATOM     13  C   UNL     1       2.878  15.996  18.745  0.00  0.00    +0.000 A 
ATOM     14  C   UNL     1       1.964  16.983  18.598  0.00  0.00    +0.000 A 
ATOM     15  C   UNL     1       0.543  16.579  18.610  0.00  0.00    +0.000 A 
ATOM     16  C   UNL     1       0.203  15.437  19.253  0.00  0.00    +0.000 A 
ATOM     17  N   UNL     1       1.203  14.698  19.899  0.00  0.00    +0.000 N 
ENDBRANCH   7   9
BRANCH   1  19
ATOM     18  C   UNL     1       1.924   7.186  19.774  0.00  0.00    +0.000 A 
ATOM     19  C   UNL     1       1.171   8.360  19.938  0.00  0.00    +0.000 A 
ATOM     20  C   UNL     1       1.351   9.031  18.718  0.00  0.00    +0.000 A 
ATOM     21  N   UNL     1       2.298   8.499  17.959  0.00  0.00    +0.000 NA
ATOM     22  N   UNL     1       2.602   7.323  18.563  0.00  0.00    +0.000 N 
BRANCH  22  23
ATOM     23  C   UNL     1       3.497   6.449  17.886  0.00  0.00    +0.000 A 
ATOM     24  C   UNL     1       4.670   6.979  17.327  0.00  0.00    +0.000 A 
ATOM     25  C   UNL     1       5.549   6.155  16.622  0.00  0.00    +0.000 A 
ATOM     26  C   UNL     1       5.250   4.807  16.446  0.00  0.00    +0.000 A 
ATOM     27  C   UNL     1       4.077   4.281  16.983  0.00  0.00    +0.000 A 
ATOM     28  C   UNL     1       3.202   5.102  17.694  0.00  0.00    +0.000 A 
ENDBRANCH  22  23
BRANCH  18  30
ATOM     29  C   UNL     1       1.236   4.852  20.503  0.00  0.00    +0.000 C 
ATOM     30  C   UNL     1       2.128   6.064  20.758  0.00  0.00    +0.000 C 
ENDBRANCH  18  30
ENDBRANCH   1  19
TORSDOF 4
ENDMDL
MODEL 8
REMARK VINA RESULT:      -8.0      5.743     10.134
REMARK  Name = 
REMARK  5 active torsions:
REMARK  status: ('A' for Active; 'I' for Inactive)
REMARK    1  A    between atoms: C_1  and  C_2
REMARK    2  A    between atoms: C_2  and  C_3
REMARK    3  A    between atoms: C_4  and  C_5
REMARK    4  A    between atoms: C_11  and  C_12
REMARK    5  A    between atoms: N_24  and  C_25
REMARK                            x       y       z     vdW  Elec       q    Type
REMARK                         _______ _______ _______ _____ _____    ______ ____
ROOT
ATOM      1  C   UNL     1      -0.827  14.291  19.487  0.00  0.00    +0.000 C 
ATOM      2  O   UNL     1      -0.237  15.198  18.896  0.00  0.00    +0.000 OA
ATOM      3  N   UNL     1      -1.749  14.597  20.502  0.00  0.00    +0.000 N 
ATOM      4  C   UNL     1      -2.126  15.996  20.690  0.00  0.00    +0.000 C 
ATOM      5  C   UNL     1      -2.035  16.354  22.168  0.00  0.00    +0.000 C 
ATOM      6  C   UNL     1      -2.879  15.418  23.052  0.00  0.00    +0.000 C 
ATOM      7  C   UNL     1      -2.703  13.913  22.736  0.00  0.00    +0.000 C 
ATOM      8  C   UNL     1      -2.668  13.694  21.188  0.00  0.00    +0.000 C 
ENDROOT
BRANCH   7   9
ATOM      9  C   UNL     1      -3.887  13.115  23.227  0.00  0.00    +0.000 A 
ATOM     10  N   UNL     1      -3.795  12.339  24.297  0.00  0.00    +0.000 NA
ATOM     11  N   UNL     1      -5.045  12.111  24.790  0.00  0.00    +0.000 NA
ATOM     12  C   UNL     1      -5.893  12.652  23.954  0.00  0.00    +0.000 A 
ATOM     13  C   UNL     1      -7.316  12.806  23.980  0.00  0.00    +0.000 A 
ATOM     14  C   UNL     1      -7.908  12.671  22.770  0.00  0.00    +0.000 A 
ATOM     15  C   UNL     1      -7.250  13.340  21.630  0.00  0.00    +0.000 A 
ATOM     16  C   UNL     1      -5.920  13.581  21.704  0.00  0.00    +0.000 A 
ATOM     17  N   UNL     1      -5.218  13.167  22.844  0.00  0.00    +0.000 N 
ENDBRANCH   7   9
BRANCH   1  19
ATOM     18  C   UNL     1       0.428  12.066  19.607  0.00  0.00    +0.000 A 
ATOM     19  C   UNL     1      -0.578  12.903  19.097  0.00  0.00    +0.000 A 
ATOM     20  C   UNL     1      -1.271  12.068  18.206  0.00  0.00    +0.000 A 
ATOM     21  N   UNL     1      -0.651  10.921  17.968  0.00  0.00    +0.000 NA
ATOM     22  N   UNL     1       0.352  10.878  18.881  0.00  0.00    +0.000 N 
BRANCH  22  23
ATOM     23  C   UNL     1       1.111   9.678  18.965  0.00  0.00    +0.000 A 
ATOM     24  C   UNL     1       1.765   9.207  17.817  0.00  0.00    +0.000 A 
ATOM     25  C   UNL     1       2.485   8.011  17.857  0.00  0.00    +0.000 A 
ATOM     26  C   UNL     1       2.532   7.266  19.032  0.00  0.00    +0.000 A 
ATOM     27  C   UNL     1       1.868   7.721  20.168  0.00  0.00    +0.000 A 
ATOM     28  C   UNL     1       1.155   8.919  20.131  0.00  0.00    +0.000 A 
ENDBRANCH  22  23
BRANCH  18  30
ATOM     29  C   UNL     1       2.525  13.415  20.093  0.00  0.00    +0.000 C 
ATOM     30  C   UNL     1       1.504  12.403  20.606  0.00  0.00    +0.000 C 
ENDBRANCH  18  30
ENDBRANCH   1  19
TORSDOF 4
ENDMDL
MODEL 9
REMARK VINA RESULT:      -8.0      3.472      6.322
REMARK  Name = 
REMARK  5 active torsions:
REMARK  status: ('A' for Active; 'I' for Inactive)
REMARK    1  A    between atoms: C_1  and  C_2
REMARK    2  A    between atoms: C_2  and  C_3
REMARK    3  A    between atoms: C_4  and  C_5
REMARK    4  A    between atoms: C_11  and  C_12
REMARK    5  A    between atoms: N_24  and  C_25
REMARK                            x       y       z     vdW  Elec       q    Type
REMARK                         _______ _______ _______ _____ _____    ______ ____
ROOT
ATOM      1  C   UNL     1       0.316   9.028  20.871  0.00  0.00    +0.000 C 
ATOM      2  O   UNL     1      -0.450   8.200  21.368  0.00  0.00    +0.000 OA
ATOM      3  N   UNL     1       0.382  10.329  21.398  0.00  0.00    +0.000 N 
ATOM      4  C   UNL     1      -0.319  10.600  22.651  0.00  0.00    +0.000 C 
ATOM      5  C   UNL     1      -1.144  11.874  22.508  0.00  0.00    +0.000 C 
ATOM      6  C   UNL     1      -0.293  13.077  22.065  0.00  0.00    +0.000 C 
ATOM      7  C   UNL     1       0.660  12.783  20.881  0.00  0.00    +0.000 C 
ATOM      8  C   UNL     1       1.335  11.387  21.075  0.00  0.00    +0.000 C 
ENDROOT
BRANCH   7   9
ATOM      9  C   UNL     1       1.797  13.777  20.843  0.00  0.00    +0.000 A 
ATOM     10  N   UNL     1       2.385  14.189  21.957  0.00  0.00    +0.000 NA
ATOM     11  N   UNL     1       3.617  14.684  21.652  0.00  0.00    +0.000 NA
ATOM     12  C   UNL     1       3.724  14.676  20.349  0.00  0.00    +0.000 A 
ATOM     13  C   UNL     1       4.801  14.995  19.462  0.00  0.00    +0.000 A 
ATOM     14  C   UNL     1       4.414  15.612  18.322  0.00  0.00    +0.000 A 
ATOM     15  C   UNL     1       3.218  15.069  17.646  0.00  0.00    +0.000 A 
ATOM     16  C   UNL     1       2.308  14.395  18.388  0.00  0.00    +0.000 A 
ATOM     17  N   UNL     1       2.523  14.260  19.767  0.00  0.00    +0.000 N 
ENDBRANCH   7   9
BRANCH   1  19
ATOM     18  C   UNL     1       1.952   7.467  19.677  0.00  0.00    +0.000 A 
ATOM     19  C   UNL     1       1.171   8.631  19.752  0.00  0.00    +0.000 A 
ATOM     20  C   UNL     1       1.383   9.242  18.506  0.00  0.00    +0.000 A 
ATOM     21  N   UNL     1       2.367   8.691  17.809  0.00  0.00    +0.000 NA
ATOM     22  N   UNL     1       2.670   7.554  18.486  0.00  0.00    +0.000 N 
BRANCH  22  23
ATOM     23  C   UNL     1       3.606   6.665  17.888  0.00  0.00    +0.000 A 
ATOM     24  C   UNL     1       4.834   7.174  17.439  0.00  0.00    +0.000 A 
ATOM     25  C   UNL     1       5.757   6.334  16.812  0.00  0.00    +0.000 A 
ATOM     26  C   UNL     1       5.449   4.993  16.603  0.00  0.00    +0.000 A 
ATOM     27  C   UNL     1       4.223   4.489  17.031  0.00  0.00    +0.000 A 
ATOM     28  C   UNL     1       3.304   5.325  17.664  0.00  0.00    +0.000 A 
ENDBRANCH  22  23
BRANCH  18  30
ATOM     29  C   UNL     1       1.267   5.168  20.516  0.00  0.00    +0.000 C 
ATOM     30  C   UNL     1       2.141   6.402  20.726  0.00  0.00    +0.000 C 
ENDBRANCH  18  30
ENDBRANCH   1  19
TORSDOF 4
ENDMDL
