MODEL 1
REMARK VINA RESULT:      -8.5      0.000      0.000
REMARK  Name = 
REMARK  6 active torsions:
REMARK  status: ('A' for Active; 'I' for Inactive)
REMARK    1  A    between atoms: C_2  and  C_3
REMARK    2  A    between atoms: C_3  and  S_4
REMARK    3  A    between atoms: S_4  and  C_5
REMARK    4  A    between atoms: C_7  and  C_8
REMARK    5  A    between atoms: N_19  and  C_20
REMARK    6  A    between atoms: C_22  and  N_23
REMARK                            x       y       z     vdW  Elec       q    Type
REMARK                         _______ _______ _______ _____ _____    ______ ____
ROOT
ATOM      1  C   UNL     1       3.420   3.935  19.019  0.00  0.00    +0.000 C 
ENDROOT
BRANCH   1   3
ATOM      2  O   UNL     1       1.483   5.031  18.086  0.00  0.00    +0.000 OA
ATOM      3  C   UNL     1       2.513   5.131  18.747  0.00  0.00    +0.000 C 
ATOM      4  N   UNL     1       2.951   6.312  19.339  0.00  0.00    +0.000 N 
ATOM      5  H   UNL     1       3.912   6.359  19.667  0.00  0.00    +0.000 HD
BRANCH   4   6
ATOM      6  C   UNL     1       2.219   7.523  19.412  0.00  0.00    +0.000 A 
ATOM      7  C   UNL     1       1.540   7.942  20.560  0.00  0.00    +0.000 A 
ATOM      8  C   UNL     1       0.861   9.171  20.571  0.00  0.00    +0.000 A 
ATOM      9  C   UNL     1       0.856   9.996  19.439  0.00  0.00    +0.000 A 
ATOM     10  C   UNL     1       1.534   9.584  18.291  0.00  0.00    +0.000 A 
ATOM     11  C   UNL     1       2.210   8.364  18.288  0.00  0.00    +0.000 A 
ATOM     12  F   UNL     1       2.859   7.985  17.175  0.00  0.00    +0.000 F 
BRANCH   8  13
ATOM     13  N   UNL     1       0.164   9.599  21.791  0.00  0.00    +0.000 N 
ATOM     14  O   UNL     1      -0.668   8.829  22.289  0.00  0.00    +0.000 OA
ATOM     15  O   UNL     1       0.456  10.710  22.256  0.00  0.00    +0.000 OA
ENDBRANCH   8  13
ENDBRANCH   4   6
ENDBRANCH   1   3
BRANCH   1  16
ATOM     16  S   UNL     1       3.848   3.045  17.479  0.00  0.00    +0.000 S 
BRANCH  16  17
ATOM     17  C   UNL     1       5.339   3.936  17.034  0.00  0.00    +0.000 A 
ATOM     18  N   UNL     1       6.000   4.444  18.095  0.00  0.00    +0.000 NA
ATOM     19  C   UNL     1       7.129   5.133  17.850  0.00  0.00    +0.000 A 
ATOM     20  N   UNL     1       7.625   5.328  16.606  0.00  0.00    +0.000 NA
ATOM     21  C   UNL     1       6.958   4.810  15.569  0.00  0.00    +0.000 A 
ATOM     22  C   UNL     1       7.467   5.025  14.294  0.00  0.00    +0.000 A 
ATOM     23  C   UNL     1       6.835   4.534  13.150  0.00  0.00    +0.000 A 
ATOM     24  C   UNL     1       5.664   3.802  13.277  0.00  0.00    +0.000 A 
ATOM     25  C   UNL     1       5.134   3.571  14.543  0.00  0.00    +0.000 A 
ATOM     26  C   UNL     1       5.774   4.076  15.709  0.00  0.00    +0.000 A 
BRANCH  19  27
ATOM     27  C   UNL     1       7.870   5.754  19.038  0.00  0.00    +0.000 C 
ATOM     28  F   UNL     1       7.063   5.960  20.128  0.00  0.00    +0.000 F 
ATOM     29  F   UNL     1       8.905   4.992  19.495  0.00  0.00    +0.000 F 
ATOM     30  F   UNL     1       8.401   6.981  18.757  0.00  0.00    +0.000 F 
ENDBRANCH  19  27
ENDBRANCH  16  17
ENDBRANCH   1  16
TORSDOF 6
ENDMDL
MODEL 2
REMARK VINA RESULT:      -8.5      3.698      5.359
REMARK  Name = 
REMARK  6 active torsions:
REMARK  status: ('A' for Active; 'I' for Inactive)
REMARK    1  A    between atoms: C_2  and  C_3
REMARK    2  A    between atoms: C_3  and  S_4
REMARK    3  A    between atoms: S_4  and  C_5
REMARK    4  A    between atoms: C_7  and  C_8
REMARK    5  A    between atoms: N_19  and  C_20
REMARK    6  A    between atoms: C_22  and  N_23
REMARK                            x       y       z     vdW  Elec       q    Type
REMARK                         _______ _______ _______ _____ _____    ______ ____
ROOT
ATOM      1  C   UNL     1       2.736   8.450  17.907  0.00  0.00    +0.000 C 
ENDROOT
BRANCH   1   3
ATOM      2  O   UNL     1       2.133  10.758  17.540  0.00  0.00    +0.000 OA
ATOM      3  C   UNL     1       1.812   9.661  17.989  0.00  0.00    +0.000 C 
ATOM      4  N   UNL     1       0.584   9.389  18.584  0.00  0.00    +0.000 N 
ATOM      5  H   UNL     1       0.491   8.533  19.126  0.00  0.00    +0.000 HD
BRANCH   4   6
ATOM      6  C   UNL     1      -0.529  10.265  18.625  0.00  0.00    +0.000 A 
ATOM      7  C   UNL     1      -1.459  10.373  17.586  0.00  0.00    +0.000 A 
ATOM      8  C   UNL     1      -2.557  11.239  17.708  0.00  0.00    +0.000 A 
ATOM      9  C   UNL     1      -2.742  12.002  18.869  0.00  0.00    +0.000 A 
ATOM     10  C   UNL     1      -1.818  11.896  19.909  0.00  0.00    +0.000 A 
ATOM     11  C   UNL     1      -0.731  11.031  19.783  0.00  0.00    +0.000 A 
ATOM     12  F   UNL     1       0.146  10.940  20.797  0.00  0.00    +0.000 F 
BRANCH   8  13
ATOM     13  N   UNL     1      -3.530  11.329  16.612  0.00  0.00    +0.000 N 
ATOM     14  O   UNL     1      -4.679  11.707  16.880  0.00  0.00    +0.000 OA
ATOM     15  O   UNL     1      -3.141  11.026  15.475  0.00  0.00    +0.000 OA
ENDBRANCH   8  13
ENDBRANCH   4   6
ENDBRANCH   1   3
BRANCH   1  16
ATOM     16  S   UNL     1       2.407   7.254  19.251  0.00  0.00    +0.000 S 
BRANCH  16  17
ATOM     17  C   UNL     1       2.917   5.745  18.428  0.00  0.00    +0.000 A 
ATOM     18  N   UNL     1       3.882   5.934  17.505  0.00  0.00    +0.000 NA
ATOM     19  C   UNL     1       4.320   4.853  16.835  0.00  0.00    +0.000 A 
ATOM     20  N   UNL     1       3.846   3.604  17.049  0.00  0.00    +0.000 NA
ATOM     21  C   UNL     1       2.893   3.437  17.974  0.00  0.00    +0.000 A 
ATOM     22  C   UNL     1       2.402   2.153  18.179  0.00  0.00    +0.000 A 
ATOM     23  C   UNL     1       1.401   1.882  19.113  0.00  0.00    +0.000 A 
ATOM     24  C   UNL     1       0.873   2.918  19.870  0.00  0.00    +0.000 A 
ATOM     25  C   UNL     1       1.349   4.214  19.685  0.00  0.00    +0.000 A 
ATOM     26  C   UNL     1       2.366   4.491  18.728  0.00  0.00    +0.000 A 
BRANCH  19  27
ATOM     27  C   UNL     1       5.386   5.054  15.753  0.00  0.00    +0.000 C 
ATOM     28  F   UNL     1       5.418   6.334  15.261  0.00  0.00    +0.000 F 
ATOM     29  F   UNL     1       6.655   4.802  16.183  0.00  0.00    +0.000 F 
ATOM     30  F   UNL     1       5.195   4.261  14.658  0.00  0.00    +0.000 F 
ENDBRANCH  19  27
ENDBRANCH  16  17
ENDBRANCH   1  16
TORSDOF 6
ENDMDL
MODEL 3
REMARK VINA RESULT:      -8.2      3.468      4.741
REMARK  Name = 
REMARK  6 active torsions:
REMARK  status: ('A' for Active; 'I' for Inactive)
REMARK    1  A    between atoms: C_2  and  C_3
REMARK    2  A    between atoms: C_3  and  S_4
REMARK    3  A    between atoms: S_4  and  C_5
REMARK    4  A    between atoms: C_7  and  C_8
REMARK    5  A    between atoms: N_19  and  C_20
REMARK    6  A    between atoms: C_22  and  N_23
REMARK                            x       y       z     vdW  Elec       q    Type
REMARK                         _______ _______ _______ _____ _____    ______ ____
ROOT
ATOM      1  C   UNL     1       2.621   8.077  17.819  0.00  0.00    +0.000 C 
ENDROOT
BRANCH   1   3
ATOM      2  O   UNL     1       2.201  10.441  17.567  0.00  0.00    +0.000 OA
ATOM      3  C   UNL     1       1.766   9.339  17.892  0.00  0.00    +0.000 C 
ATOM      4  N   UNL     1       0.464   9.110  18.325  0.00  0.00    +0.000 N 
ATOM      5  H   UNL     1       0.258   8.226  18.785  0.00  0.00    +0.000 HD
BRANCH   4   6
ATOM      6  C   UNL     1      -0.592  10.054  18.309  0.00  0.00    +0.000 A 
ATOM      7  C   UNL     1      -1.536  10.134  17.280  0.00  0.00    +0.000 A 
ATOM      8  C   UNL     1      -2.576  11.073  17.347  0.00  0.00    +0.000 A 
ATOM      9  C   UNL     1      -2.690  11.940  18.442  0.00  0.00    +0.000 A 
ATOM     10  C   UNL     1      -1.753  11.862  19.473  0.00  0.00    +0.000 A 
ATOM     11  C   UNL     1      -0.723  10.923  19.403  0.00  0.00    +0.000 A 
ATOM     12  F   UNL     1       0.167  10.862  20.406  0.00  0.00    +0.000 F 
BRANCH   8  13
ATOM     13  N   UNL     1      -3.564  11.134  16.262  0.00  0.00    +0.000 N 
ATOM     14  O   UNL     1      -3.149  11.165  15.095  0.00  0.00    +0.000 OA
ATOM     15  O   UNL     1      -4.762  11.145  16.579  0.00  0.00    +0.000 OA
ENDBRANCH   8  13
ENDBRANCH   4   6
ENDBRANCH   1   3
BRANCH   1  16
ATOM     16  S   UNL     1       2.623   7.168  19.406  0.00  0.00    +0.000 S 
BRANCH  16  17
ATOM     17  C   UNL     1       3.654   5.777  18.942  0.00  0.00    +0.000 A 
ATOM     18  N   UNL     1       4.972   6.064  18.927  0.00  0.00    +0.000 NA
ATOM     19  C   UNL     1       5.818   5.077  18.584  0.00  0.00    +0.000 A 
ATOM     20  N   UNL     1       5.411   3.827  18.265  0.00  0.00    +0.000 NA
ATOM     21  C   UNL     1       4.100   3.560  18.292  0.00  0.00    +0.000 A 
ATOM     22  C   UNL     1       3.689   2.278  17.951  0.00  0.00    +0.000 A 
ATOM     23  C   UNL     1       2.342   1.909  17.939  0.00  0.00    +0.000 A 
ATOM     24  C   UNL     1       1.374   2.843  18.281  0.00  0.00    +0.000 A 
ATOM     25  C   UNL     1       1.761   4.135  18.629  0.00  0.00    +0.000 A 
ATOM     26  C   UNL     1       3.133   4.513  18.635  0.00  0.00    +0.000 A 
BRANCH  19  27
ATOM     27  C   UNL     1       7.316   5.396  18.521  0.00  0.00    +0.000 C 
ATOM     28  F   UNL     1       7.595   6.522  17.790  0.00  0.00    +0.000 F 
ATOM     29  F   UNL     1       7.881   5.609  19.744  0.00  0.00    +0.000 F 
ATOM     30  F   UNL     1       8.050   4.404  17.934  0.00  0.00    +0.000 F 
ENDBRANCH  19  27
ENDBRANCH  16  17
ENDBRANCH   1  16
TORSDOF 6
ENDMDL
MODEL 4
REMARK VINA RESULT:      -8.2      2.933      4.707
REMARK  Name = 
REMARK  6 active torsions:
REMARK  status: ('A' for Active; 'I' for Inactive)
REMARK    1  A    between atoms: C_2  and  C_3
REMARK    2  A    between atoms: C_3  and  S_4
REMARK    3  A    between atoms: S_4  and  C_5
REMARK    4  A    between atoms: C_7  and  C_8
REMARK    5  A    between atoms: N_19  and  C_20
REMARK    6  A    between atoms: C_22  and  N_23
REMARK                            x       y       z     vdW  Elec       q    Type
REMARK                         _______ _______ _______ _____ _____    ______ ____
ROOT
ATOM      1  C   UNL     1       2.534   8.326  17.801  0.00  0.00    +0.000 C 
ENDROOT
BRANCH   1   3
ATOM      2  O   UNL     1       2.166  10.704  17.612  0.00  0.00    +0.000 OA
ATOM      3  C   UNL     1       1.889   9.654  18.186  0.00  0.00    +0.000 C 
ATOM      4  N   UNL     1       0.953   9.546  19.209  0.00  0.00    +0.000 N 
ATOM      5  H   UNL     1       0.952   8.700  19.773  0.00  0.00    +0.000 HD
BRANCH   4   6
ATOM      6  C   UNL     1       0.071  10.570  19.637  0.00  0.00    +0.000 A 
ATOM      7  C   UNL     1       0.281  11.331  20.791  0.00  0.00    +0.000 A 
ATOM      8  C   UNL     1      -0.618  12.352  21.136  0.00  0.00    +0.000 A 
ATOM      9  C   UNL     1      -1.733  12.628  20.333  0.00  0.00    +0.000 A 
ATOM     10  C   UNL     1      -1.945  11.873  19.179  0.00  0.00    +0.000 A 
ATOM     11  C   UNL     1      -1.046  10.862  18.838  0.00  0.00    +0.000 A 
ATOM     12  F   UNL     1      -1.265  10.148  17.722  0.00  0.00    +0.000 F 
BRANCH   8  13
ATOM     13  N   UNL     1      -0.375  13.149  22.346  0.00  0.00    +0.000 N 
ATOM     14  O   UNL     1      -1.054  12.906  23.352  0.00  0.00    +0.000 OA
ATOM     15  O   UNL     1       0.506  14.019  22.290  0.00  0.00    +0.000 OA
ENDBRANCH   8  13
ENDBRANCH   4   6
ENDBRANCH   1   3
BRANCH   1  16
ATOM     16  S   UNL     1       2.564   7.155  19.206  0.00  0.00    +0.000 S 
BRANCH  16  17
ATOM     17  C   UNL     1       3.092   5.676  18.340  0.00  0.00    +0.000 A 
ATOM     18  N   UNL     1       4.119   5.887  17.491  0.00  0.00    +0.000 NA
ATOM     19  C   UNL     1       4.574   4.830  16.795  0.00  0.00    +0.000 A 
ATOM     20  N   UNL     1       4.060   3.584  16.914  0.00  0.00    +0.000 NA
ATOM     21  C   UNL     1       3.046   3.395  17.767  0.00  0.00    +0.000 A 
ATOM     22  C   UNL     1       2.515   2.116  17.875  0.00  0.00    +0.000 A 
ATOM     23  C   UNL     1       1.449   1.825  18.729  0.00  0.00    +0.000 A 
ATOM     24  C   UNL     1       0.898   2.835  19.503  0.00  0.00    +0.000 A 
ATOM     25  C   UNL     1       1.413   4.125  19.415  0.00  0.00    +0.000 A 
ATOM     26  C   UNL     1       2.495   4.424  18.540  0.00  0.00    +0.000 A 
BRANCH  19  27
ATOM     27  C   UNL     1       5.712   5.058  15.795  0.00  0.00    +0.000 C 
ATOM     28  F   UNL     1       6.870   5.495  16.387  0.00  0.00    +0.000 F 
ATOM     29  F   UNL     1       6.063   3.937  15.102  0.00  0.00    +0.000 F 
ATOM     30  F   UNL     1       5.418   6.005  14.855  0.00  0.00    +0.000 F 
ENDBRANCH  19  27
ENDBRANCH  16  17
ENDBRANCH   1  16
TORSDOF 6
ENDMDL
MODEL 5
REMARK VINA RESULT:      -8.1      2.861      4.487
REMARK  Name = 
REMARK  6 active torsions:
REMARK  status: ('A' for Active; 'I' for Inactive)
REMARK    1  A    between atoms: C_2  and  C_3
REMARK    2  A    between atoms: C_3  and  S_4
REMARK    3  A    between atoms: S_4  and  C_5
REMARK    4  A    between atoms: C_7  and  C_8
REMARK    5  A    between atoms: N_19  and  C_20
REMARK    6  A    between atoms: C_22  and  N_23
REMARK                            x       y       z     vdW  Elec       q    Type
REMARK                         _______ _______ _______ _____ _____    ______ ____
ROOT
ATOM      1  C   UNL     1       2.115   7.500  19.829  0.00  0.00    +0.000 C 
ENDROOT
BRANCH   1   3
ATOM      2  O   UNL     1       0.983   9.188  21.130  0.00  0.00    +0.000 OA
ATOM      3  C   UNL     1       1.362   8.812  20.024  0.00  0.00    +0.000 C 
ATOM      4  N   UNL     1       1.184   9.535  18.849  0.00  0.00    +0.000 N 
ATOM      5  H   UNL     1       1.320   9.055  17.963  0.00  0.00    +0.000 HD
BRANCH   4   6
ATOM      6  C   UNL     1       0.693  10.861  18.759  0.00  0.00    +0.000 A 
ATOM      7  C   UNL     1       1.502  11.992  18.908  0.00  0.00    +0.000 A 
ATOM      8  C   UNL     1       0.953  13.277  18.773  0.00  0.00    +0.000 A 
ATOM      9  C   UNL     1      -0.407  13.447  18.483  0.00  0.00    +0.000 A 
ATOM     10  C   UNL     1      -1.219  12.322  18.330  0.00  0.00    +0.000 A 
ATOM     11  C   UNL     1      -0.666  11.048  18.462  0.00  0.00    +0.000 A 
ATOM     12  F   UNL     1      -1.462   9.978  18.308  0.00  0.00    +0.000 F 
BRANCH   8  13
ATOM     13  N   UNL     1       1.822  14.452  18.922  0.00  0.00    +0.000 N 
ATOM     14  O   UNL     1       2.962  14.281  19.373  0.00  0.00    +0.000 OA
ATOM     15  O   UNL     1       1.361  15.550  18.579  0.00  0.00    +0.000 OA
ENDBRANCH   8  13
ENDBRANCH   4   6
ENDBRANCH   1   3
BRANCH   1  16
ATOM     16  S   UNL     1       2.717   7.312  18.112  0.00  0.00    +0.000 S 
BRANCH  16  17
ATOM     17  C   UNL     1       3.733   5.849  18.319  0.00  0.00    +0.000 A 
ATOM     18  N   UNL     1       5.056   6.111  18.344  0.00  0.00    +0.000 NA
ATOM     19  C   UNL     1       5.892   5.067  18.491  0.00  0.00    +0.000 A 
ATOM     20  N   UNL     1       5.468   3.789  18.618  0.00  0.00    +0.000 NA
ATOM     21  C   UNL     1       4.152   3.551  18.597  0.00  0.00    +0.000 A 
ATOM     22  C   UNL     1       3.726   2.234  18.716  0.00  0.00    +0.000 A 
ATOM     23  C   UNL     1       2.373   1.887  18.693  0.00  0.00    +0.000 A 
ATOM     24  C   UNL     1       1.415   2.880  18.552  0.00  0.00    +0.000 A 
ATOM     25  C   UNL     1       1.816   4.208  18.433  0.00  0.00    +0.000 A 
ATOM     26  C   UNL     1       3.194   4.562  18.450  0.00  0.00    +0.000 A 
BRANCH  19  27
ATOM     27  C   UNL     1       7.400   5.340  18.480  0.00  0.00    +0.000 C 
ATOM     28  F   UNL     1       7.739   6.452  17.753  0.00  0.00    +0.000 F 
ATOM     29  F   UNL     1       7.926   5.546  19.721  0.00  0.00    +0.000 F 
ATOM     30  F   UNL     1       8.124   4.323  17.927  0.00  0.00    +0.000 F 
ENDBRANCH  19  27
ENDBRANCH  16  17
ENDBRANCH   1  16
TORSDOF 6
ENDMDL
MODEL 6
REMARK VINA RESULT:      -8.1      3.310      4.589
REMARK  Name = 
REMARK  6 active torsions:
REMARK  status: ('A' for Active; 'I' for Inactive)
REMARK    1  A    between atoms: C_2  and  C_3
REMARK    2  A    between atoms: C_3  and  S_4
REMARK    3  A    between atoms: S_4  and  C_5
REMARK    4  A    between atoms: C_7  and  C_8
REMARK    5  A    between atoms: N_19  and  C_20
REMARK    6  A    between atoms: C_22  and  N_23
REMARK                            x       y       z     vdW  Elec       q    Type
REMARK                         _______ _______ _______ _____ _____    ______ ____
ROOT
ATOM      1  C   UNL     1       2.481   7.917  18.087  0.00  0.00    +0.000 C 
ENDROOT
BRANCH   1   3
ATOM      2  O   UNL     1       2.128  10.216  17.444  0.00  0.00    +0.000 OA
ATOM      3  C   UNL     1       1.798   9.278  18.166  0.00  0.00    +0.000 C 
ATOM      4  N   UNL     1       0.767   9.335  19.098  0.00  0.00    +0.000 N 
ATOM      5  H   UNL     1       0.713   8.602  19.802  0.00  0.00    +0.000 HD
BRANCH   4   6
ATOM      6  C   UNL     1      -0.154  10.401  19.252  0.00  0.00    +0.000 A 
ATOM      7  C   UNL     1      -1.357  10.485  18.544  0.00  0.00    +0.000 A 
ATOM      8  C   UNL     1      -2.238  11.554  18.771  0.00  0.00    +0.000 A 
ATOM      9  C   UNL     1      -1.930  12.548  19.709  0.00  0.00    +0.000 A 
ATOM     10  C   UNL     1      -0.732  12.468  20.420  0.00  0.00    +0.000 A 
ATOM     11  C   UNL     1       0.137  11.401  20.193  0.00  0.00    +0.000 A 
ATOM     12  F   UNL     1       1.284  11.339  20.889  0.00  0.00    +0.000 F 
BRANCH   8  13
ATOM     13  N   UNL     1      -3.502  11.618  18.027  0.00  0.00    +0.000 N 
ATOM     14  O   UNL     1      -4.524  11.955  18.640  0.00  0.00    +0.000 OA
ATOM     15  O   UNL     1      -3.471  11.335  16.821  0.00  0.00    +0.000 OA
ENDBRANCH   8  13
ENDBRANCH   4   6
ENDBRANCH   1   3
BRANCH   1  16
ATOM     16  S   UNL     1       2.361   7.005  19.668  0.00  0.00    +0.000 S 
BRANCH  16  17
ATOM     17  C   UNL     1       3.475   5.648  19.306  0.00  0.00    +0.000 A 
ATOM     18  N   UNL     1       4.774   6.010  19.278  0.00  0.00    +0.000 NA
ATOM     19  C   UNL     1       5.678   5.052  19.008  0.00  0.00    +0.000 A 
ATOM     20  N   UNL     1       5.347   3.761  18.774  0.00  0.00    +0.000 NA
ATOM     21  C   UNL     1       4.053   3.421  18.813  0.00  0.00    +0.000 A 
ATOM     22  C   UNL     1       3.719   2.097  18.559  0.00  0.00    +0.000 A 
ATOM     23  C   UNL     1       2.396   1.651  18.566  0.00  0.00    +0.000 A 
ATOM     24  C   UNL     1       1.373   2.548  18.838  0.00  0.00    +0.000 A 
ATOM     25  C   UNL     1       1.682   3.881  19.098  0.00  0.00    +0.000 A 
ATOM     26  C   UNL     1       3.030   4.337  19.085  0.00  0.00    +0.000 A 
BRANCH  19  27
ATOM     27  C   UNL     1       7.156   5.452  18.930  0.00  0.00    +0.000 C 
ATOM     28  F   UNL     1       7.354   6.659  18.310  0.00  0.00    +0.000 F 
ATOM     29  F   UNL     1       7.754   5.571  20.150  0.00  0.00    +0.000 F 
ATOM     30  F   UNL     1       7.915   4.564  18.222  0.00  0.00    +0.000 F 
ENDBRANCH  19  27
ENDBRANCH  16  17
ENDBRANCH   1  16
TORSDOF 6
ENDMDL
MODEL 7
REMARK VINA RESULT:      -8.1      3.323      4.778
REMARK  Name = 
REMARK  6 active torsions:
REMARK  status: ('A' for Active; 'I' for Inactive)
REMARK    1  A    between atoms: C_2  and  C_3
REMARK    2  A    between atoms: C_3  and  S_4
REMARK    3  A    between atoms: S_4  and  C_5
REMARK    4  A    between atoms: C_7  and  C_8
REMARK    5  A    between atoms: N_19  and  C_20
REMARK    6  A    between atoms: C_22  and  N_23
REMARK                            x       y       z     vdW  Elec       q    Type
REMARK                         _______ _______ _______ _____ _____    ______ ____
ROOT
ATOM      1  C   UNL     1       2.445   8.041  18.829  0.00  0.00    +0.000 C 
ENDROOT
BRANCH   1   3
ATOM      2  O   UNL     1       1.881  10.033  17.588  0.00  0.00    +0.000 OA
ATOM      3  C   UNL     1       1.594   9.264  18.502  0.00  0.00    +0.000 C 
ATOM      4  N   UNL     1       0.468   9.395  19.309  0.00  0.00    +0.000 N 
ATOM      5  H   UNL     1       0.429   8.858  20.172  0.00  0.00    +0.000 HD
BRANCH   4   6
ATOM      6  C   UNL     1      -0.590  10.317  19.112  0.00  0.00    +0.000 A 
ATOM      7  C   UNL     1      -1.390  10.335  17.965  0.00  0.00    +0.000 A 
ATOM      8  C   UNL     1      -2.443  11.256  17.852  0.00  0.00    +0.000 A 
ATOM      9  C   UNL     1      -2.711  12.167  18.883  0.00  0.00    +0.000 A 
ATOM     10  C   UNL     1      -1.917  12.151  20.030  0.00  0.00    +0.000 A 
ATOM     11  C   UNL     1      -0.876  11.230  20.138  0.00  0.00    +0.000 A 
ATOM     12  F   UNL     1      -0.125  11.229  21.252  0.00  0.00    +0.000 F 
BRANCH   8  13
ATOM     13  N   UNL     1      -3.279  11.252  16.645  0.00  0.00    +0.000 N 
ATOM     14  O   UNL     1      -2.734  11.023  15.557  0.00  0.00    +0.000 OA
ATOM     15  O   UNL     1      -4.490  11.472  16.788  0.00  0.00    +0.000 OA
ENDBRANCH   8  13
ENDBRANCH   4   6
ENDBRANCH   1   3
BRANCH   1  16
ATOM     16  S   UNL     1       3.140   7.276  17.320  0.00  0.00    +0.000 S 
BRANCH  16  17
ATOM     17  C   UNL     1       4.044   5.922  18.071  0.00  0.00    +0.000 A 
ATOM     18  N   UNL     1       5.381   6.105  18.079  0.00  0.00    +0.000 NA
ATOM     19  C   UNL     1       6.136   5.132  18.620  0.00  0.00    +0.000 A 
ATOM     20  N   UNL     1       5.621   4.001  19.153  0.00  0.00    +0.000 NA
ATOM     21  C   UNL     1       4.292   3.842  19.141  0.00  0.00    +0.000 A 
ATOM     22  C   UNL     1       3.772   2.672  19.680  0.00  0.00    +0.000 A 
ATOM     23  C   UNL     1       2.400   2.411  19.702  0.00  0.00    +0.000 A 
ATOM     24  C   UNL     1       1.518   3.345  19.177  0.00  0.00    +0.000 A 
ATOM     25  C   UNL     1       2.015   4.527  18.632  0.00  0.00    +0.000 A 
ATOM     26  C   UNL     1       3.413   4.790  18.604  0.00  0.00    +0.000 A 
BRANCH  19  27
ATOM     27  C   UNL     1       7.659   5.303  18.600  0.00  0.00    +0.000 C 
ATOM     28  F   UNL     1       8.210   5.362  19.855  0.00  0.00    +0.000 F 
ATOM     29  F   UNL     1       8.314   4.290  17.965  0.00  0.00    +0.000 F 
ATOM     30  F   UNL     1       8.061   6.455  17.985  0.00  0.00    +0.000 F 
ENDBRANCH  19  27
ENDBRANCH  16  17
ENDBRANCH   1  16
TORSDOF 6
ENDMDL
MODEL 8
REMARK VINA RESULT:      -8.1      1.818      2.132
REMARK  Name = 
REMARK  6 active torsions:
REMARK  status: ('A' for Active; 'I' for Inactive)
REMARK    1  A    between atoms: C_2  and  C_3
REMARK    2  A    between atoms: C_3  and  S_4
REMARK    3  A    between atoms: S_4  and  C_5
REMARK    4  A    between atoms: C_7  and  C_8
REMARK    5  A    between atoms: N_19  and  C_20
REMARK    6  A    between atoms: C_22  and  N_23
REMARK                            x       y       z     vdW  Elec       q    Type
REMARK                         _______ _______ _______ _____ _____    ______ ____
ROOT
ATOM      1  C   UNL     1       3.632   3.362  18.160  0.00  0.00    +0.000 C 
ENDROOT
BRANCH   1   3
ATOM      2  O   UNL     1       1.408   4.296  18.252  0.00  0.00    +0.000 OA
ATOM      3  C   UNL     1       2.614   4.472  18.405  0.00  0.00    +0.000 C 
ATOM      4  N   UNL     1       3.181   5.665  18.840  0.00  0.00    +0.000 N 
ATOM      5  H   UNL     1       4.183   5.795  18.720  0.00  0.00    +0.000 HD
BRANCH   4   6
ATOM      6  C   UNL     1       2.471   6.793  19.321  0.00  0.00    +0.000 A 
ATOM      7  C   UNL     1       2.296   7.965  18.578  0.00  0.00    +0.000 A 
ATOM      8  C   UNL     1       1.552   9.032  19.105  0.00  0.00    +0.000 A 
ATOM      9  C   UNL     1       0.970   8.940  20.377  0.00  0.00    +0.000 A 
ATOM     10  C   UNL     1       1.138   7.772  21.121  0.00  0.00    +0.000 A 
ATOM     11  C   UNL     1       1.876   6.713  20.590  0.00  0.00    +0.000 A 
ATOM     12  F   UNL     1       2.024   5.596  21.320  0.00  0.00    +0.000 F 
BRANCH   8  13
ATOM     13  N   UNL     1       1.370  10.250  18.305  0.00  0.00    +0.000 N 
ATOM     14  O   UNL     1       2.331  10.661  17.641  0.00  0.00    +0.000 OA
ATOM     15  O   UNL     1       0.258  10.795  18.337  0.00  0.00    +0.000 OA
ENDBRANCH   8  13
ENDBRANCH   4   6
ENDBRANCH   1   3
BRANCH   1  16
ATOM     16  S   UNL     1       3.843   3.019  16.376  0.00  0.00    +0.000 S 
BRANCH  16  17
ATOM     17  C   UNL     1       5.327   3.978  16.069  0.00  0.00    +0.000 A 
ATOM     18  N   UNL     1       5.829   4.562  17.177  0.00  0.00    +0.000 NA
ATOM     19  C   UNL     1       6.941   5.306  17.035  0.00  0.00    +0.000 A 
ATOM     20  N   UNL     1       7.569   5.485  15.851  0.00  0.00    +0.000 NA
ATOM     21  C   UNL     1       7.058   4.893  14.765  0.00  0.00    +0.000 A 
ATOM     22  C   UNL     1       7.701   5.092  13.550  0.00  0.00    +0.000 A 
ATOM     23  C   UNL     1       7.236   4.524  12.362  0.00  0.00    +0.000 A 
ATOM     24  C   UNL     1       6.099   3.730  12.383  0.00  0.00    +0.000 A 
ATOM     25  C   UNL     1       5.436   3.514  13.589  0.00  0.00    +0.000 A 
ATOM     26  C   UNL     1       5.907   4.097  14.799  0.00  0.00    +0.000 A 
BRANCH  19  27
ATOM     27  C   UNL     1       7.503   6.011  18.275  0.00  0.00    +0.000 C 
ATOM     28  F   UNL     1       6.553   6.245  19.237  0.00  0.00    +0.000 F 
ATOM     29  F   UNL     1       8.488   5.308  18.903  0.00  0.00    +0.000 F 
ATOM     30  F   UNL     1       8.034   7.239  17.998  0.00  0.00    +0.000 F 
ENDBRANCH  19  27
ENDBRANCH  16  17
ENDBRANCH   1  16
TORSDOF 6
ENDMDL
MODEL 9
REMARK VINA RESULT:      -8.0      4.244      9.076
REMARK  Name = 
REMARK  6 active torsions:
REMARK  status: ('A' for Active; 'I' for Inactive)
REMARK    1  A    between atoms: C_2  and  C_3
REMARK    2  A    between atoms: C_3  and  S_4
REMARK    3  A    between atoms: S_4  and  C_5
REMARK    4  A    between atoms: C_7  and  C_8
REMARK    5  A    between atoms: N_19  and  C_20
REMARK    6  A    between atoms: C_22  and  N_23
REMARK                            x       y       z     vdW  Elec       q    Type
REMARK                         _______ _______ _______ _____ _____    ______ ____
ROOT
ATOM      1  C   UNL     1       1.355   8.400  19.903  0.00  0.00    +0.000 C 
ENDROOT
BRANCH   1   3
ATOM      2  O   UNL     1       2.498   6.358  20.492  0.00  0.00    +0.000 OA
ATOM      3  C   UNL     1       2.304   7.232  19.652  0.00  0.00    +0.000 C 
ATOM      4  N   UNL     1       2.886   7.245  18.389  0.00  0.00    +0.000 N 
ATOM      5  H   UNL     1       2.853   8.108  17.852  0.00  0.00    +0.000 HD
BRANCH   4   6
ATOM      6  C   UNL     1       3.652   6.198  17.818  0.00  0.00    +0.000 A 
ATOM      7  C   UNL     1       5.015   6.312  17.529  0.00  0.00    +0.000 A 
ATOM      8  C   UNL     1       5.718   5.221  16.994  0.00  0.00    +0.000 A 
ATOM      9  C   UNL     1       5.069   4.004  16.746  0.00  0.00    +0.000 A 
ATOM     10  C   UNL     1       3.709   3.884  17.035  0.00  0.00    +0.000 A 
ATOM     11  C   UNL     1       3.018   4.970  17.571  0.00  0.00    +0.000 A 
ATOM     12  F   UNL     1       1.710   4.834  17.845  0.00  0.00    +0.000 F 
BRANCH   8  13
ATOM     13  N   UNL     1       7.152   5.356  16.708  0.00  0.00    +0.000 N 
ATOM     14  O   UNL     1       7.883   4.379  16.916  0.00  0.00    +0.000 OA
ATOM     15  O   UNL     1       7.547   6.445  16.269  0.00  0.00    +0.000 OA
ENDBRANCH   8  13
ENDBRANCH   4   6
ENDBRANCH   1   3
BRANCH   1  16
ATOM     16  S   UNL     1       1.196   9.472  18.429  0.00  0.00    +0.000 S 
BRANCH  16  17
ATOM     17  C   UNL     1      -0.184  10.488  18.957  0.00  0.00    +0.000 A 
ATOM     18  N   UNL     1       0.052  11.168  20.098  0.00  0.00    +0.000 NA
ATOM     19  C   UNL     1      -0.934  11.951  20.569  0.00  0.00    +0.000 A 
ATOM     20  N   UNL     1      -2.131  12.089  19.954  0.00  0.00    +0.000 NA
ATOM     21  C   UNL     1      -2.344  11.411  18.820  0.00  0.00    +0.000 A 
ATOM     22  C   UNL     1      -3.580  11.548  18.200  0.00  0.00    +0.000 A 
ATOM     23  C   UNL     1      -3.898  10.872  17.021  0.00  0.00    +0.000 A 
ATOM     24  C   UNL     1      -2.956  10.038  16.436  0.00  0.00    +0.000 A 
ATOM     25  C   UNL     1      -1.709   9.884  17.036  0.00  0.00    +0.000 A 
ATOM     26  C   UNL     1      -1.387  10.569  18.242  0.00  0.00    +0.000 A 
BRANCH  19  27
ATOM     27  C   UNL     1      -0.699  12.699  21.886  0.00  0.00    +0.000 C 
ATOM     28  F   UNL     1      -1.655  13.649  22.143  0.00  0.00    +0.000 F 
ATOM     29  F   UNL     1      -0.693  11.887  22.981  0.00  0.00    +0.000 F 
ATOM     30  F   UNL     1       0.487  13.377  21.912  0.00  0.00    +0.000 F 
ENDBRANCH  19  27
ENDBRANCH  16  17
ENDBRANCH   1  16
TORSDOF 6
ENDMDL
