MODEL 1
REMARK VINA RESULT:      -9.5      0.000      0.000
REMARK  Name = 
REMARK  5 active torsions:
REMARK  status: ('A' for Active; 'I' for Inactive)
REMARK    1  A    between atoms: C_2  and  C_3
REMARK    2  A    between atoms: N_11  and  C_12
REMARK    3  A    between atoms: N_11  and  C_19
REMARK    4  A    between atoms: C_12  and  C_13
REMARK    5  A    between atoms: C_19  and  C_20
REMARK                            x       y       z     vdW  Elec       q    Type
REMARK                         _______ _______ _______ _____ _____    ______ ____
ROOT
ATOM      1  O   UNL     1       6.508   7.094  16.807  0.00  0.00    +0.000 OA
ATOM      2  C   UNL     1       5.649   6.242  17.034  0.00  0.00    +0.000 C 
ATOM      3  N   UNL     1       5.824   4.893  16.679  0.00  0.00    +0.000 N 
ENDROOT
BRANCH   2   4
ATOM      4  C   UNL     1       4.405   6.737  17.688  0.00  0.00    +0.000 A 
ATOM      5  C   UNL     1       3.764   7.845  17.096  0.00  0.00    +0.000 A 
ATOM      6  C   UNL     1       2.620   8.402  17.672  0.00  0.00    +0.000 A 
ATOM      7  C   UNL     1       2.119   7.855  18.847  0.00  0.00    +0.000 A 
ATOM      8  F   UNL     1       1.017   8.381  19.399  0.00  0.00    +0.000 F 
ATOM      9  C   UNL     1       2.770   6.781  19.453  0.00  0.00    +0.000 A 
ATOM     10  F   UNL     1       2.291   6.278  20.601  0.00  0.00    +0.000 F 
ATOM     11  C   UNL     1       3.923   6.226  18.898  0.00  0.00    +0.000 A 
ENDBRANCH   2   4
BRANCH   3  12
ATOM     12  C   UNL     1       7.064   4.576  15.954  0.00  0.00    +0.000 C 
BRANCH  12  13
ATOM     13  C   UNL     1       6.972   4.514  14.443  0.00  0.00    +0.000 A 
ATOM     14  C   UNL     1       7.762   5.400  13.688  0.00  0.00    +0.000 A 
ATOM     15  C   UNL     1       7.781   5.341  12.292  0.00  0.00    +0.000 A 
ATOM     16  C   UNL     1       7.014   4.394  11.626  0.00  0.00    +0.000 A 
ATOM     17  C   UNL     1       6.239   3.496  12.355  0.00  0.00    +0.000 A 
ATOM     18  C   UNL     1       6.221   3.552  13.753  0.00  0.00    +0.000 A 
ENDBRANCH  12  13
ENDBRANCH   3  12
BRANCH   3  19
ATOM     19  C   UNL     1       4.706   3.952  16.492  0.00  0.00    +0.000 C 
BRANCH  19  20
ATOM     20  C   UNL     1       4.103   3.396  17.780  0.00  0.00    +0.000 A 
ATOM     21  N   UNL     1       2.816   3.441  17.939  0.00  0.00    +0.000 NA
ATOM     22  C   UNL     1       2.291   3.047  19.179  0.00  0.00    +0.000 A 
ATOM     23  C   UNL     1       0.933   3.257  19.426  0.00  0.00    +0.000 A 
ATOM     24  C   UNL     1       0.417   3.101  20.714  0.00  0.00    +0.000 A 
ATOM     25  C   UNL     1       1.252   2.702  21.761  0.00  0.00    +0.000 A 
ATOM     26  C   UNL     1       2.591   2.405  21.508  0.00  0.00    +0.000 A 
ATOM     27  C   UNL     1       3.098   2.576  20.217  0.00  0.00    +0.000 A 
ATOM     28  C   UNL     1       4.520   2.353  19.915  0.00  0.00    +0.000 A 
ATOM     29  O   UNL     1       5.270   1.777  20.696  0.00  0.00    +0.000 OA
ATOM     30  N   UNL     1       4.947   2.842  18.702  0.00  0.00    +0.000 N 
ATOM     31  H   UNL     1       5.940   2.776  18.538  0.00  0.00    +0.000 HD
ENDBRANCH  19  20
ENDBRANCH   3  19
TORSDOF 5
ENDMDL
MODEL 2
REMARK VINA RESULT:      -9.0      2.817      5.604
REMARK  Name = 
REMARK  5 active torsions:
REMARK  status: ('A' for Active; 'I' for Inactive)
REMARK    1  A    between atoms: C_2  and  C_3
REMARK    2  A    between atoms: N_11  and  C_12
REMARK    3  A    between atoms: N_11  and  C_19
REMARK    4  A    between atoms: C_12  and  C_13
REMARK    5  A    between atoms: C_19  and  C_20
REMARK                            x       y       z     vdW  Elec       q    Type
REMARK                         _______ _______ _______ _____ _____    ______ ____
ROOT
ATOM      1  O   UNL     1       7.342   6.321  16.102  0.00  0.00    +0.000 OA
ATOM      2  C   UNL     1       6.472   5.532  15.735  0.00  0.00    +0.000 C 
ATOM      3  N   UNL     1       5.343   5.246  16.523  0.00  0.00    +0.000 N 
ENDROOT
BRANCH   2   4
ATOM      4  C   UNL     1       6.705   4.883  14.414  0.00  0.00    +0.000 A 
ATOM      5  C   UNL     1       7.723   5.424  13.602  0.00  0.00    +0.000 A 
ATOM      6  C   UNL     1       7.973   4.906  12.329  0.00  0.00    +0.000 A 
ATOM      7  C   UNL     1       7.200   3.849  11.863  0.00  0.00    +0.000 A 
ATOM      8  F   UNL     1       7.442   3.344  10.646  0.00  0.00    +0.000 F 
ATOM      9  C   UNL     1       6.171   3.335  12.650  0.00  0.00    +0.000 A 
ATOM     10  F   UNL     1       5.414   2.332  12.179  0.00  0.00    +0.000 F 
ATOM     11  C   UNL     1       5.898   3.854  13.917  0.00  0.00    +0.000 A 
ENDBRANCH   2   4
BRANCH   3  12
ATOM     12  C   UNL     1       5.302   5.892  17.843  0.00  0.00    +0.000 C 
BRANCH  12  13
ATOM     13  C   UNL     1       4.050   6.679  18.176  0.00  0.00    +0.000 A 
ATOM     14  C   UNL     1       3.398   6.412  19.395  0.00  0.00    +0.000 A 
ATOM     15  C   UNL     1       2.285   7.156  19.796  0.00  0.00    +0.000 A 
ATOM     16  C   UNL     1       1.806   8.180  18.990  0.00  0.00    +0.000 A 
ATOM     17  C   UNL     1       2.448   8.472  17.789  0.00  0.00    +0.000 A 
ATOM     18  C   UNL     1       3.564   7.730  17.387  0.00  0.00    +0.000 A 
ENDBRANCH  12  13
ENDBRANCH   3  12
BRANCH   3  19
ATOM     19  C   UNL     1       4.542   4.018  16.377  0.00  0.00    +0.000 C 
BRANCH  19  20
ATOM     20  C   UNL     1       3.986   3.446  17.678  0.00  0.00    +0.000 A 
ATOM     21  N   UNL     1       2.705   3.490  17.884  0.00  0.00    +0.000 NA
ATOM     22  C   UNL     1       2.224   3.081  19.137  0.00  0.00    +0.000 A 
ATOM     23  C   UNL     1       0.876   3.289  19.435  0.00  0.00    +0.000 A 
ATOM     24  C   UNL     1       0.407   3.118  20.739  0.00  0.00    +0.000 A 
ATOM     25  C   UNL     1       1.279   2.706  21.750  0.00  0.00    +0.000 A 
ATOM     26  C   UNL     1       2.607   2.412  21.446  0.00  0.00    +0.000 A 
ATOM     27  C   UNL     1       3.068   2.598  20.140  0.00  0.00    +0.000 A 
ATOM     28  C   UNL     1       4.478   2.378  19.784  0.00  0.00    +0.000 A 
ATOM     29  O   UNL     1       5.255   1.792  20.531  0.00  0.00    +0.000 OA
ATOM     30  N   UNL     1       4.861   2.882  18.563  0.00  0.00    +0.000 N 
ATOM     31  H   UNL     1       5.848   2.817  18.362  0.00  0.00    +0.000 HD
ENDBRANCH  19  20
ENDBRANCH   3  19
TORSDOF 5
ENDMDL
MODEL 3
REMARK VINA RESULT:      -8.9      0.632      1.224
REMARK  Name = 
REMARK  5 active torsions:
REMARK  status: ('A' for Active; 'I' for Inactive)
REMARK    1  A    between atoms: C_2  and  C_3
REMARK    2  A    between atoms: N_11  and  C_12
REMARK    3  A    between atoms: N_11  and  C_19
REMARK    4  A    between atoms: C_12  and  C_13
REMARK    5  A    between atoms: C_19  and  C_20
REMARK                            x       y       z     vdW  Elec       q    Type
REMARK                         _______ _______ _______ _____ _____    ______ ____
ROOT
ATOM      1  O   UNL     1       6.742   7.128  16.984  0.00  0.00    +0.000 OA
ATOM      2  C   UNL     1       5.917   6.224  17.110  0.00  0.00    +0.000 C 
ATOM      3  N   UNL     1       6.099   4.960  16.520  0.00  0.00    +0.000 N 
ENDROOT
BRANCH   2   4
ATOM      4  C   UNL     1       4.705   6.561  17.908  0.00  0.00    +0.000 A 
ATOM      5  C   UNL     1       4.636   6.050  19.221  0.00  0.00    +0.000 A 
ATOM      6  C   UNL     1       3.514   6.278  20.020  0.00  0.00    +0.000 A 
ATOM      7  C   UNL     1       2.453   7.014  19.503  0.00  0.00    +0.000 A 
ATOM      8  F   UNL     1       1.377   7.243  20.269  0.00  0.00    +0.000 F 
ATOM      9  C   UNL     1       2.504   7.492  18.195  0.00  0.00    +0.000 A 
ATOM     10  F   UNL     1       1.464   8.178  17.699  0.00  0.00    +0.000 F 
ATOM     11  C   UNL     1       3.612   7.256  17.379  0.00  0.00    +0.000 A 
ENDBRANCH   2   4
BRANCH   3  12
ATOM     12  C   UNL     1       7.299   4.810  15.683  0.00  0.00    +0.000 C 
BRANCH  12  13
ATOM     13  C   UNL     1       7.070   4.570  14.204  0.00  0.00    +0.000 A 
ATOM     14  C   UNL     1       7.858   5.285  13.282  0.00  0.00    +0.000 A 
ATOM     15  C   UNL     1       7.750   5.053  11.909  0.00  0.00    +0.000 A 
ATOM     16  C   UNL     1       6.857   4.102  11.431  0.00  0.00    +0.000 A 
ATOM     17  C   UNL     1       6.082   3.372  12.328  0.00  0.00    +0.000 A 
ATOM     18  C   UNL     1       6.191   3.600  13.704  0.00  0.00    +0.000 A 
ENDBRANCH  12  13
ENDBRANCH   3  12
BRANCH   3  19
ATOM     19  C   UNL     1       4.991   4.031  16.239  0.00  0.00    +0.000 C 
BRANCH  19  20
ATOM     20  C   UNL     1       4.268   3.489  17.470  0.00  0.00    +0.000 A 
ATOM     21  N   UNL     1       2.974   3.570  17.522  0.00  0.00    +0.000 NA
ATOM     22  C   UNL     1       2.337   3.189  18.712  0.00  0.00    +0.000 A 
ATOM     23  C   UNL     1       0.969   3.436  18.846  0.00  0.00    +0.000 A 
ATOM     24  C   UNL     1       0.344   3.293  20.087  0.00  0.00    +0.000 A 
ATOM     25  C   UNL     1       1.078   2.870  21.197  0.00  0.00    +0.000 A 
ATOM     26  C   UNL     1       2.425   2.537  21.057  0.00  0.00    +0.000 A 
ATOM     27  C   UNL     1       3.042   2.695  19.813  0.00  0.00    +0.000 A 
ATOM     28  C   UNL     1       4.478   2.434  19.629  0.00  0.00    +0.000 A 
ATOM     29  O   UNL     1       5.143   1.836  20.468  0.00  0.00    +0.000 OA
ATOM     30  N   UNL     1       5.017   2.912  18.458  0.00  0.00    +0.000 N 
ATOM     31  H   UNL     1       6.019   2.819  18.376  0.00  0.00    +0.000 HD
ENDBRANCH  19  20
ENDBRANCH   3  19
TORSDOF 5
ENDMDL
MODEL 4
REMARK VINA RESULT:      -8.7      3.236      5.394
REMARK  Name = 
REMARK  5 active torsions:
REMARK  status: ('A' for Active; 'I' for Inactive)
REMARK    1  A    between atoms: C_2  and  C_3
REMARK    2  A    between atoms: N_11  and  C_12
REMARK    3  A    between atoms: N_11  and  C_19
REMARK    4  A    between atoms: C_12  and  C_13
REMARK    5  A    between atoms: C_19  and  C_20
REMARK                            x       y       z     vdW  Elec       q    Type
REMARK                         _______ _______ _______ _____ _____    ______ ____
ROOT
ATOM      1  O   UNL     1       5.661   6.347  14.548  0.00  0.00    +0.000 OA
ATOM      2  C   UNL     1       5.422   5.159  14.765  0.00  0.00    +0.000 C 
ATOM      3  N   UNL     1       4.958   4.707  16.013  0.00  0.00    +0.000 N 
ENDROOT
BRANCH   2   4
ATOM      4  C   UNL     1       5.679   4.231  13.629  0.00  0.00    +0.000 A 
ATOM      5  C   UNL     1       7.024   4.025  13.258  0.00  0.00    +0.000 A 
ATOM      6  C   UNL     1       7.350   3.208  12.173  0.00  0.00    +0.000 A 
ATOM      7  C   UNL     1       6.328   2.601  11.452  0.00  0.00    +0.000 A 
ATOM      8  F   UNL     1       6.637   1.809  10.415  0.00  0.00    +0.000 F 
ATOM      9  C   UNL     1       4.997   2.829  11.795  0.00  0.00    +0.000 A 
ATOM     10  F   UNL     1       4.019   2.258  11.076  0.00  0.00    +0.000 F 
ATOM     11  C   UNL     1       4.656   3.657  12.866  0.00  0.00    +0.000 A 
ENDBRANCH   2   4
BRANCH   3  12
ATOM     12  C   UNL     1       4.844   5.730  17.064  0.00  0.00    +0.000 C 
BRANCH  12  13
ATOM     13  C   UNL     1       6.142   6.265  17.635  0.00  0.00    +0.000 A 
ATOM     14  C   UNL     1       6.588   7.530  17.207  0.00  0.00    +0.000 A 
ATOM     15  C   UNL     1       7.735   8.113  17.752  0.00  0.00    +0.000 A 
ATOM     16  C   UNL     1       8.455   7.446  18.736  0.00  0.00    +0.000 A 
ATOM     17  C   UNL     1       8.020   6.202  19.185  0.00  0.00    +0.000 A 
ATOM     18  C   UNL     1       6.870   5.618  18.642  0.00  0.00    +0.000 A 
ENDBRANCH  12  13
ENDBRANCH   3  12
BRANCH   3  19
ATOM     19  C   UNL     1       5.099   3.316  16.475  0.00  0.00    +0.000 C 
BRANCH  19  20
ATOM     20  C   UNL     1       4.369   2.985  17.775  0.00  0.00    +0.000 A 
ATOM     21  N   UNL     1       3.075   3.075  17.806  0.00  0.00    +0.000 NA
ATOM     22  C   UNL     1       2.431   2.895  19.040  0.00  0.00    +0.000 A 
ATOM     23  C   UNL     1       1.064   3.163  19.124  0.00  0.00    +0.000 A 
ATOM     24  C   UNL     1       0.432   3.225  20.369  0.00  0.00    +0.000 A 
ATOM     25  C   UNL     1       1.160   2.989  21.537  0.00  0.00    +0.000 A 
ATOM     26  C   UNL     1       2.506   2.636  21.460  0.00  0.00    +0.000 A 
ATOM     27  C   UNL     1       3.130   2.587  20.210  0.00  0.00    +0.000 A 
ATOM     28  C   UNL     1       4.566   2.297  20.078  0.00  0.00    +0.000 A 
ATOM     29  O   UNL     1       5.226   1.844  21.008  0.00  0.00    +0.000 OA
ATOM     30  N   UNL     1       5.112   2.576  18.847  0.00  0.00    +0.000 N 
ATOM     31  H   UNL     1       6.113   2.469  18.787  0.00  0.00    +0.000 HD
ENDBRANCH  19  20
ENDBRANCH   3  19
TORSDOF 5
ENDMDL
MODEL 5
REMARK VINA RESULT:      -8.4      3.137      5.657
REMARK  Name = 
REMARK  5 active torsions:
REMARK  status: ('A' for Active; 'I' for Inactive)
REMARK    1  A    between atoms: C_2  and  C_3
REMARK    2  A    between atoms: N_11  and  C_12
REMARK    3  A    between atoms: N_11  and  C_19
REMARK    4  A    between atoms: C_12  and  C_13
REMARK    5  A    between atoms: C_19  and  C_20
REMARK                            x       y       z     vdW  Elec       q    Type
REMARK                         _______ _______ _______ _____ _____    ______ ____
ROOT
ATOM      1  O   UNL     1       6.098   6.389  14.751  0.00  0.00    +0.000 OA
ATOM      2  C   UNL     1       5.708   5.236  14.930  0.00  0.00    +0.000 C 
ATOM      3  N   UNL     1       5.340   4.761  16.201  0.00  0.00    +0.000 N 
ENDROOT
BRANCH   2   4
ATOM      4  C   UNL     1       5.674   4.370  13.718  0.00  0.00    +0.000 A 
ATOM      5  C   UNL     1       4.405   4.036  13.201  0.00  0.00    +0.000 A 
ATOM      6  C   UNL     1       4.283   3.190  12.097  0.00  0.00    +0.000 A 
ATOM      7  C   UNL     1       5.431   2.670  11.511  0.00  0.00    +0.000 A 
ATOM      8  F   UNL     1       5.318   1.865  10.446  0.00  0.00    +0.000 F 
ATOM      9  C   UNL     1       6.685   2.971  12.040  0.00  0.00    +0.000 A 
ATOM     10  F   UNL     1       7.784   2.443  11.482  0.00  0.00    +0.000 F 
ATOM     11  C   UNL     1       6.821   3.801  13.154  0.00  0.00    +0.000 A 
ENDBRANCH   2   4
BRANCH   3  12
ATOM     12  C   UNL     1       5.518   5.705  17.315  0.00  0.00    +0.000 C 
BRANCH  12  13
ATOM     13  C   UNL     1       4.282   6.450  17.779  0.00  0.00    +0.000 A 
ATOM     14  C   UNL     1       3.698   6.077  19.004  0.00  0.00    +0.000 A 
ATOM     15  C   UNL     1       2.605   6.775  19.525  0.00  0.00    +0.000 A 
ATOM     16  C   UNL     1       2.078   7.858  18.833  0.00  0.00    +0.000 A 
ATOM     17  C   UNL     1       2.653   8.254  17.629  0.00  0.00    +0.000 A 
ATOM     18  C   UNL     1       3.749   7.559  17.108  0.00  0.00    +0.000 A 
ENDBRANCH  12  13
ENDBRANCH   3  12
BRANCH   3  19
ATOM     19  C   UNL     1       5.322   3.332  16.559  0.00  0.00    +0.000 C 
BRANCH  19  20
ATOM     20  C   UNL     1       4.502   2.982  17.799  0.00  0.00    +0.000 A 
ATOM     21  N   UNL     1       3.209   3.058  17.736  0.00  0.00    +0.000 NA
ATOM     22  C   UNL     1       2.479   2.861  18.918  0.00  0.00    +0.000 A 
ATOM     23  C   UNL     1       1.105   3.113  18.904  0.00  0.00    +0.000 A 
ATOM     24  C   UNL     1       0.384   3.159  20.099  0.00  0.00    +0.000 A 
ATOM     25  C   UNL     1       1.027   2.921  21.316  0.00  0.00    +0.000 A 
ATOM     26  C   UNL     1       2.379   2.583  21.335  0.00  0.00    +0.000 A 
ATOM     27  C   UNL     1       3.093   2.551  20.134  0.00  0.00    +0.000 A 
ATOM     28  C   UNL     1       4.538   2.277  20.106  0.00  0.00    +0.000 A 
ATOM     29  O   UNL     1       5.134   1.824  21.077  0.00  0.00    +0.000 OA
ATOM     30  N   UNL     1       5.169   2.573  18.920  0.00  0.00    +0.000 N 
ATOM     31  H   UNL     1       6.174   2.477  18.932  0.00  0.00    +0.000 HD
ENDBRANCH  19  20
ENDBRANCH   3  19
TORSDOF 5
ENDMDL
MODEL 6
REMARK VINA RESULT:      -8.3      3.285      6.920
REMARK  Name = 
REMARK  5 active torsions:
REMARK  status: ('A' for Active; 'I' for Inactive)
REMARK    1  A    between atoms: C_2  and  C_3
REMARK    2  A    between atoms: N_11  and  C_12
REMARK    3  A    between atoms: N_11  and  C_19
REMARK    4  A    between atoms: C_12  and  C_13
REMARK    5  A    between atoms: C_19  and  C_20
REMARK                            x       y       z     vdW  Elec       q    Type
REMARK                         _______ _______ _______ _____ _____    ______ ____
ROOT
ATOM      1  O   UNL     1       5.716   3.649  18.698  0.00  0.00    +0.000 OA
ATOM      2  C   UNL     1       5.304   4.568  17.990  0.00  0.00    +0.000 C 
ATOM      3  N   UNL     1       4.360   5.501  18.453  0.00  0.00    +0.000 N 
ENDROOT
BRANCH   2   4
ATOM      4  C   UNL     1       5.853   4.612  16.606  0.00  0.00    +0.000 A 
ATOM      5  C   UNL     1       7.030   5.363  16.405  0.00  0.00    +0.000 A 
ATOM      6  C   UNL     1       7.584   5.497  15.129  0.00  0.00    +0.000 A 
ATOM      7  C   UNL     1       6.956   4.885  14.051  0.00  0.00    +0.000 A 
ATOM      8  F   UNL     1       7.489   5.004  12.827  0.00  0.00    +0.000 F 
ATOM      9  C   UNL     1       5.775   4.171  14.241  0.00  0.00    +0.000 A 
ATOM     10  F   UNL     1       5.164   3.606  13.189  0.00  0.00    +0.000 F 
ATOM     11  C   UNL     1       5.200   4.043  15.507  0.00  0.00    +0.000 A 
ENDBRANCH   2   4
BRANCH   3  12
ATOM     12  C   UNL     1       3.840   5.270  19.809  0.00  0.00    +0.000 C 
BRANCH  12  13
ATOM     13  C   UNL     1       2.750   4.227  19.950  0.00  0.00    +0.000 A 
ATOM     14  C   UNL     1       2.456   3.737  21.237  0.00  0.00    +0.000 A 
ATOM     15  C   UNL     1       1.411   2.833  21.444  0.00  0.00    +0.000 A 
ATOM     16  C   UNL     1       0.638   2.405  20.372  0.00  0.00    +0.000 A 
ATOM     17  C   UNL     1       0.901   2.892  19.094  0.00  0.00    +0.000 A 
ATOM     18  C   UNL     1       1.946   3.799  18.885  0.00  0.00    +0.000 A 
ENDBRANCH  12  13
ENDBRANCH   3  12
BRANCH   3  19
ATOM     19  C   UNL     1       3.505   6.300  17.559  0.00  0.00    +0.000 C 
BRANCH  19  20
ATOM     20  C   UNL     1       2.788   7.475  18.222  0.00  0.00    +0.000 A 
ATOM     21  N   UNL     1       2.307   7.320  19.417  0.00  0.00    +0.000 NA
ATOM     22  C   UNL     1       1.540   8.363  19.959  0.00  0.00    +0.000 A 
ATOM     23  C   UNL     1       0.871   8.142  21.164  0.00  0.00    +0.000 A 
ATOM     24  C   UNL     1      -0.083   9.055  21.619  0.00  0.00    +0.000 A 
ATOM     25  C   UNL     1      -0.352  10.213  20.886  0.00  0.00    +0.000 A 
ATOM     26  C   UNL     1       0.372  10.486  19.726  0.00  0.00    +0.000 A 
ATOM     27  C   UNL     1       1.316   9.560  19.275  0.00  0.00    +0.000 A 
ATOM     28  C   UNL     1       2.051   9.762  18.016  0.00  0.00    +0.000 A 
ATOM     29  O   UNL     1       2.063  10.843  17.436  0.00  0.00    +0.000 OA
ATOM     30  N   UNL     1       2.711   8.655  17.537  0.00  0.00    +0.000 N 
ATOM     31  H   UNL     1       3.132   8.767  16.627  0.00  0.00    +0.000 HD
ENDBRANCH  19  20
ENDBRANCH   3  19
TORSDOF 5
ENDMDL
MODEL 7
REMARK VINA RESULT:      -8.0      3.208      5.948
REMARK  Name = 
REMARK  5 active torsions:
REMARK  status: ('A' for Active; 'I' for Inactive)
REMARK    1  A    between atoms: C_2  and  C_3
REMARK    2  A    between atoms: N_11  and  C_12
REMARK    3  A    between atoms: N_11  and  C_19
REMARK    4  A    between atoms: C_12  and  C_13
REMARK    5  A    between atoms: C_19  and  C_20
REMARK                            x       y       z     vdW  Elec       q    Type
REMARK                         _______ _______ _______ _____ _____    ______ ____
ROOT
ATOM      1  O   UNL     1       6.936   4.129  17.471  0.00  0.00    +0.000 OA
ATOM      2  C   UNL     1       6.315   5.189  17.530  0.00  0.00    +0.000 C 
ATOM      3  N   UNL     1       4.936   5.262  17.264  0.00  0.00    +0.000 N 
ENDROOT
BRANCH   2   4
ATOM      4  C   UNL     1       7.121   6.392  17.880  0.00  0.00    +0.000 A 
ATOM      5  C   UNL     1       7.967   6.295  19.004  0.00  0.00    +0.000 A 
ATOM      6  C   UNL     1       8.721   7.391  19.430  0.00  0.00    +0.000 A 
ATOM      7  C   UNL     1       8.624   8.590  18.734  0.00  0.00    +0.000 A 
ATOM      8  F   UNL     1       9.352   9.642  19.134  0.00  0.00    +0.000 F 
ATOM      9  C   UNL     1       7.763   8.699  17.643  0.00  0.00    +0.000 A 
ATOM     10  F   UNL     1       7.659   9.869  16.996  0.00  0.00    +0.000 F 
ATOM     11  C   UNL     1       6.991   7.617  17.217  0.00  0.00    +0.000 A 
ENDBRANCH   2   4
BRANCH   3  12
ATOM     12  C   UNL     1       4.297   4.007  16.839  0.00  0.00    +0.000 C 
BRANCH  12  13
ATOM     13  C   UNL     1       3.333   3.369  17.819  0.00  0.00    +0.000 A 
ATOM     14  C   UNL     1       3.836   2.919  19.054  0.00  0.00    +0.000 A 
ATOM     15  C   UNL     1       2.987   2.394  20.031  0.00  0.00    +0.000 A 
ATOM     16  C   UNL     1       1.620   2.311  19.794  0.00  0.00    +0.000 A 
ATOM     17  C   UNL     1       1.101   2.767  18.585  0.00  0.00    +0.000 A 
ATOM     18  C   UNL     1       1.950   3.297  17.607  0.00  0.00    +0.000 A 
ENDBRANCH  12  13
ENDBRANCH   3  12
BRANCH   3  19
ATOM     19  C   UNL     1       4.252   6.505  16.866  0.00  0.00    +0.000 C 
BRANCH  19  20
ATOM     20  C   UNL     1       3.259   7.055  17.887  0.00  0.00    +0.000 A 
ATOM     21  N   UNL     1       2.721   8.217  17.674  0.00  0.00    +0.000 NA
ATOM     22  C   UNL     1       1.914   8.765  18.682  0.00  0.00    +0.000 A 
ATOM     23  C   UNL     1       1.475  10.083  18.543  0.00  0.00    +0.000 A 
ATOM     24  C   UNL     1       0.874  10.744  19.617  0.00  0.00    +0.000 A 
ATOM     25  C   UNL     1       0.678  10.079  20.829  0.00  0.00    +0.000 A 
ATOM     26  C   UNL     1       1.033   8.736  20.952  0.00  0.00    +0.000 A 
ATOM     27  C   UNL     1       1.644   8.089  19.874  0.00  0.00    +0.000 A 
ATOM     28  C   UNL     1       2.109   6.697  19.977  0.00  0.00    +0.000 A 
ATOM     29  O   UNL     1       1.770   5.964  20.901  0.00  0.00    +0.000 OA
ATOM     30  N   UNL     1       2.953   6.284  18.973  0.00  0.00    +0.000 N 
ATOM     31  H   UNL     1       3.349   5.363  19.096  0.00  0.00    +0.000 HD
ENDBRANCH  19  20
ENDBRANCH   3  19
TORSDOF 5
ENDMDL
MODEL 8
REMARK VINA RESULT:      -8.0      5.655      9.180
REMARK  Name = 
REMARK  5 active torsions:
REMARK  status: ('A' for Active; 'I' for Inactive)
REMARK    1  A    between atoms: C_2  and  C_3
REMARK    2  A    between atoms: N_11  and  C_12
REMARK    3  A    between atoms: N_11  and  C_19
REMARK    4  A    between atoms: C_12  and  C_13
REMARK    5  A    between atoms: C_19  and  C_20
REMARK                            x       y       z     vdW  Elec       q    Type
REMARK                         _______ _______ _______ _____ _____    ______ ____
ROOT
ATOM      1  O   UNL     1       2.024   9.015  17.074  0.00  0.00    +0.000 OA
ATOM      2  C   UNL     1       1.789   8.678  18.235  0.00  0.00    +0.000 C 
ATOM      3  N   UNL     1       0.913   9.405  19.060  0.00  0.00    +0.000 N 
ENDROOT
BRANCH   2   4
ATOM      4  C   UNL     1       2.511   7.467  18.714  0.00  0.00    +0.000 A 
ATOM      5  C   UNL     1       3.604   7.021  17.942  0.00  0.00    +0.000 A 
ATOM      6  C   UNL     1       4.305   5.866  18.294  0.00  0.00    +0.000 A 
ATOM      7  C   UNL     1       3.908   5.149  19.417  0.00  0.00    +0.000 A 
ATOM      8  F   UNL     1       4.584   4.043  19.763  0.00  0.00    +0.000 F 
ATOM      9  C   UNL     1       2.808   5.567  20.162  0.00  0.00    +0.000 A 
ATOM     10  F   UNL     1       2.419   4.852  21.229  0.00  0.00    +0.000 F 
ATOM     11  C   UNL     1       2.087   6.710  19.813  0.00  0.00    +0.000 A 
ENDBRANCH   2   4
BRANCH   3  12
ATOM     12  C   UNL     1       0.350  10.632  18.475  0.00  0.00    +0.000 C 
BRANCH  12  13
ATOM     13  C   UNL     1      -1.136  10.625  18.180  0.00  0.00    +0.000 A 
ATOM     14  C   UNL     1      -1.954  11.557  18.846  0.00  0.00    +0.000 A 
ATOM     15  C   UNL     1      -3.318  11.653  18.561  0.00  0.00    +0.000 A 
ATOM     16  C   UNL     1      -3.890  10.823  17.604  0.00  0.00    +0.000 A 
ATOM     17  C   UNL     1      -3.094   9.907  16.922  0.00  0.00    +0.000 A 
ATOM     18  C   UNL     1      -1.727   9.811  17.204  0.00  0.00    +0.000 A 
ENDBRANCH  12  13
ENDBRANCH   3  12
BRANCH   3  19
ATOM     19  C   UNL     1       0.949   9.346  20.531  0.00  0.00    +0.000 C 
BRANCH  19  20
ATOM     20  C   UNL     1       0.448  10.599  21.245  0.00  0.00    +0.000 A 
ATOM     21  N   UNL     1      -0.596  10.509  22.011  0.00  0.00    +0.000 NA
ATOM     22  C   UNL     1      -1.120  11.691  22.554  0.00  0.00    +0.000 A 
ATOM     23  C   UNL     1      -2.339  11.632  23.231  0.00  0.00    +0.000 A 
ATOM     24  C   UNL     1      -3.010  12.806  23.580  0.00  0.00    +0.000 A 
ATOM     25  C   UNL     1      -2.450  14.050  23.283  0.00  0.00    +0.000 A 
ATOM     26  C   UNL     1      -1.192  14.121  22.685  0.00  0.00    +0.000 A 
ATOM     27  C   UNL     1      -0.535  12.940  22.330  0.00  0.00    +0.000 A 
ATOM     28  C   UNL     1       0.757  12.961  21.627  0.00  0.00    +0.000 A 
ATOM     29  O   UNL     1       1.435  13.979  21.540  0.00  0.00    +0.000 OA
ATOM     30  N   UNL     1       1.142  11.763  21.071  0.00  0.00    +0.000 N 
ATOM     31  H   UNL     1       1.979  11.801  20.507  0.00  0.00    +0.000 HD
ENDBRANCH  19  20
ENDBRANCH   3  19
TORSDOF 5
ENDMDL
MODEL 9
REMARK VINA RESULT:      -7.9      3.562      7.201
REMARK  Name = 
REMARK  5 active torsions:
REMARK  status: ('A' for Active; 'I' for Inactive)
REMARK    1  A    between atoms: C_2  and  C_3
REMARK    2  A    between atoms: N_11  and  C_12
REMARK    3  A    between atoms: N_11  and  C_19
REMARK    4  A    between atoms: C_12  and  C_13
REMARK    5  A    between atoms: C_19  and  C_20
REMARK                            x       y       z     vdW  Elec       q    Type
REMARK                         _______ _______ _______ _____ _____    ______ ____
ROOT
ATOM      1  O   UNL     1       3.095   3.561  17.363  0.00  0.00    +0.000 OA
ATOM      2  C   UNL     1       3.473   4.732  17.346  0.00  0.00    +0.000 C 
ATOM      3  N   UNL     1       2.746   5.760  17.972  0.00  0.00    +0.000 N 
ENDROOT
BRANCH   2   4
ATOM      4  C   UNL     1       4.736   4.991  16.600  0.00  0.00    +0.000 A 
ATOM      5  C   UNL     1       4.916   4.305  15.381  0.00  0.00    +0.000 A 
ATOM      6  C   UNL     1       6.093   4.454  14.644  0.00  0.00    +0.000 A 
ATOM      7  C   UNL     1       7.096   5.285  15.129  0.00  0.00    +0.000 A 
ATOM      8  F   UNL     1       8.223   5.437  14.420  0.00  0.00    +0.000 F 
ATOM      9  C   UNL     1       6.935   5.938  16.349  0.00  0.00    +0.000 A 
ATOM     10  F   UNL     1       7.920   6.718  16.819  0.00  0.00    +0.000 F 
ATOM     11  C   UNL     1       5.771   5.785  17.105  0.00  0.00    +0.000 A 
ENDBRANCH   2   4
BRANCH   3  12
ATOM     12  C   UNL     1       1.470   5.362  18.585  0.00  0.00    +0.000 C 
BRANCH  12  13
ATOM     13  C   UNL     1       1.550   4.418  19.768  0.00  0.00    +0.000 A 
ATOM     14  C   UNL     1       0.904   3.171  19.673  0.00  0.00    +0.000 A 
ATOM     15  C   UNL     1       1.004   2.226  20.696  0.00  0.00    +0.000 A 
ATOM     16  C   UNL     1       1.755   2.506  21.831  0.00  0.00    +0.000 A 
ATOM     17  C   UNL     1       2.417   3.726  21.937  0.00  0.00    +0.000 A 
ATOM     18  C   UNL     1       2.319   4.673  20.912  0.00  0.00    +0.000 A 
ENDBRANCH  12  13
ENDBRANCH   3  12
BRANCH   3  19
ATOM     19  C   UNL     1       2.874   7.181  17.606  0.00  0.00    +0.000 C 
BRANCH  19  20
ATOM     20  C   UNL     1       2.079   8.151  18.477  0.00  0.00    +0.000 A 
ATOM     21  N   UNL     1       2.189   8.069  19.767  0.00  0.00    +0.000 NA
ATOM     22  C   UNL     1       1.354   8.877  20.553  0.00  0.00    +0.000 A 
ATOM     23  C   UNL     1       1.335   8.673  21.934  0.00  0.00    +0.000 A 
ATOM     24  C   UNL     1       0.358   9.284  22.724  0.00  0.00    +0.000 A 
ATOM     25  C   UNL     1      -0.588  10.130  22.142  0.00  0.00    +0.000 A 
ATOM     26  C   UNL     1      -0.525  10.409  20.777  0.00  0.00    +0.000 A 
ATOM     27  C   UNL     1       0.450   9.783  19.995  0.00  0.00    +0.000 A 
ATOM     28  C   UNL     1       0.511   9.983  18.538  0.00  0.00    +0.000 A 
ATOM     29  O   UNL     1      -0.111  10.880  17.977  0.00  0.00    +0.000 OA
ATOM     30  N   UNL     1       1.303   9.090  17.856  0.00  0.00    +0.000 N 
ATOM     31  H   UNL     1       1.268   9.166  16.850  0.00  0.00    +0.000 HD
ENDBRANCH  19  20
ENDBRANCH   3  19
TORSDOF 5
ENDMDL
