MODEL 1
REMARK VINA RESULT:      -9.1      0.000      0.000
REMARK  Name = 
REMARK  6 active torsions:
REMARK  status: ('A' for Active; 'I' for Inactive)
REMARK    1  A    between atoms: C_1  and  C_2
REMARK    2  A    between atoms: C_13  and  C_14
REMARK    3  A    between atoms: C_14  and  C_15
REMARK    4  A    between atoms: N_17  and  C_18
REMARK    5  A    between atoms: C_22  and  O_23
REMARK    6  A    between atoms: O_23  and  C_24
REMARK                            x       y       z     vdW  Elec       q    Type
REMARK                         _______ _______ _______ _____ _____    ______ ____
ROOT
ATOM      1  C   UNL     1       1.131   8.950  20.152  0.00  0.00    +0.000 C 
ATOM      2  O   UNL     1       0.672   8.682  21.258  0.00  0.00    +0.000 OA
ATOM      3  N   UNL     1       1.958   8.117  19.410  0.00  0.00    +0.000 N 
ATOM      4  H   UNL     1       2.576   8.560  18.739  0.00  0.00    +0.000 HD
ENDROOT
BRANCH   3   5
ATOM      5  C   UNL     1       2.202   6.765  19.727  0.00  0.00    +0.000 A 
ATOM      6  C   UNL     1       1.323   6.028  20.530  0.00  0.00    +0.000 A 
ATOM      7  C   UNL     1       1.588   4.696  20.838  0.00  0.00    +0.000 A 
ATOM      8  C   UNL     1       2.739   4.090  20.352  0.00  0.00    +0.000 A 
ATOM      9  C   UNL     1       3.634   4.818  19.563  0.00  0.00    +0.000 A 
ATOM     10  C   UNL     1       3.341   6.141  19.209  0.00  0.00    +0.000 A 
BRANCH   9  11
ATOM     11  O   UNL     1       4.792   4.278  19.048  0.00  0.00    +0.000 OA
BRANCH  11  12
ATOM     12  C   UNL     1       5.816   5.152  18.697  0.00  0.00    +0.000 A 
ATOM     13  N   UNL     1       6.809   5.259  19.595  0.00  0.00    +0.000 NA
ATOM     14  C   UNL     1       7.802   6.110  19.276  0.00  0.00    +0.000 A 
ATOM     15  C   UNL     1       7.837   6.841  18.111  0.00  0.00    +0.000 A 
ATOM     16  C   UNL     1       6.783   6.639  17.254  0.00  0.00    +0.000 A 
ATOM     17  N   UNL     1       5.770   5.794  17.512  0.00  0.00    +0.000 NA
ENDBRANCH  11  12
ENDBRANCH   9  11
ENDBRANCH   3   5
BRANCH   1  18
ATOM     18  C   UNL     1       0.889  10.284  19.479  0.00  0.00    +0.000 C 
BRANCH  18  31
ATOM     19  C   UNL     1       0.274  13.980  21.987  0.00  0.00    +0.000 C 
ATOM     20  C   UNL     1       0.516  12.762  21.119  0.00  0.00    +0.000 C 
ATOM     21  O   UNL     1       1.670  12.337  21.055  0.00  0.00    +0.000 OA
ATOM     22  N   UNL     1      -0.583  12.220  20.431  0.00  0.00    +0.000 N 
ATOM     23  C   UNL     1      -1.856  12.784  20.539  0.00  0.00    +0.000 C 
ATOM     24  C   UNL     1      -2.893  12.432  19.772  0.00  0.00    +0.000 C 
ATOM     25  C   UNL     1      -2.719  11.498  18.667  0.00  0.00    +0.000 A 
ATOM     26  C   UNL     1      -3.743  11.347  17.720  0.00  0.00    +0.000 A 
ATOM     27  C   UNL     1      -3.574  10.490  16.637  0.00  0.00    +0.000 A 
ATOM     28  C   UNL     1      -2.373   9.811  16.483  0.00  0.00    +0.000 A 
ATOM     29  C   UNL     1      -1.346   9.972  17.421  0.00  0.00    +0.000 A 
ATOM     30  C   UNL     1      -1.509  10.791  18.551  0.00  0.00    +0.000 A 
ATOM     31  C   UNL     1      -0.524  10.856  19.744  0.00  0.00    +0.000 C 
ENDBRANCH  18  31
ENDBRANCH   1  18
TORSDOF 5
ENDMDL
MODEL 2
REMARK VINA RESULT:      -9.0      1.109      1.469
REMARK  Name = 
REMARK  6 active torsions:
REMARK  status: ('A' for Active; 'I' for Inactive)
REMARK    1  A    between atoms: C_1  and  C_2
REMARK    2  A    between atoms: C_13  and  C_14
REMARK    3  A    between atoms: C_14  and  C_15
REMARK    4  A    between atoms: N_17  and  C_18
REMARK    5  A    between atoms: C_22  and  O_23
REMARK    6  A    between atoms: O_23  and  C_24
REMARK                            x       y       z     vdW  Elec       q    Type
REMARK                         _______ _______ _______ _____ _____    ______ ____
ROOT
ATOM      1  C   UNL     1       1.062   9.039  20.107  0.00  0.00    +0.000 C 
ATOM      2  O   UNL     1       0.595   8.656  21.175  0.00  0.00    +0.000 OA
ATOM      3  N   UNL     1       1.878   8.283  19.277  0.00  0.00    +0.000 N 
ATOM      4  H   UNL     1       2.505   8.788  18.661  0.00  0.00    +0.000 HD
ENDROOT
BRANCH   3   5
ATOM      5  C   UNL     1       2.101   6.899  19.440  0.00  0.00    +0.000 A 
ATOM      6  C   UNL     1       1.828   6.249  20.650  0.00  0.00    +0.000 A 
ATOM      7  C   UNL     1       2.064   4.884  20.793  0.00  0.00    +0.000 A 
ATOM      8  C   UNL     1       2.582   4.157  19.729  0.00  0.00    +0.000 A 
ATOM      9  C   UNL     1       2.875   4.796  18.520  0.00  0.00    +0.000 A 
ATOM     10  C   UNL     1       2.588   6.157  18.360  0.00  0.00    +0.000 A 
BRANCH   9  11
ATOM     11  O   UNL     1       3.388   4.135  17.426  0.00  0.00    +0.000 OA
BRANCH  11  12
ATOM     12  C   UNL     1       4.744   4.290  17.152  0.00  0.00    +0.000 A 
ATOM     13  N   UNL     1       5.077   4.202  15.853  0.00  0.00    +0.000 NA
ATOM     14  C   UNL     1       6.386   4.338  15.572  0.00  0.00    +0.000 A 
ATOM     15  C   UNL     1       7.354   4.557  16.524  0.00  0.00    +0.000 A 
ATOM     16  C   UNL     1       6.900   4.651  17.817  0.00  0.00    +0.000 A 
ATOM     17  N   UNL     1       5.605   4.537  18.157  0.00  0.00    +0.000 NA
ENDBRANCH  11  12
ENDBRANCH   9  11
ENDBRANCH   3   5
BRANCH   1  18
ATOM     18  C   UNL     1       0.841  10.444  19.588  0.00  0.00    +0.000 C 
BRANCH  18  31
ATOM     19  C   UNL     1       0.075  14.096  22.116  0.00  0.00    +0.000 C 
ATOM     20  C   UNL     1       0.367  12.895  21.243  0.00  0.00    +0.000 C 
ATOM     21  O   UNL     1       1.535  12.505  21.194  0.00  0.00    +0.000 OA
ATOM     22  N   UNL     1      -0.703  12.326  20.532  0.00  0.00    +0.000 N 
ATOM     23  C   UNL     1      -1.994  12.850  20.624  0.00  0.00    +0.000 C 
ATOM     24  C   UNL     1      -3.008  12.474  19.838  0.00  0.00    +0.000 C 
ATOM     25  C   UNL     1      -2.788  11.556  18.728  0.00  0.00    +0.000 A 
ATOM     26  C   UNL     1      -3.792  11.382  17.763  0.00  0.00    +0.000 A 
ATOM     27  C   UNL     1      -3.580  10.540  16.675  0.00  0.00    +0.000 A 
ATOM     28  C   UNL     1      -2.356   9.899  16.535  0.00  0.00    +0.000 A 
ATOM     29  C   UNL     1      -1.350  10.083  17.491  0.00  0.00    +0.000 A 
ATOM     30  C   UNL     1      -1.555  10.887  18.625  0.00  0.00    +0.000 A 
ATOM     31  C   UNL     1      -0.592  10.970  19.835  0.00  0.00    +0.000 C 
ENDBRANCH  18  31
ENDBRANCH   1  18
TORSDOF 5
ENDMDL
MODEL 3
REMARK VINA RESULT:      -8.9      2.184      9.117
REMARK  Name = 
REMARK  6 active torsions:
REMARK  status: ('A' for Active; 'I' for Inactive)
REMARK    1  A    between atoms: C_1  and  C_2
REMARK    2  A    between atoms: C_13  and  C_14
REMARK    3  A    between atoms: C_14  and  C_15
REMARK    4  A    between atoms: N_17  and  C_18
REMARK    5  A    between atoms: C_22  and  O_23
REMARK    6  A    between atoms: O_23  and  C_24
REMARK                            x       y       z     vdW  Elec       q    Type
REMARK                         _______ _______ _______ _____ _____    ______ ____
ROOT
ATOM      1  C   UNL     1       2.398   8.308  18.280  0.00  0.00    +0.000 C 
ATOM      2  O   UNL     1       2.438   8.760  17.141  0.00  0.00    +0.000 OA
ATOM      3  N   UNL     1       1.588   8.787  19.301  0.00  0.00    +0.000 N 
ATOM      4  H   UNL     1       1.900   8.627  20.252  0.00  0.00    +0.000 HD
ENDROOT
BRANCH   3   5
ATOM      5  C   UNL     1       0.544   9.716  19.106  0.00  0.00    +0.000 A 
ATOM      6  C   UNL     1      -0.346   9.606  18.031  0.00  0.00    +0.000 A 
ATOM      7  C   UNL     1      -1.364  10.538  17.852  0.00  0.00    +0.000 A 
ATOM      8  C   UNL     1      -1.499  11.595  18.744  0.00  0.00    +0.000 A 
ATOM      9  C   UNL     1      -0.607  11.727  19.813  0.00  0.00    +0.000 A 
ATOM     10  C   UNL     1       0.383  10.759  20.022  0.00  0.00    +0.000 A 
BRANCH   9  11
ATOM     11  O   UNL     1      -0.685  12.748  20.733  0.00  0.00    +0.000 OA
BRANCH  11  12
ATOM     12  C   UNL     1      -1.771  12.757  21.603  0.00  0.00    +0.000 A 
ATOM     13  N   UNL     1      -2.762  13.600  21.271  0.00  0.00    +0.000 NA
ATOM     14  C   UNL     1      -3.815  13.629  22.109  0.00  0.00    +0.000 A 
ATOM     15  C   UNL     1      -3.911  12.857  23.244  0.00  0.00    +0.000 A 
ATOM     16  C   UNL     1      -2.851  12.015  23.476  0.00  0.00    +0.000 A 
ATOM     17  N   UNL     1      -1.779  11.933  22.670  0.00  0.00    +0.000 NA
ENDBRANCH  11  12
ENDBRANCH   9  11
ENDBRANCH   3   5
BRANCH   1  18
ATOM     18  C   UNL     1       3.299   7.177  18.732  0.00  0.00    +0.000 C 
BRANCH  18  31
ATOM     19  C   UNL     1       6.106   5.493  15.633  0.00  0.00    +0.000 C 
ATOM     20  C   UNL     1       5.202   6.066  16.704  0.00  0.00    +0.000 C 
ATOM     21  O   UNL     1       5.481   7.185  17.136  0.00  0.00    +0.000 OA
ATOM     22  N   UNL     1       4.128   5.275  17.146  0.00  0.00    +0.000 N 
ATOM     23  C   UNL     1       3.900   4.002  16.620  0.00  0.00    +0.000 C 
ATOM     24  C   UNL     1       3.016   3.135  17.124  0.00  0.00    +0.000 C 
ATOM     25  C   UNL     1       2.305   3.432  18.361  0.00  0.00    +0.000 A 
ATOM     26  C   UNL     1       1.591   2.415  19.012  0.00  0.00    +0.000 A 
ATOM     27  C   UNL     1       0.942   2.673  20.215  0.00  0.00    +0.000 A 
ATOM     28  C   UNL     1       1.033   3.937  20.783  0.00  0.00    +0.000 A 
ATOM     29  C   UNL     1       1.756   4.949  20.140  0.00  0.00    +0.000 A 
ATOM     30  C   UNL     1       2.379   4.729  18.899  0.00  0.00    +0.000 A 
ATOM     31  C   UNL     1       3.005   5.837  18.017  0.00  0.00    +0.000 C 
ENDBRANCH  18  31
ENDBRANCH   1  18
TORSDOF 5
ENDMDL
MODEL 4
REMARK VINA RESULT:      -8.9      2.303      8.781
REMARK  Name = 
REMARK  6 active torsions:
REMARK  status: ('A' for Active; 'I' for Inactive)
REMARK    1  A    between atoms: C_1  and  C_2
REMARK    2  A    between atoms: C_13  and  C_14
REMARK    3  A    between atoms: C_14  and  C_15
REMARK    4  A    between atoms: N_17  and  C_18
REMARK    5  A    between atoms: C_22  and  O_23
REMARK    6  A    between atoms: O_23  and  C_24
REMARK                            x       y       z     vdW  Elec       q    Type
REMARK                         _______ _______ _______ _____ _____    ______ ____
ROOT
ATOM      1  C   UNL     1       2.540   7.598  18.694  0.00  0.00    +0.000 C 
ATOM      2  O   UNL     1       1.945   8.093  17.742  0.00  0.00    +0.000 OA
ATOM      3  N   UNL     1       2.339   7.941  20.024  0.00  0.00    +0.000 N 
ATOM      4  H   UNL     1       3.111   7.785  20.663  0.00  0.00    +0.000 HD
ENDROOT
BRANCH   3   5
ATOM      5  C   UNL     1       1.272   8.745  20.478  0.00  0.00    +0.000 A 
ATOM      6  C   UNL     1       0.690   8.552  21.736  0.00  0.00    +0.000 A 
ATOM      7  C   UNL     1      -0.369   9.351  22.161  0.00  0.00    +0.000 A 
ATOM      8  C   UNL     1      -0.861  10.346  21.327  0.00  0.00    +0.000 A 
ATOM      9  C   UNL     1      -0.301  10.539  20.060  0.00  0.00    +0.000 A 
ATOM     10  C   UNL     1       0.798   9.771  19.655  0.00  0.00    +0.000 A 
BRANCH   9  11
ATOM     11  O   UNL     1      -0.740  11.508  19.184  0.00  0.00    +0.000 OA
BRANCH  11  12
ATOM     12  C   UNL     1      -1.833  11.206  18.378  0.00  0.00    +0.000 A 
ATOM     13  N   UNL     1      -2.976  11.831  18.707  0.00  0.00    +0.000 NA
ATOM     14  C   UNL     1      -4.046  11.540  17.944  0.00  0.00    +0.000 A 
ATOM     15  C   UNL     1      -4.012  10.668  16.880  0.00  0.00    +0.000 A 
ATOM     16  C   UNL     1      -2.788  10.102  16.618  0.00  0.00    +0.000 A 
ATOM     17  N   UNL     1      -1.683  10.363  17.337  0.00  0.00    +0.000 NA
ENDBRANCH  11  12
ENDBRANCH   9  11
ENDBRANCH   3   5
BRANCH   1  18
ATOM     18  C   UNL     1       3.635   6.568  18.515  0.00  0.00    +0.000 C 
BRANCH  18  31
ATOM     19  C   UNL     1       5.491   4.278  15.105  0.00  0.00    +0.000 C 
ATOM     20  C   UNL     1       4.912   5.055  16.269  0.00  0.00    +0.000 C 
ATOM     21  O   UNL     1       5.347   6.192  16.457  0.00  0.00    +0.000 OA
ATOM     22  N   UNL     1       3.944   4.419  17.065  0.00  0.00    +0.000 N 
ATOM     23  C   UNL     1       3.529   3.113  16.796  0.00  0.00    +0.000 C 
ATOM     24  C   UNL     1       2.757   2.394  17.616  0.00  0.00    +0.000 C 
ATOM     25  C   UNL     1       2.393   2.903  18.933  0.00  0.00    +0.000 A 
ATOM     26  C   UNL     1       1.815   2.038  19.874  0.00  0.00    +0.000 A 
ATOM     27  C   UNL     1       1.501   2.499  21.149  0.00  0.00    +0.000 A 
ATOM     28  C   UNL     1       1.794   3.813  21.492  0.00  0.00    +0.000 A 
ATOM     29  C   UNL     1       2.383   4.672  20.557  0.00  0.00    +0.000 A 
ATOM     30  C   UNL     1       2.664   4.246  19.247  0.00  0.00    +0.000 A 
ATOM     31  C   UNL     1       3.104   5.178  18.091  0.00  0.00    +0.000 C 
ENDBRANCH  18  31
ENDBRANCH   1  18
TORSDOF 5
ENDMDL
MODEL 5
REMARK VINA RESULT:      -8.9      2.446      9.114
REMARK  Name = 
REMARK  6 active torsions:
REMARK  status: ('A' for Active; 'I' for Inactive)
REMARK    1  A    between atoms: C_1  and  C_2
REMARK    2  A    between atoms: C_13  and  C_14
REMARK    3  A    between atoms: C_14  and  C_15
REMARK    4  A    between atoms: N_17  and  C_18
REMARK    5  A    between atoms: C_22  and  O_23
REMARK    6  A    between atoms: O_23  and  C_24
REMARK                            x       y       z     vdW  Elec       q    Type
REMARK                         _______ _______ _______ _____ _____    ______ ____
ROOT
ATOM      1  C   UNL     1       2.399   7.928  18.543  0.00  0.00    +0.000 C 
ATOM      2  O   UNL     1       1.960   8.303  17.460  0.00  0.00    +0.000 OA
ATOM      3  N   UNL     1       2.031   8.449  19.776  0.00  0.00    +0.000 N 
ATOM      4  H   UNL     1       2.701   8.364  20.531  0.00  0.00    +0.000 HD
ENDROOT
BRANCH   3   5
ATOM      5  C   UNL     1       0.942   9.325  19.966  0.00  0.00    +0.000 A 
ATOM      6  C   UNL     1       0.354  10.009  18.896  0.00  0.00    +0.000 A 
ATOM      7  C   UNL     1      -0.714  10.877  19.107  0.00  0.00    +0.000 A 
ATOM      8  C   UNL     1      -1.202  11.074  20.393  0.00  0.00    +0.000 A 
ATOM      9  C   UNL     1      -0.614  10.409  21.474  0.00  0.00    +0.000 A 
ATOM     10  C   UNL     1       0.426   9.497  21.254  0.00  0.00    +0.000 A 
BRANCH   9  11
ATOM     11  O   UNL     1      -1.048  10.558  22.773  0.00  0.00    +0.000 OA
BRANCH  11  12
ATOM     12  C   UNL     1      -1.612  11.777  23.134  0.00  0.00    +0.000 A 
ATOM     13  N   UNL     1      -0.754  12.811  23.182  0.00  0.00    +0.000 NA
ATOM     14  C   UNL     1      -1.282  13.996  23.541  0.00  0.00    +0.000 A 
ATOM     15  C   UNL     1      -2.611  14.181  23.843  0.00  0.00    +0.000 A 
ATOM     16  C   UNL     1      -3.402  13.063  23.740  0.00  0.00    +0.000 A 
ATOM     17  N   UNL     1      -2.935  11.857  23.375  0.00  0.00    +0.000 NA
ENDBRANCH  11  12
ENDBRANCH   9  11
ENDBRANCH   3   5
BRANCH   1  18
ATOM     18  C   UNL     1       3.470   6.863  18.654  0.00  0.00    +0.000 C 
BRANCH  18  31
ATOM     19  C   UNL     1       5.557   4.854  15.201  0.00  0.00    +0.000 C 
ATOM     20  C   UNL     1       4.900   5.538  16.381  0.00  0.00    +0.000 C 
ATOM     21  O   UNL     1       5.278   6.678  16.653  0.00  0.00    +0.000 OA
ATOM     22  N   UNL     1       3.928   4.818  17.097  0.00  0.00    +0.000 N 
ATOM     23  C   UNL     1       3.579   3.515  16.735  0.00  0.00    +0.000 C 
ATOM     24  C   UNL     1       2.805   2.719  17.480  0.00  0.00    +0.000 C 
ATOM     25  C   UNL     1       2.368   3.134  18.806  0.00  0.00    +0.000 A 
ATOM     26  C   UNL     1       1.788   2.193  19.671  0.00  0.00    +0.000 A 
ATOM     27  C   UNL     1       1.403   2.565  20.955  0.00  0.00    +0.000 A 
ATOM     28  C   UNL     1       1.627   3.866  21.386  0.00  0.00    +0.000 A 
ATOM     29  C   UNL     1       2.217   4.801  20.527  0.00  0.00    +0.000 A 
ATOM     30  C   UNL     1       2.569   4.466  19.209  0.00  0.00    +0.000 A 
ATOM     31  C   UNL     1       3.016   5.481  18.128  0.00  0.00    +0.000 C 
ENDBRANCH  18  31
ENDBRANCH   1  18
TORSDOF 5
ENDMDL
MODEL 6
REMARK VINA RESULT:      -8.8      2.530      9.300
REMARK  Name = 
REMARK  6 active torsions:
REMARK  status: ('A' for Active; 'I' for Inactive)
REMARK    1  A    between atoms: C_1  and  C_2
REMARK    2  A    between atoms: C_13  and  C_14
REMARK    3  A    between atoms: C_14  and  C_15
REMARK    4  A    between atoms: N_17  and  C_18
REMARK    5  A    between atoms: C_22  and  O_23
REMARK    6  A    between atoms: O_23  and  C_24
REMARK                            x       y       z     vdW  Elec       q    Type
REMARK                         _______ _______ _______ _____ _____    ______ ____
ROOT
ATOM      1  C   UNL     1       2.344   8.396  18.202  0.00  0.00    +0.000 C 
ATOM      2  O   UNL     1       2.443   8.705  17.019  0.00  0.00    +0.000 OA
ATOM      3  N   UNL     1       1.593   9.085  19.145  0.00  0.00    +0.000 N 
ATOM      4  H   UNL     1       1.879   9.000  20.114  0.00  0.00    +0.000 HD
ENDROOT
BRANCH   3   5
ATOM      5  C   UNL     1       0.669  10.102  18.826  0.00  0.00    +0.000 A 
ATOM      6  C   UNL     1       1.008  11.457  18.915  0.00  0.00    +0.000 A 
ATOM      7  C   UNL     1       0.078  12.446  18.605  0.00  0.00    +0.000 A 
ATOM      8  C   UNL     1      -1.204  12.088  18.207  0.00  0.00    +0.000 A 
ATOM      9  C   UNL     1      -1.562  10.739  18.129  0.00  0.00    +0.000 A 
ATOM     10  C   UNL     1      -0.611   9.745  18.390  0.00  0.00    +0.000 A 
BRANCH   9  11
ATOM     11  O   UNL     1      -2.814  10.316  17.740  0.00  0.00    +0.000 OA
BRANCH  11  12
ATOM     12  C   UNL     1      -3.883  11.184  17.939  0.00  0.00    +0.000 A 
ATOM     13  N   UNL     1      -4.597  11.471  16.838  0.00  0.00    +0.000 NA
ATOM     14  C   UNL     1      -5.628  12.319  17.011  0.00  0.00    +0.000 A 
ATOM     15  C   UNL     1      -5.966  12.876  18.223  0.00  0.00    +0.000 A 
ATOM     16  C   UNL     1      -5.182  12.497  19.286  0.00  0.00    +0.000 A 
ATOM     17  N   UNL     1      -4.149  11.645  19.177  0.00  0.00    +0.000 NA
ENDBRANCH  11  12
ENDBRANCH   9  11
ENDBRANCH   3   5
BRANCH   1  18
ATOM     18  C   UNL     1       3.100   7.227  18.797  0.00  0.00    +0.000 C 
BRANCH  18  31
ATOM     19  C   UNL     1       6.039   5.694  15.742  0.00  0.00    +0.000 C 
ATOM     20  C   UNL     1       5.089   6.217  16.800  0.00  0.00    +0.000 C 
ATOM     21  O   UNL     1       5.325   7.332  17.265  0.00  0.00    +0.000 OA
ATOM     22  N   UNL     1       4.025   5.387  17.192  0.00  0.00    +0.000 N 
ATOM     23  C   UNL     1       3.847   4.121  16.629  0.00  0.00    +0.000 C 
ATOM     24  C   UNL     1       2.974   3.219  17.087  0.00  0.00    +0.000 C 
ATOM     25  C   UNL     1       2.220   3.467  18.310  0.00  0.00    +0.000 A 
ATOM     26  C   UNL     1       1.516   2.415  18.916  0.00  0.00    +0.000 A 
ATOM     27  C   UNL     1       0.827   2.627  20.106  0.00  0.00    +0.000 A 
ATOM     28  C   UNL     1       0.867   3.878  20.705  0.00  0.00    +0.000 A 
ATOM     29  C   UNL     1       1.580   4.925  20.108  0.00  0.00    +0.000 A 
ATOM     30  C   UNL     1       2.243   4.752  18.880  0.00  0.00    +0.000 A 
ATOM     31  C   UNL     1       2.862   5.897  18.043  0.00  0.00    +0.000 C 
ENDBRANCH  18  31
ENDBRANCH   1  18
TORSDOF 5
ENDMDL
MODEL 7
REMARK VINA RESULT:      -8.8      5.856      8.881
REMARK  Name = 
REMARK  6 active torsions:
REMARK  status: ('A' for Active; 'I' for Inactive)
REMARK    1  A    between atoms: C_1  and  C_2
REMARK    2  A    between atoms: C_13  and  C_14
REMARK    3  A    between atoms: C_14  and  C_15
REMARK    4  A    between atoms: N_17  and  C_18
REMARK    5  A    between atoms: C_22  and  O_23
REMARK    6  A    between atoms: O_23  and  C_24
REMARK                            x       y       z     vdW  Elec       q    Type
REMARK                         _______ _______ _______ _____ _____    ______ ____
ROOT
ATOM      1  C   UNL     1       8.580   9.443  18.537  0.00  0.00    +0.000 C 
ATOM      2  O   UNL     1       7.764   9.924  17.758  0.00  0.00    +0.000 OA
ATOM      3  N   UNL     1       8.623   8.110  18.924  0.00  0.00    +0.000 N 
ATOM      4  H   UNL     1       9.046   7.903  19.822  0.00  0.00    +0.000 HD
ENDROOT
BRANCH   3   5
ATOM      5  C   UNL     1       7.873   7.087  18.306  0.00  0.00    +0.000 A 
ATOM      6  C   UNL     1       7.670   7.059  16.922  0.00  0.00    +0.000 A 
ATOM      7  C   UNL     1       6.918   6.045  16.333  0.00  0.00    +0.000 A 
ATOM      8  C   UNL     1       6.357   5.052  17.125  0.00  0.00    +0.000 A 
ATOM      9  C   UNL     1       6.539   5.076  18.512  0.00  0.00    +0.000 A 
ATOM     10  C   UNL     1       7.338   6.066  19.097  0.00  0.00    +0.000 A 
BRANCH   9  11
ATOM     11  O   UNL     1       6.012   4.122  19.355  0.00  0.00    +0.000 OA
BRANCH  11  12
ATOM     12  C   UNL     1       4.629   3.969  19.377  0.00  0.00    +0.000 A 
ATOM     13  N   UNL     1       4.184   2.747  19.040  0.00  0.00    +0.000 NA
ATOM     14  C   UNL     1       2.848   2.585  19.046  0.00  0.00    +0.000 A 
ATOM     15  C   UNL     1       1.958   3.582  19.374  0.00  0.00    +0.000 A 
ATOM     16  C   UNL     1       2.522   4.786  19.723  0.00  0.00    +0.000 A 
ATOM     17  N   UNL     1       3.848   5.002  19.748  0.00  0.00    +0.000 NA
ENDBRANCH  11  12
ENDBRANCH   9  11
ENDBRANCH   3   5
BRANCH   1  18
ATOM     18  C   UNL     1       9.629  10.286  19.231  0.00  0.00    +0.000 C 
BRANCH  18  31
ATOM     19  C   UNL     1       8.209  12.268  23.022  0.00  0.00    +0.000 C 
ATOM     20  C   UNL     1       8.723  11.582  21.774  0.00  0.00    +0.000 C 
ATOM     21  O   UNL     1       8.882  10.362  21.828  0.00  0.00    +0.000 OA
ATOM     22  N   UNL     1       9.007  12.384  20.656  0.00  0.00    +0.000 N 
ATOM     23  C   UNL     1       8.825  13.768  20.691  0.00  0.00    +0.000 C 
ATOM     24  C   UNL     1       9.247  14.599  19.733  0.00  0.00    +0.000 C 
ATOM     25  C   UNL     1      10.052  14.107  18.623  0.00  0.00    +0.000 A 
ATOM     26  C   UNL     1      10.705  15.021  17.781  0.00  0.00    +0.000 A 
ATOM     27  C   UNL     1      11.511  14.565  16.742  0.00  0.00    +0.000 A 
ATOM     28  C   UNL     1      11.690  13.200  16.565  0.00  0.00    +0.000 A 
ATOM     29  C   UNL     1      11.049  12.288  17.413  0.00  0.00    +0.000 A 
ATOM     30  C   UNL     1      10.190  12.720  18.438  0.00  0.00    +0.000 A 
ATOM     31  C   UNL     1       9.274  11.792  19.273  0.00  0.00    +0.000 C 
ENDBRANCH  18  31
ENDBRANCH   1  18
TORSDOF 5
ENDMDL
MODEL 8
REMARK VINA RESULT:      -8.8      2.066      8.981
REMARK  Name = 
REMARK  6 active torsions:
REMARK  status: ('A' for Active; 'I' for Inactive)
REMARK    1  A    between atoms: C_1  and  C_2
REMARK    2  A    between atoms: C_13  and  C_14
REMARK    3  A    between atoms: C_14  and  C_15
REMARK    4  A    between atoms: N_17  and  C_18
REMARK    5  A    between atoms: C_22  and  O_23
REMARK    6  A    between atoms: O_23  and  C_24
REMARK                            x       y       z     vdW  Elec       q    Type
REMARK                         _______ _______ _______ _____ _____    ______ ____
ROOT
ATOM      1  C   UNL     1       2.174   8.043  18.074  0.00  0.00    +0.000 C 
ATOM      2  O   UNL     1       2.082   9.114  17.483  0.00  0.00    +0.000 OA
ATOM      3  N   UNL     1       1.889   7.847  19.418  0.00  0.00    +0.000 N 
ATOM      4  H   UNL     1       2.354   7.074  19.881  0.00  0.00    +0.000 HD
ENDROOT
BRANCH   3   5
ATOM      5  C   UNL     1       1.245   8.802  20.233  0.00  0.00    +0.000 A 
ATOM      6  C   UNL     1       1.117   8.621  21.615  0.00  0.00    +0.000 A 
ATOM      7  C   UNL     1       0.469   9.571  22.400  0.00  0.00    +0.000 A 
ATOM      8  C   UNL     1      -0.062  10.710  21.809  0.00  0.00    +0.000 A 
ATOM      9  C   UNL     1       0.044  10.897  20.427  0.00  0.00    +0.000 A 
ATOM     10  C   UNL     1       0.741   9.967  19.646  0.00  0.00    +0.000 A 
BRANCH   9  11
ATOM     11  O   UNL     1      -0.459  12.002  19.778  0.00  0.00    +0.000 OA
BRANCH  11  12
ATOM     12  C   UNL     1      -1.682  11.872  19.127  0.00  0.00    +0.000 A 
ATOM     13  N   UNL     1      -2.756  12.223  19.854  0.00  0.00    +0.000 NA
ATOM     14  C   UNL     1      -3.948  12.091  19.242  0.00  0.00    +0.000 A 
ATOM     15  C   UNL     1      -4.101  11.634  17.953  0.00  0.00    +0.000 A 
ATOM     16  C   UNL     1      -2.935  11.324  17.295  0.00  0.00    +0.000 A 
ATOM     17  N   UNL     1      -1.717  11.447  17.848  0.00  0.00    +0.000 NA
ENDBRANCH  11  12
ENDBRANCH   9  11
ENDBRANCH   3   5
BRANCH   1  18
ATOM     18  C   UNL     1       2.682   6.787  17.395  0.00  0.00    +0.000 C 
BRANCH  18  31
ATOM     19  C   UNL     1       1.589   2.541  18.439  0.00  0.00    +0.000 C 
ATOM     20  C   UNL     1       1.947   3.957  18.041  0.00  0.00    +0.000 C 
ATOM     21  O   UNL     1       1.111   4.587  17.393  0.00  0.00    +0.000 OA
ATOM     22  N   UNL     1       3.212   4.443  18.415  0.00  0.00    +0.000 N 
ATOM     23  C   UNL     1       4.112   3.648  19.127  0.00  0.00    +0.000 C 
ATOM     24  C   UNL     1       5.387   3.983  19.349  0.00  0.00    +0.000 C 
ATOM     25  C   UNL     1       5.960   5.176  18.738  0.00  0.00    +0.000 A 
ATOM     26  C   UNL     1       7.350   5.367  18.762  0.00  0.00    +0.000 A 
ATOM     27  C   UNL     1       7.915   6.480  18.147  0.00  0.00    +0.000 A 
ATOM     28  C   UNL     1       7.095   7.383  17.482  0.00  0.00    +0.000 A 
ATOM     29  C   UNL     1       5.710   7.186  17.448  0.00  0.00    +0.000 A 
ATOM     30  C   UNL     1       5.109   6.097  18.104  0.00  0.00    +0.000 A 
ATOM     31  C   UNL     1       3.584   5.921  18.306  0.00  0.00    +0.000 C 
ENDBRANCH  18  31
ENDBRANCH   1  18
TORSDOF 5
ENDMDL
MODEL 9
REMARK VINA RESULT:      -8.8      2.267      8.411
REMARK  Name = 
REMARK  6 active torsions:
REMARK  status: ('A' for Active; 'I' for Inactive)
REMARK    1  A    between atoms: C_1  and  C_2
REMARK    2  A    between atoms: C_13  and  C_14
REMARK    3  A    between atoms: C_14  and  C_15
REMARK    4  A    between atoms: N_17  and  C_18
REMARK    5  A    between atoms: C_22  and  O_23
REMARK    6  A    between atoms: O_23  and  C_24
REMARK                            x       y       z     vdW  Elec       q    Type
REMARK                         _______ _______ _______ _____ _____    ______ ____
ROOT
ATOM      1  C   UNL     1       2.426   8.314  18.262  0.00  0.00    +0.000 C 
ATOM      2  O   UNL     1       2.482   8.727  17.108  0.00  0.00    +0.000 OA
ATOM      3  N   UNL     1       1.635   8.859  19.265  0.00  0.00    +0.000 N 
ATOM      4  H   UNL     1       1.941   8.718  20.222  0.00  0.00    +0.000 HD
ENDROOT
BRANCH   3   5
ATOM      5  C   UNL     1       0.628   9.820  19.039  0.00  0.00    +0.000 A 
ATOM      6  C   UNL     1      -0.377   9.620  18.086  0.00  0.00    +0.000 A 
ATOM      7  C   UNL     1      -1.357  10.586  17.871  0.00  0.00    +0.000 A 
ATOM      8  C   UNL     1      -1.337  11.765  18.605  0.00  0.00    +0.000 A 
ATOM      9  C   UNL     1      -0.330  11.986  19.549  0.00  0.00    +0.000 A 
ATOM     10  C   UNL     1       0.624  10.992  19.801  0.00  0.00    +0.000 A 
BRANCH   9  11
ATOM     11  O   UNL     1      -0.252  13.131  20.311  0.00  0.00    +0.000 OA
BRANCH  11  12
ATOM     12  C   UNL     1       0.944  13.841  20.294  0.00  0.00    +0.000 A 
ATOM     13  N   UNL     1       1.630  13.833  21.450  0.00  0.00    +0.000 NA
ATOM     14  C   UNL     1       2.784  14.526  21.454  0.00  0.00    +0.000 A 
ATOM     15  C   UNL     1       3.269  15.210  20.363  0.00  0.00    +0.000 A 
ATOM     16  C   UNL     1       2.500  15.134  19.227  0.00  0.00    +0.000 A 
ATOM     17  N   UNL     1       1.346  14.448  19.160  0.00  0.00    +0.000 NA
ENDBRANCH  11  12
ENDBRANCH   9  11
ENDBRANCH   3   5
BRANCH   1  18
ATOM     18  C   UNL     1       3.282   7.165  18.752  0.00  0.00    +0.000 C 
BRANCH  18  31
ATOM     19  C   UNL     1       6.110   5.523  15.649  0.00  0.00    +0.000 C 
ATOM     20  C   UNL     1       5.198   6.082  16.721  0.00  0.00    +0.000 C 
ATOM     21  O   UNL     1       5.473   7.196  17.168  0.00  0.00    +0.000 OA
ATOM     22  N   UNL     1       4.124   5.284  17.149  0.00  0.00    +0.000 N 
ATOM     23  C   UNL     1       3.902   4.016  16.607  0.00  0.00    +0.000 C 
ATOM     24  C   UNL     1       3.018   3.141  17.096  0.00  0.00    +0.000 C 
ATOM     25  C   UNL     1       2.300   3.423  18.333  0.00  0.00    +0.000 A 
ATOM     26  C   UNL     1       1.585   2.396  18.968  0.00  0.00    +0.000 A 
ATOM     27  C   UNL     1       0.929   2.639  20.171  0.00  0.00    +0.000 A 
ATOM     28  C   UNL     1       1.014   3.896  20.754  0.00  0.00    +0.000 A 
ATOM     29  C   UNL     1       1.737   4.917  20.126  0.00  0.00    +0.000 A 
ATOM     30  C   UNL     1       2.367   4.713  18.886  0.00  0.00    +0.000 A 
ATOM     31  C   UNL     1       2.995   5.833  18.020  0.00  0.00    +0.000 C 
ENDBRANCH  18  31
ENDBRANCH   1  18
TORSDOF 5
ENDMDL
