MODEL 1
REMARK VINA RESULT:      -9.2      0.000      0.000
REMARK  Name = 
REMARK  2 active torsions:
REMARK  status: ('A' for Active; 'I' for Inactive)
REMARK    1  A    between atoms: C_2  and  C_15
REMARK    2  A    between atoms: N_3  and  C_4
REMARK                            x       y       z     vdW  Elec       q    Type
REMARK                         _______ _______ _______ _____ _____    ______ ____
ROOT
ATOM      1  O   UNL     1       1.969   9.001  17.120  0.00  0.00    +0.000 OA
ATOM      2  C   UNL     1       1.909   8.879  18.346  0.00  0.00    +0.000 C 
ATOM      3  N   UNL     1       2.233   7.597  18.869  0.00  0.00    +0.000 N 
ATOM      4  H   UNL     1       2.431   7.529  19.853  0.00  0.00    +0.000 HD
ENDROOT
BRANCH   2   5
ATOM      5  C   UNL     1       1.466  10.160  19.210  0.00  0.00    +0.000 A 
ATOM      6  C   UNL     1       1.783  11.527  18.986  0.00  0.00    +0.000 A 
ATOM      7  C   UNL     1       1.344  12.467  19.929  0.00  0.00    +0.000 A 
ATOM      8  N   UNL     1       0.710  12.238  21.073  0.00  0.00    +0.000 NA
ATOM      9  C   UNL     1       0.404  10.997  21.333  0.00  0.00    +0.000 A 
ATOM     10  C   UNL     1      -0.218  10.917  22.566  0.00  0.00    +0.000 A 
ATOM     11  C   UNL     1      -0.683   9.720  23.058  0.00  0.00    +0.000 A 
ATOM     12  C   UNL     1      -0.550   8.602  22.252  0.00  0.00    +0.000 A 
ATOM     13  C   UNL     1       0.101   8.685  20.995  0.00  0.00    +0.000 A 
ATOM     14  C   UNL     1       0.674   9.893  20.468  0.00  0.00    +0.000 A 
ATOM     15  C   UNL     1       1.616  13.902  19.643  0.00  0.00    +0.000 C 
ATOM     16  C   UNL     1       2.491  13.812  18.415  0.00  0.00    +0.000 C 
ATOM     17  C   UNL     1       2.551  12.319  17.961  0.00  0.00    +0.000 C 
ENDBRANCH   2   5
BRANCH   3  18
ATOM     18  C   UNL     1       2.764   6.436  17.999  0.00  0.00    +0.000 C 
ATOM     19  C   UNL     1       1.990   5.089  18.099  0.00  0.00    +0.000 C 
ATOM     20  C   UNL     1       2.152   4.461  19.481  0.00  0.00    +0.000 C 
ATOM     21  C   UNL     1       3.611   4.127  19.785  0.00  0.00    +0.000 C 
ATOM     22  C   UNL     1       4.596   5.071  19.147  0.00  0.00    +0.000 A 
ATOM     23  N   UNL     1       5.918   4.775  19.386  0.00  0.00    +0.000 N 
ATOM     24  C   UNL     1       6.981   5.370  18.752  0.00  0.00    +0.000 A 
ATOM     25  O   UNL     1       8.157   5.139  19.030  0.00  0.00    +0.000 OA
ATOM     26  C   UNL     1       6.615   6.340  17.710  0.00  0.00    +0.000 A 
ATOM     27  C   UNL     1       5.324   6.673  17.512  0.00  0.00    +0.000 A 
ATOM     28  C   UNL     1       4.247   6.096  18.325  0.00  0.00    +0.000 A 
ATOM     29  H   UNL     1       6.178   4.032  20.025  0.00  0.00    +0.000 HD
ENDBRANCH   3  18
TORSDOF 2
ENDMDL
MODEL 2
REMARK VINA RESULT:      -9.0      0.410      3.159
REMARK  Name = 
REMARK  2 active torsions:
REMARK  status: ('A' for Active; 'I' for Inactive)
REMARK    1  A    between atoms: C_2  and  C_15
REMARK    2  A    between atoms: N_3  and  C_4
REMARK                            x       y       z     vdW  Elec       q    Type
REMARK                         _______ _______ _______ _____ _____    ______ ____
ROOT
ATOM      1  O   UNL     1       1.815   8.980  17.403  0.00  0.00    +0.000 OA
ATOM      2  C   UNL     1       1.795   8.724  18.609  0.00  0.00    +0.000 C 
ATOM      3  N   UNL     1       2.209   7.416  18.983  0.00  0.00    +0.000 N 
ATOM      4  H   UNL     1       2.437   7.256  19.950  0.00  0.00    +0.000 HD
ENDROOT
BRANCH   2   5
ATOM      5  C   UNL     1       1.300   9.875  19.616  0.00  0.00    +0.000 A 
ATOM      6  C   UNL     1       0.559   9.734  20.821  0.00  0.00    +0.000 A 
ATOM      7  C   UNL     1       0.171  10.900  21.495  0.00  0.00    +0.000 A 
ATOM      8  N   UNL     1       0.349  12.159  21.113  0.00  0.00    +0.000 NA
ATOM      9  C   UNL     1       1.014  12.345  20.007  0.00  0.00    +0.000 A 
ATOM     10  C   UNL     1       1.087  13.698  19.726  0.00  0.00    +0.000 A 
ATOM     11  C   UNL     1       1.777  14.167  18.633  0.00  0.00    +0.000 A 
ATOM     12  C   UNL     1       2.439  13.239  17.848  0.00  0.00    +0.000 A 
ATOM     13  C   UNL     1       2.350  11.853  18.129  0.00  0.00    +0.000 A 
ATOM     14  C   UNL     1       1.580  11.303  19.211  0.00  0.00    +0.000 A 
ATOM     15  C   UNL     1      -0.537  10.737  22.794  0.00  0.00    +0.000 C 
ATOM     16  C   UNL     1      -0.750   9.243  22.843  0.00  0.00    +0.000 C 
ATOM     17  C   UNL     1      -0.009   8.598  21.630  0.00  0.00    +0.000 C 
ENDBRANCH   2   5
BRANCH   3  18
ATOM     18  C   UNL     1       2.785   6.391  17.982  0.00  0.00    +0.000 C 
ATOM     19  C   UNL     1       2.038   5.028  17.883  0.00  0.00    +0.000 C 
ATOM     20  C   UNL     1       2.181   4.225  19.174  0.00  0.00    +0.000 C 
ATOM     21  C   UNL     1       3.641   3.882  19.469  0.00  0.00    +0.000 C 
ATOM     22  C   UNL     1       4.619   4.920  18.985  0.00  0.00    +0.000 A 
ATOM     23  N   UNL     1       5.941   4.619  19.216  0.00  0.00    +0.000 N 
ATOM     24  C   UNL     1       7.005   5.312  18.694  0.00  0.00    +0.000 A 
ATOM     25  O   UNL     1       8.179   5.069  18.969  0.00  0.00    +0.000 OA
ATOM     26  C   UNL     1       6.642   6.405  17.780  0.00  0.00    +0.000 A 
ATOM     27  C   UNL     1       5.349   6.737  17.595  0.00  0.00    +0.000 A 
ATOM     28  C   UNL     1       4.266   6.038  18.297  0.00  0.00    +0.000 A 
ATOM     29  H   UNL     1       6.203   3.803  19.759  0.00  0.00    +0.000 HD
ENDBRANCH   3  18
TORSDOF 2
ENDMDL
MODEL 3
REMARK VINA RESULT:      -8.1      2.426      7.322
REMARK  Name = 
REMARK  2 active torsions:
REMARK  status: ('A' for Active; 'I' for Inactive)
REMARK    1  A    between atoms: C_2  and  C_15
REMARK    2  A    between atoms: N_3  and  C_4
REMARK                            x       y       z     vdW  Elec       q    Type
REMARK                         _______ _______ _______ _____ _____    ______ ____
ROOT
ATOM      1  O   UNL     1       1.455   7.531  21.075  0.00  0.00    +0.000 OA
ATOM      2  C   UNL     1       1.741   7.680  19.885  0.00  0.00    +0.000 C 
ATOM      3  N   UNL     1       1.335   8.905  19.287  0.00  0.00    +0.000 N 
ATOM      4  H   UNL     1       1.757   9.160  18.409  0.00  0.00    +0.000 HD
ENDROOT
BRANCH   2   5
ATOM      5  C   UNL     1       2.522   6.487  19.142  0.00  0.00    +0.000 A 
ATOM      6  C   UNL     1       3.453   6.574  18.072  0.00  0.00    +0.000 A 
ATOM      7  C   UNL     1       3.947   5.380  17.532  0.00  0.00    +0.000 A 
ATOM      8  N   UNL     1       3.603   4.138  17.850  0.00  0.00    +0.000 NA
ATOM      9  C   UNL     1       2.742   4.001  18.820  0.00  0.00    +0.000 A 
ATOM     10  C   UNL     1       2.460   2.660  19.010  0.00  0.00    +0.000 A 
ATOM     11  C   UNL     1       1.612   2.240  20.008  0.00  0.00    +0.000 A 
ATOM     12  C   UNL     1       1.086   3.206  20.849  0.00  0.00    +0.000 A 
ATOM     13  C   UNL     1       1.364   4.580  20.642  0.00  0.00    +0.000 A 
ATOM     14  C   UNL     1       2.181   5.079  19.570  0.00  0.00    +0.000 A 
ATOM     15  C   UNL     1       4.979   5.487  16.464  0.00  0.00    +0.000 C 
ATOM     16  C   UNL     1       5.002   6.974  16.205  0.00  0.00    +0.000 C 
ATOM     17  C   UNL     1       4.085   7.672  17.257  0.00  0.00    +0.000 C 
ENDBRANCH   2   5
BRANCH   3  18
ATOM     18  C   UNL     1       0.689  10.062  20.080  0.00  0.00    +0.000 C 
ATOM     19  C   UNL     1      -0.866  10.065  20.154  0.00  0.00    +0.000 C 
ATOM     20  C   UNL     1      -1.483  10.327  18.782  0.00  0.00    +0.000 C 
ATOM     21  C   UNL     1      -1.088  11.698  18.235  0.00  0.00    +0.000 C 
ATOM     22  C   UNL     1       0.282  12.152  18.665  0.00  0.00    +0.000 A 
ATOM     23  N   UNL     1       0.649  13.395  18.205  0.00  0.00    +0.000 N 
ATOM     24  C   UNL     1       1.756  14.091  18.626  0.00  0.00    +0.000 A 
ATOM     25  O   UNL     1       2.103  15.172  18.151  0.00  0.00    +0.000 OA
ATOM     26  C   UNL     1       2.530  13.436  19.689  0.00  0.00    +0.000 A 
ATOM     27  C   UNL     1       2.205  12.194  20.103  0.00  0.00    +0.000 A 
ATOM     28  C   UNL     1       1.087  11.453  19.508  0.00  0.00    +0.000 A 
ATOM     29  H   UNL     1       0.063  13.902  17.550  0.00  0.00    +0.000 HD
ENDBRANCH   3  18
TORSDOF 2
ENDMDL
MODEL 4
REMARK VINA RESULT:      -8.1      2.652      8.286
REMARK  Name = 
REMARK  2 active torsions:
REMARK  status: ('A' for Active; 'I' for Inactive)
REMARK    1  A    between atoms: C_2  and  C_15
REMARK    2  A    between atoms: N_3  and  C_4
REMARK                            x       y       z     vdW  Elec       q    Type
REMARK                         _______ _______ _______ _____ _____    ______ ____
ROOT
ATOM      1  O   UNL     1       3.331   8.711  17.368  0.00  0.00    +0.000 OA
ATOM      2  C   UNL     1       2.566   7.959  17.977  0.00  0.00    +0.000 C 
ATOM      3  N   UNL     1       1.317   8.514  18.370  0.00  0.00    +0.000 N 
ATOM      4  H   UNL     1       0.587   7.876  18.642  0.00  0.00    +0.000 HD
ENDROOT
BRANCH   2   5
ATOM      5  C   UNL     1       3.059   6.457  18.268  0.00  0.00    +0.000 A 
ATOM      6  C   UNL     1       2.662   5.586  19.319  0.00  0.00    +0.000 A 
ATOM      7  C   UNL     1       3.294   4.340  19.415  0.00  0.00    +0.000 A 
ATOM      8  N   UNL     1       4.292   3.874  18.673  0.00  0.00    +0.000 NA
ATOM      9  C   UNL     1       4.703   4.638  17.700  0.00  0.00    +0.000 A 
ATOM     10  C   UNL     1       5.761   4.034  17.045  0.00  0.00    +0.000 A 
ATOM     11  C   UNL     1       6.350   4.615  15.947  0.00  0.00    +0.000 A 
ATOM     12  C   UNL     1       5.814   5.806  15.489  0.00  0.00    +0.000 A 
ATOM     13  C   UNL     1       4.740   6.431  16.171  0.00  0.00    +0.000 A 
ATOM     14  C   UNL     1       4.139   5.907  17.366  0.00  0.00    +0.000 A 
ATOM     15  C   UNL     1       2.815   3.408  20.473  0.00  0.00    +0.000 C 
ATOM     16  C   UNL     1       1.850   4.281  21.238  0.00  0.00    +0.000 C 
ATOM     17  C   UNL     1       1.704   5.638  20.480  0.00  0.00    +0.000 C 
ENDBRANCH   2   5
BRANCH   3  18
ATOM     18  C   UNL     1       0.851   9.928  17.961  0.00  0.00    +0.000 C 
ATOM     19  C   UNL     1       1.411  11.110  18.807  0.00  0.00    +0.000 C 
ATOM     20  C   UNL     1       0.870  11.071  20.234  0.00  0.00    +0.000 C 
ATOM     21  C   UNL     1      -0.651  11.215  20.269  0.00  0.00    +0.000 C 
ATOM     22  C   UNL     1      -1.344  10.628  19.069  0.00  0.00    +0.000 A 
ATOM     23  N   UNL     1      -2.712  10.769  19.066  0.00  0.00    +0.000 N 
ATOM     24  C   UNL     1      -3.526  10.492  17.995  0.00  0.00    +0.000 A 
ATOM     25  O   UNL     1      -4.754  10.560  18.036  0.00  0.00    +0.000 OA
ATOM     26  C   UNL     1      -2.822  10.078  16.774  0.00  0.00    +0.000 A 
ATOM     27  C   UNL     1      -1.487   9.886  16.789  0.00  0.00    +0.000 A 
ATOM     28  C   UNL     1      -0.697  10.069  18.012  0.00  0.00    +0.000 A 
ATOM     29  H   UNL     1      -3.198  11.155  19.868  0.00  0.00    +0.000 HD
ENDBRANCH   3  18
TORSDOF 2
ENDMDL
MODEL 5
REMARK VINA RESULT:      -8.0      1.839      7.475
REMARK  Name = 
REMARK  2 active torsions:
REMARK  status: ('A' for Active; 'I' for Inactive)
REMARK    1  A    between atoms: C_2  and  C_15
REMARK    2  A    between atoms: N_3  and  C_4
REMARK                            x       y       z     vdW  Elec       q    Type
REMARK                         _______ _______ _______ _____ _____    ______ ____
ROOT
ATOM      1  O   UNL     1       2.008   7.461  17.253  0.00  0.00    +0.000 OA
ATOM      2  C   UNL     1       2.445   7.390  18.403  0.00  0.00    +0.000 C 
ATOM      3  N   UNL     1       1.943   8.346  19.329  0.00  0.00    +0.000 N 
ATOM      4  H   UNL     1       2.086   8.168  20.309  0.00  0.00    +0.000 HD
ENDROOT
BRANCH   2   5
ATOM      5  C   UNL     1       3.529   6.249  18.729  0.00  0.00    +0.000 A 
ATOM      6  C   UNL     1       4.855   6.124  18.232  0.00  0.00    +0.000 A 
ATOM      7  C   UNL     1       5.592   4.990  18.599  0.00  0.00    +0.000 A 
ATOM      8  N   UNL     1       5.182   3.951  19.317  0.00  0.00    +0.000 NA
ATOM      9  C   UNL     1       3.968   4.008  19.789  0.00  0.00    +0.000 A 
ATOM     10  C   UNL     1       3.679   2.846  20.481  0.00  0.00    +0.000 A 
ATOM     11  C   UNL     1       2.472   2.672  21.118  0.00  0.00    +0.000 A 
ATOM     12  C   UNL     1       1.573   3.724  21.083  0.00  0.00    +0.000 A 
ATOM     13  C   UNL     1       1.866   4.907  20.360  0.00  0.00    +0.000 A 
ATOM     14  C   UNL     1       3.077   5.111  19.614  0.00  0.00    +0.000 A 
ATOM     15  C   UNL     1       7.004   4.910  18.136  0.00  0.00    +0.000 C 
ATOM     16  C   UNL     1       7.094   6.103  17.215  0.00  0.00    +0.000 C 
ATOM     17  C   UNL     1       5.759   6.907  17.317  0.00  0.00    +0.000 C 
ENDBRANCH   2   5
BRANCH   3  18
ATOM     18  C   UNL     1       0.816   9.345  18.988  0.00  0.00    +0.000 C 
ATOM     19  C   UNL     1       1.058  10.263  17.753  0.00  0.00    +0.000 C 
ATOM     20  C   UNL     1       2.196  11.247  18.012  0.00  0.00    +0.000 C 
ATOM     21  C   UNL     1       1.880  12.186  19.175  0.00  0.00    +0.000 C 
ATOM     22  C   UNL     1       1.020  11.563  20.243  0.00  0.00    +0.000 A 
ATOM     23  N   UNL     1       0.701  12.398  21.288  0.00  0.00    +0.000 N 
ATOM     24  C   UNL     1      -0.223  12.114  22.264  0.00  0.00    +0.000 A 
ATOM     25  O   UNL     1      -0.443  12.846  23.228  0.00  0.00    +0.000 OA
ATOM     26  C   UNL     1      -0.933  10.840  22.091  0.00  0.00    +0.000 A 
ATOM     27  C   UNL     1      -0.584   9.994  21.099  0.00  0.00    +0.000 A 
ATOM     28  C   UNL     1       0.511  10.304  20.173  0.00  0.00    +0.000 A 
ATOM     29  H   UNL     1       1.107  13.325  21.357  0.00  0.00    +0.000 HD
ENDBRANCH   3  18
TORSDOF 2
ENDMDL
MODEL 6
REMARK VINA RESULT:      -7.7      2.304      8.070
REMARK  Name = 
REMARK  2 active torsions:
REMARK  status: ('A' for Active; 'I' for Inactive)
REMARK    1  A    between atoms: C_2  and  C_15
REMARK    2  A    between atoms: N_3  and  C_4
REMARK                            x       y       z     vdW  Elec       q    Type
REMARK                         _______ _______ _______ _____ _____    ______ ____
ROOT
ATOM      1  O   UNL     1       2.969   8.138  18.421  0.00  0.00    +0.000 OA
ATOM      2  C   UNL     1       2.561   7.220  19.135  0.00  0.00    +0.000 C 
ATOM      3  N   UNL     1       2.030   7.594  20.400  0.00  0.00    +0.000 N 
ATOM      4  H   UNL     1       1.475   6.914  20.894  0.00  0.00    +0.000 HD
ENDROOT
BRANCH   2   5
ATOM      5  C   UNL     1       2.682   5.718  18.575  0.00  0.00    +0.000 A 
ATOM      6  C   UNL     1       2.000   4.553  19.020  0.00  0.00    +0.000 A 
ATOM      7  C   UNL     1       2.331   3.329  18.424  0.00  0.00    +0.000 A 
ATOM      8  N   UNL     1       3.273   3.092  17.519  0.00  0.00    +0.000 NA
ATOM      9  C   UNL     1       3.938   4.126  17.084  0.00  0.00    +0.000 A 
ATOM     10  C   UNL     1       4.900   3.717  16.178  0.00  0.00    +0.000 A 
ATOM     11  C   UNL     1       5.710   4.623  15.535  0.00  0.00    +0.000 A 
ATOM     12  C   UNL     1       5.497   5.966  15.790  0.00  0.00    +0.000 A 
ATOM     13  C   UNL     1       4.521   6.382  16.731  0.00  0.00    +0.000 A 
ATOM     14  C   UNL     1       3.702   5.476  17.487  0.00  0.00    +0.000 A 
ATOM     15  C   UNL     1       1.555   2.130  18.845  0.00  0.00    +0.000 C 
ATOM     16  C   UNL     1       0.731   2.681  19.984  0.00  0.00    +0.000 C 
ATOM     17  C   UNL     1       0.963   4.223  20.061  0.00  0.00    +0.000 C 
ENDBRANCH   2   5
BRANCH   3  18
ATOM     18  C   UNL     1       1.833   9.062  20.837  0.00  0.00    +0.000 C 
ATOM     19  C   UNL     1       1.459   9.294  22.330  0.00  0.00    +0.000 C 
ATOM     20  C   UNL     1       0.065   8.752  22.639  0.00  0.00    +0.000 C 
ATOM     21  C   UNL     1      -1.014   9.462  21.822  0.00  0.00    +0.000 C 
ATOM     22  C   UNL     1      -0.547   9.916  20.464  0.00  0.00    +0.000 A 
ATOM     23  N   UNL     1      -1.494  10.581  19.721  0.00  0.00    +0.000 N 
ATOM     24  C   UNL     1      -1.241  11.252  18.550  0.00  0.00    +0.000 A 
ATOM     25  O   UNL     1      -2.116  11.782  17.865  0.00  0.00    +0.000 OA
ATOM     26  C   UNL     1       0.171  11.279  18.145  0.00  0.00    +0.000 A 
ATOM     27  C   UNL     1       1.093  10.583  18.841  0.00  0.00    +0.000 A 
ATOM     28  C   UNL     1       0.725   9.772  20.008  0.00  0.00    +0.000 A 
ATOM     29  H   UNL     1      -2.452  10.659  20.046  0.00  0.00    +0.000 HD
ENDBRANCH   3  18
TORSDOF 2
ENDMDL
MODEL 7
REMARK VINA RESULT:      -7.6      2.693      7.666
REMARK  Name = 
REMARK  2 active torsions:
REMARK  status: ('A' for Active; 'I' for Inactive)
REMARK    1  A    between atoms: C_2  and  C_15
REMARK    2  A    between atoms: N_3  and  C_4
REMARK                            x       y       z     vdW  Elec       q    Type
REMARK                         _______ _______ _______ _____ _____    ______ ____
ROOT
ATOM      1  O   UNL     1       3.542   9.000  17.461  0.00  0.00    +0.000 OA
ATOM      2  C   UNL     1       2.777   8.096  17.804  0.00  0.00    +0.000 C 
ATOM      3  N   UNL     1       1.437   8.478  18.090  0.00  0.00    +0.000 N 
ATOM      4  H   UNL     1       0.742   7.751  18.132  0.00  0.00    +0.000 HD
ENDROOT
BRANCH   2   5
ATOM      5  C   UNL     1       3.368   6.605  17.901  0.00  0.00    +0.000 A 
ATOM      6  C   UNL     1       4.298   5.966  17.036  0.00  0.00    +0.000 A 
ATOM      7  C   UNL     1       4.607   4.622  17.279  0.00  0.00    +0.000 A 
ATOM      8  N   UNL     1       4.082   3.819  18.197  0.00  0.00    +0.000 NA
ATOM      9  C   UNL     1       3.214   4.351  19.012  0.00  0.00    +0.000 A 
ATOM     10  C   UNL     1       2.736   3.388  19.882  0.00  0.00    +0.000 A 
ATOM     11  C   UNL     1       1.838   3.701  20.875  0.00  0.00    +0.000 A 
ATOM     12  C   UNL     1       1.465   5.028  21.005  0.00  0.00    +0.000 A 
ATOM     13  C   UNL     1       1.945   6.010  20.102  0.00  0.00    +0.000 A 
ATOM     14  C   UNL     1       2.822   5.725  19.001  0.00  0.00    +0.000 A 
ATOM     15  C   UNL     1       5.639   3.988  16.414  0.00  0.00    +0.000 C 
ATOM     16  C   UNL     1       5.883   5.067  15.386  0.00  0.00    +0.000 C 
ATOM     17  C   UNL     1       5.084   6.340  15.807  0.00  0.00    +0.000 C 
ENDBRANCH   2   5
BRANCH   3  18
ATOM     18  C   UNL     1       0.897   9.908  17.868  0.00  0.00    +0.000 C 
ATOM     19  C   UNL     1       1.394  10.996  18.865  0.00  0.00    +0.000 C 
ATOM     20  C   UNL     1       0.857  10.741  20.272  0.00  0.00    +0.000 C 
ATOM     21  C   UNL     1      -0.669  10.800  20.316  0.00  0.00    +0.000 C 
ATOM     22  C   UNL     1      -1.331  10.340  19.044  0.00  0.00    +0.000 A 
ATOM     23  N   UNL     1      -2.705  10.408  19.051  0.00  0.00    +0.000 N 
ATOM     24  C   UNL     1      -3.504  10.232  17.947  0.00  0.00    +0.000 A 
ATOM     25  O   UNL     1      -4.733  10.229  17.989  0.00  0.00    +0.000 OA
ATOM     26  C   UNL     1      -2.779  10.020  16.687  0.00  0.00    +0.000 A 
ATOM     27  C   UNL     1      -1.436   9.897  16.685  0.00  0.00    +0.000 A 
ATOM     28  C   UNL     1      -0.656   9.959  17.927  0.00  0.00    +0.000 A 
ATOM     29  H   UNL     1      -3.210  10.660  19.894  0.00  0.00    +0.000 HD
ENDBRANCH   3  18
TORSDOF 2
ENDMDL
MODEL 8
REMARK VINA RESULT:      -7.4      3.310      8.504
REMARK  Name = 
REMARK  2 active torsions:
REMARK  status: ('A' for Active; 'I' for Inactive)
REMARK    1  A    between atoms: C_2  and  C_15
REMARK    2  A    between atoms: N_3  and  C_4
REMARK                            x       y       z     vdW  Elec       q    Type
REMARK                         _______ _______ _______ _____ _____    ______ ____
ROOT
ATOM      1  O   UNL     1      -0.113  12.549  18.186  0.00  0.00    +0.000 OA
ATOM      2  C   UNL     1       0.831  12.232  18.913  0.00  0.00    +0.000 C 
ATOM      3  N   UNL     1       1.951  13.109  18.911  0.00  0.00    +0.000 N 
ATOM      4  H   UNL     1       2.618  13.016  19.659  0.00  0.00    +0.000 HD
ENDROOT
BRANCH   2   5
ATOM      5  C   UNL     1       0.704  10.874  19.765  0.00  0.00    +0.000 A 
ATOM      6  C   UNL     1       0.084  10.681  21.029  0.00  0.00    +0.000 A 
ATOM      7  C   UNL     1       0.169   9.412  21.616  0.00  0.00    +0.000 A 
ATOM      8  N   UNL     1       0.829   8.350  21.169  0.00  0.00    +0.000 NA
ATOM      9  C   UNL     1       1.426   8.476  20.017  0.00  0.00    +0.000 A 
ATOM     10  C   UNL     1       2.093   7.305  19.704  0.00  0.00    +0.000 A 
ATOM     11  C   UNL     1       2.768   7.160  18.515  0.00  0.00    +0.000 A 
ATOM     12  C   UNL     1       2.717   8.213  17.618  0.00  0.00    +0.000 A 
ATOM     13  C   UNL     1       2.046   9.418  17.948  0.00  0.00    +0.000 A 
ATOM     14  C   UNL     1       1.391   9.651  19.205  0.00  0.00    +0.000 A 
ATOM     15  C   UNL     1      -0.550   9.202  22.903  0.00  0.00    +0.000 C 
ATOM     16  C   UNL     1      -1.015  10.602  23.227  0.00  0.00    +0.000 C 
ATOM     17  C   UNL     1      -0.670  11.529  22.019  0.00  0.00    +0.000 C 
ENDBRANCH   2   5
BRANCH   3  18
ATOM     18  C   UNL     1       1.969  14.458  18.161  0.00  0.00    +0.000 C 
ATOM     19  C   UNL     1       3.373  15.034  17.811  0.00  0.00    +0.000 C 
ATOM     20  C   UNL     1       4.133  15.438  19.072  0.00  0.00    +0.000 C 
ATOM     21  C   UNL     1       3.409  16.541  19.842  0.00  0.00    +0.000 C 
ATOM     22  C   UNL     1       1.909  16.482  19.722  0.00  0.00    +0.000 A 
ATOM     23  N   UNL     1       1.236  17.481  20.386  0.00  0.00    +0.000 N 
ATOM     24  C   UNL     1      -0.106  17.742  20.257  0.00  0.00    +0.000 A 
ATOM     25  O   UNL     1      -0.700  18.597  20.913  0.00  0.00    +0.000 OA
ATOM     26  C   UNL     1      -0.808  16.900  19.278  0.00  0.00    +0.000 A 
ATOM     27  C   UNL     1      -0.164  15.885  18.667  0.00  0.00    +0.000 A 
ATOM     28  C   UNL     1       1.240  15.577  18.958  0.00  0.00    +0.000 A 
ATOM     29  H   UNL     1       1.732  18.135  20.982  0.00  0.00    +0.000 HD
ENDBRANCH   3  18
TORSDOF 2
ENDMDL
MODEL 9
REMARK VINA RESULT:      -7.3      1.869      8.026
REMARK  Name = 
REMARK  2 active torsions:
REMARK  status: ('A' for Active; 'I' for Inactive)
REMARK    1  A    between atoms: C_2  and  C_15
REMARK    2  A    between atoms: N_3  and  C_4
REMARK                            x       y       z     vdW  Elec       q    Type
REMARK                         _______ _______ _______ _____ _____    ______ ____
ROOT
ATOM      1  O   UNL     1       1.746   7.822  17.306  0.00  0.00    +0.000 OA
ATOM      2  C   UNL     1       2.024   7.637  18.493  0.00  0.00    +0.000 C 
ATOM      3  N   UNL     1       1.555   8.618  19.410  0.00  0.00    +0.000 N 
ATOM      4  H   UNL     1       1.548   8.379  20.388  0.00  0.00    +0.000 HD
ENDROOT
BRANCH   2   5
ATOM      5  C   UNL     1       2.882   6.332  18.872  0.00  0.00    +0.000 A 
ATOM      6  C   UNL     1       2.507   5.239  19.699  0.00  0.00    +0.000 A 
ATOM      7  C   UNL     1       3.462   4.245  19.949  0.00  0.00    +0.000 A 
ATOM      8  N   UNL     1       4.732   4.220  19.561  0.00  0.00    +0.000 NA
ATOM      9  C   UNL     1       5.132   5.206  18.808  0.00  0.00    +0.000 A 
ATOM     10  C   UNL     1       6.476   5.057  18.516  0.00  0.00    +0.000 A 
ATOM     11  C   UNL     1       7.135   5.943  17.697  0.00  0.00    +0.000 A 
ATOM     12  C   UNL     1       6.392   6.967  17.134  0.00  0.00    +0.000 A 
ATOM     13  C   UNL     1       5.019   7.127  17.447  0.00  0.00    +0.000 A 
ATOM     14  C   UNL     1       4.301   6.276  18.356  0.00  0.00    +0.000 A 
ATOM     15  C   UNL     1       3.032   3.068  20.753  0.00  0.00    +0.000 C 
ATOM     16  C   UNL     1       1.648   3.483  21.190  0.00  0.00    +0.000 C 
ATOM     17  C   UNL     1       1.287   4.826  20.480  0.00  0.00    +0.000 C 
ENDBRANCH   2   5
BRANCH   3  18
ATOM     18  C   UNL     1       0.636   9.790  19.002  0.00  0.00    +0.000 C 
ATOM     19  C   UNL     1       1.133  10.679  17.824  0.00  0.00    +0.000 C 
ATOM     20  C   UNL     1       2.382  11.465  18.215  0.00  0.00    +0.000 C 
ATOM     21  C   UNL     1       2.110  12.422  19.375  0.00  0.00    +0.000 C 
ATOM     22  C   UNL     1       1.067  11.925  20.341  0.00  0.00    +0.000 A 
ATOM     23  N   UNL     1       0.787  12.782  21.379  0.00  0.00    +0.000 N 
ATOM     24  C   UNL     1      -0.257  12.632  22.259  0.00  0.00    +0.000 A 
ATOM     25  O   UNL     1      -0.448  13.372  23.223  0.00  0.00    +0.000 OA
ATOM     26  C   UNL     1      -1.139  11.489  21.982  0.00  0.00    +0.000 A 
ATOM     27  C   UNL     1      -0.836  10.617  21.000  0.00  0.00    +0.000 A 
ATOM     28  C   UNL     1       0.375  10.765  20.185  0.00  0.00    +0.000 A 
ATOM     29  H   UNL     1       1.326  13.630  21.514  0.00  0.00    +0.000 HD
ENDBRANCH   3  18
TORSDOF 2
ENDMDL
