MODEL 1
REMARK VINA RESULT:      -7.8      0.000      0.000
REMARK  Name = 
REMARK  2 active torsions:
REMARK  status: ('A' for Active; 'I' for Inactive)
REMARK    1  A    between atoms: C_2  and  C_4
REMARK    2  A    between atoms: C_9  and  C_11
REMARK                            x       y       z     vdW  Elec       q    Type
REMARK                         _______ _______ _______ _____ _____    ______ ____
ROOT
ATOM      1  C   UNL     1       3.359   6.180  19.228  0.00  0.00    +0.000 A 
ATOM      2  C   UNL     1       3.268   6.867  18.013  0.00  0.00    +0.000 A 
ATOM      3  C   UNL     1       2.575   8.076  17.919  0.00  0.00    +0.000 A 
ATOM      4  C   UNL     1       1.859   8.501  19.019  0.00  0.00    +0.000 A 
ATOM      5  C   UNL     1       1.759   7.689  20.167  0.00  0.00    +0.000 A 
ATOM      6  C   UNL     1       2.528   6.542  20.303  0.00  0.00    +0.000 A 
ATOM      7  C   UNL     1       0.719   8.264  21.114  0.00  0.00    +0.000 C 
ATOM      8  C   UNL     1       0.356   9.568  20.424  0.00  0.00    +0.000 A 
ATOM      9  C   UNL     1      -0.527  10.551  20.841  0.00  0.00    +0.000 A 
ATOM     10  C   UNL     1      -0.637  11.706  20.061  0.00  0.00    +0.000 A 
ATOM     11  C   UNL     1       0.133  11.867  18.896  0.00  0.00    +0.000 A 
ATOM     12  C   UNL     1       0.992  10.855  18.464  0.00  0.00    +0.000 A 
ATOM     13  C   UNL     1       1.074   9.696  19.219  0.00  0.00    +0.000 A 
ENDROOT
BRANCH   1  19
ATOM     14  C   UNL     1       2.778   3.244  18.194  0.00  0.00    +0.000 C 
ATOM     15  C   UNL     1       2.706   1.750  18.540  0.00  0.00    +0.000 C 
ATOM     16  C   UNL     1       4.142   1.372  18.836  0.00  0.00    +0.000 C 
ATOM     17  C   UNL     1       4.752   2.644  19.407  0.00  0.00    +0.000 C 
ATOM     18  N   UNL     1       3.795   3.717  19.166  0.00  0.00    +0.000 N 
ATOM     19  C   UNL     1       4.271   5.016  19.366  0.00  0.00    +0.000 C 
ATOM     20  O   UNL     1       5.438   5.249  19.695  0.00  0.00    +0.000 OA
BRANCH  14  22
ATOM     21  N   UNL     1       0.575   3.416  19.273  0.00  0.00    +0.000 N 
ATOM     22  C   UNL     1       1.320   3.743  18.169  0.00  0.00    +0.000 C 
ATOM     23  O   UNL     1       0.801   4.350  17.236  0.00  0.00    +0.000 OA
ATOM     24  H   UNL     1      -0.420   3.590  19.183  0.00  0.00    +0.000 HD
ATOM     25  H   UNL     1       0.830   2.616  19.837  0.00  0.00    +0.000 HD
ENDBRANCH  14  22
ENDBRANCH   1  19
TORSDOF 2
ENDMDL
MODEL 2
REMARK VINA RESULT:      -7.0      4.145      6.840
REMARK  Name = 
REMARK  2 active torsions:
REMARK  status: ('A' for Active; 'I' for Inactive)
REMARK    1  A    between atoms: C_2  and  C_4
REMARK    2  A    between atoms: C_9  and  C_11
REMARK                            x       y       z     vdW  Elec       q    Type
REMARK                         _______ _______ _______ _____ _____    ______ ____
ROOT
ATOM      1  C   UNL     1       4.695   3.252  18.163  0.00  0.00    +0.000 A 
ATOM      2  C   UNL     1       3.970   2.791  17.059  0.00  0.00    +0.000 A 
ATOM      3  C   UNL     1       4.435   2.988  15.758  0.00  0.00    +0.000 A 
ATOM      4  C   UNL     1       5.554   3.777  15.580  0.00  0.00    +0.000 A 
ATOM      5  C   UNL     1       6.148   4.436  16.677  0.00  0.00    +0.000 A 
ATOM      6  C   UNL     1       5.754   4.160  17.979  0.00  0.00    +0.000 A 
ATOM      7  C   UNL     1       7.185   5.427  16.179  0.00  0.00    +0.000 C 
ATOM      8  C   UNL     1       7.201   5.141  14.687  0.00  0.00    +0.000 A 
ATOM      9  C   UNL     1       7.987   5.717  13.704  0.00  0.00    +0.000 A 
ATOM     10  C   UNL     1       7.868   5.228  12.399  0.00  0.00    +0.000 A 
ATOM     11  C   UNL     1       6.985   4.177  12.100  0.00  0.00    +0.000 A 
ATOM     12  C   UNL     1       6.169   3.628  13.091  0.00  0.00    +0.000 A 
ATOM     13  C   UNL     1       6.263   4.137  14.376  0.00  0.00    +0.000 A 
ENDROOT
BRANCH   1  19
ATOM     14  C   UNL     1       1.776   3.423  19.378  0.00  0.00    +0.000 C 
ATOM     15  C   UNL     1       0.887   3.929  20.523  0.00  0.00    +0.000 C 
ATOM     16  C   UNL     1       1.352   3.135  21.726  0.00  0.00    +0.000 C 
ATOM     17  C   UNL     1       2.828   2.883  21.458  0.00  0.00    +0.000 C 
ATOM     18  N   UNL     1       3.077   3.260  20.072  0.00  0.00    +0.000 N 
ATOM     19  C   UNL     1       4.304   2.853  19.539  0.00  0.00    +0.000 C 
ATOM     20  O   UNL     1       5.118   2.187  20.186  0.00  0.00    +0.000 OA
BRANCH  14  22
ATOM     21  N   UNL     1       2.116   5.633  18.356  0.00  0.00    +0.000 N 
ATOM     22  C   UNL     1       1.547   4.395  18.204  0.00  0.00    +0.000 C 
ATOM     23  O   UNL     1       0.874   4.146  17.206  0.00  0.00    +0.000 OA
ATOM     24  H   UNL     1       1.824   6.323  17.672  0.00  0.00    +0.000 HD
ATOM     25  H   UNL     1       2.313   5.990  19.281  0.00  0.00    +0.000 HD
ENDBRANCH  14  22
ENDBRANCH   1  19
TORSDOF 2
ENDMDL
MODEL 3
REMARK VINA RESULT:      -6.8      3.974      6.804
REMARK  Name = 
REMARK  2 active torsions:
REMARK  status: ('A' for Active; 'I' for Inactive)
REMARK    1  A    between atoms: C_2  and  C_4
REMARK    2  A    between atoms: C_9  and  C_11
REMARK                            x       y       z     vdW  Elec       q    Type
REMARK                         _______ _______ _______ _____ _____    ______ ____
ROOT
ATOM      1  C   UNL     1       4.113   5.210  18.093  0.00  0.00    +0.000 A 
ATOM      2  C   UNL     1       5.428   5.671  18.222  0.00  0.00    +0.000 A 
ATOM      3  C   UNL     1       6.303   5.666  17.134  0.00  0.00    +0.000 A 
ATOM      4  C   UNL     1       5.886   5.060  15.966  0.00  0.00    +0.000 A 
ATOM      5  C   UNL     1       4.648   4.386  15.912  0.00  0.00    +0.000 A 
ATOM      6  C   UNL     1       3.735   4.478  16.953  0.00  0.00    +0.000 A 
ATOM      7  C   UNL     1       4.549   3.599  14.616  0.00  0.00    +0.000 C 
ATOM      8  C   UNL     1       5.814   4.027  13.893  0.00  0.00    +0.000 A 
ATOM      9  C   UNL     1       6.255   3.663  12.632  0.00  0.00    +0.000 A 
ATOM     10  C   UNL     1       7.428   4.254  12.151  0.00  0.00    +0.000 A 
ATOM     11  C   UNL     1       8.128   5.198  12.921  0.00  0.00    +0.000 A 
ATOM     12  C   UNL     1       7.696   5.532  14.206  0.00  0.00    +0.000 A 
ATOM     13  C   UNL     1       6.554   4.918  14.695  0.00  0.00    +0.000 A 
ENDROOT
BRANCH   1  19
ATOM     14  C   UNL     1       3.308   3.066  20.280  0.00  0.00    +0.000 C 
ATOM     15  C   UNL     1       2.172   2.305  20.978  0.00  0.00    +0.000 C 
ATOM     16  C   UNL     1       1.426   3.380  21.741  0.00  0.00    +0.000 C 
ATOM     17  C   UNL     1       1.605   4.631  20.895  0.00  0.00    +0.000 C 
ATOM     18  N   UNL     1       2.621   4.324  19.895  0.00  0.00    +0.000 N 
ATOM     19  C   UNL     1       3.134   5.417  19.190  0.00  0.00    +0.000 C 
ATOM     20  O   UNL     1       2.777   6.577  19.416  0.00  0.00    +0.000 OA
BRANCH  14  22
ATOM     21  N   UNL     1       5.133   1.555  19.625  0.00  0.00    +0.000 N 
ATOM     22  C   UNL     1       3.918   2.079  19.266  0.00  0.00    +0.000 C 
ATOM     23  O   UNL     1       3.419   1.785  18.183  0.00  0.00    +0.000 OA
ATOM     24  H   UNL     1       5.612   1.046  18.890  0.00  0.00    +0.000 HD
ATOM     25  H   UNL     1       5.730   2.055  20.271  0.00  0.00    +0.000 HD
ENDBRANCH  14  22
ENDBRANCH   1  19
TORSDOF 2
ENDMDL
MODEL 4
REMARK VINA RESULT:      -6.7      4.128      7.843
REMARK  Name = 
REMARK  2 active torsions:
REMARK  status: ('A' for Active; 'I' for Inactive)
REMARK    1  A    between atoms: C_2  and  C_4
REMARK    2  A    between atoms: C_9  and  C_11
REMARK                            x       y       z     vdW  Elec       q    Type
REMARK                         _______ _______ _______ _____ _____    ______ ____
ROOT
ATOM      1  C   UNL     1      -0.562  11.066  20.220  0.00  0.00    +0.000 A 
ATOM      2  C   UNL     1       0.260  11.497  19.173  0.00  0.00    +0.000 A 
ATOM      3  C   UNL     1       1.178  10.632  18.575  0.00  0.00    +0.000 A 
ATOM      4  C   UNL     1       1.359   9.385  19.138  0.00  0.00    +0.000 A 
ATOM      5  C   UNL     1       0.701   9.037  20.336  0.00  0.00    +0.000 A 
ATOM      6  C   UNL     1      -0.287   9.850  20.874  0.00  0.00    +0.000 A 
ATOM      7  C   UNL     1       1.264   7.732  20.871  0.00  0.00    +0.000 C 
ATOM      8  C   UNL     1       2.211   7.320  19.757  0.00  0.00    +0.000 A 
ATOM      9  C   UNL     1       2.991   6.180  19.661  0.00  0.00    +0.000 A 
ATOM     10  C   UNL     1       3.732   5.989  18.491  0.00  0.00    +0.000 A 
ATOM     11  C   UNL     1       3.677   6.921  17.441  0.00  0.00    +0.000 A 
ATOM     12  C   UNL     1       2.917   8.086  17.562  0.00  0.00    +0.000 A 
ATOM     13  C   UNL     1       2.211   8.291  18.736  0.00  0.00    +0.000 A 
ENDROOT
BRANCH   1  19
ATOM     14  C   UNL     1      -3.415  11.320  18.871  0.00  0.00    +0.000 C 
ATOM     15  C   UNL     1      -4.488  12.257  18.299  0.00  0.00    +0.000 C 
ATOM     16  C   UNL     1      -4.978  13.032  19.504  0.00  0.00    +0.000 C 
ATOM     17  C   UNL     1      -3.760  13.117  20.413  0.00  0.00    +0.000 C 
ATOM     18  N   UNL     1      -2.763  12.202  19.871  0.00  0.00    +0.000 N 
ATOM     19  C   UNL     1      -1.675  11.921  20.703  0.00  0.00    +0.000 C 
ATOM     20  O   UNL     1      -1.574  12.391  21.840  0.00  0.00    +0.000 OA
BRANCH  14  22
ATOM     21  N   UNL     1      -2.324  11.624  16.689  0.00  0.00    +0.000 N 
ATOM     22  C   UNL     1      -2.685  10.719  17.653  0.00  0.00    +0.000 C 
ATOM     23  O   UNL     1      -2.463   9.523  17.487  0.00  0.00    +0.000 OA
ATOM     24  H   UNL     1      -2.003  11.215  15.819  0.00  0.00    +0.000 HD
ATOM     25  H   UNL     1      -2.823  12.500  16.603  0.00  0.00    +0.000 HD
ENDBRANCH  14  22
ENDBRANCH   1  19
TORSDOF 2
ENDMDL
MODEL 5
REMARK VINA RESULT:      -6.7      1.433      2.168
REMARK  Name = 
REMARK  2 active torsions:
REMARK  status: ('A' for Active; 'I' for Inactive)
REMARK    1  A    between atoms: C_2  and  C_4
REMARK    2  A    between atoms: C_9  and  C_11
REMARK                            x       y       z     vdW  Elec       q    Type
REMARK                         _______ _______ _______ _____ _____    ______ ____
ROOT
ATOM      1  C   UNL     1       2.819   6.514  18.643  0.00  0.00    +0.000 A 
ATOM      2  C   UNL     1       2.871   6.558  20.041  0.00  0.00    +0.000 A 
ATOM      3  C   UNL     1       2.106   7.476  20.762  0.00  0.00    +0.000 A 
ATOM      4  C   UNL     1       1.410   8.438  20.057  0.00  0.00    +0.000 A 
ATOM      5  C   UNL     1       1.547   8.539  18.657  0.00  0.00    +0.000 A 
ATOM      6  C   UNL     1       2.219   7.568  17.930  0.00  0.00    +0.000 A 
ATOM      7  C   UNL     1       0.890   9.820  18.170  0.00  0.00    +0.000 C 
ATOM      8  C   UNL     1       0.249  10.347  19.442  0.00  0.00    +0.000 A 
ATOM      9  C   UNL     1      -0.528  11.480  19.615  0.00  0.00    +0.000 A 
ATOM     10  C   UNL     1      -1.071  11.716  20.882  0.00  0.00    +0.000 A 
ATOM     11  C   UNL     1      -0.844  10.823  21.942  0.00  0.00    +0.000 A 
ATOM     12  C   UNL     1      -0.029   9.703  21.769  0.00  0.00    +0.000 A 
ATOM     13  C   UNL     1       0.537   9.489  20.522  0.00  0.00    +0.000 A 
ENDROOT
BRANCH   1  19
ATOM     14  C   UNL     1       2.075   3.447  18.895  0.00  0.00    +0.000 C 
ATOM     15  C   UNL     1       2.577   2.019  19.153  0.00  0.00    +0.000 C 
ATOM     16  C   UNL     1       3.456   1.718  17.958  0.00  0.00    +0.000 C 
ATOM     17  C   UNL     1       4.030   3.072  17.566  0.00  0.00    +0.000 C 
ATOM     18  N   UNL     1       3.286   4.078  18.313  0.00  0.00    +0.000 N 
ATOM     19  C   UNL     1       3.465   5.402  17.901  0.00  0.00    +0.000 C 
ATOM     20  O   UNL     1       4.183   5.705  16.943  0.00  0.00    +0.000 OA
BRANCH  14  22
ATOM     21  N   UNL     1       2.075   3.530  21.352  0.00  0.00    +0.000 N 
ATOM     22  C   UNL     1       1.417   3.907  20.210  0.00  0.00    +0.000 C 
ATOM     23  O   UNL     1       0.358   4.525  20.288  0.00  0.00    +0.000 OA
ATOM     24  H   UNL     1       1.558   3.680  22.212  0.00  0.00    +0.000 HD
ATOM     25  H   UNL     1       2.684   2.723  21.343  0.00  0.00    +0.000 HD
ENDBRANCH  14  22
ENDBRANCH   1  19
TORSDOF 2
ENDMDL
MODEL 6
REMARK VINA RESULT:      -6.6      2.517      3.837
REMARK  Name = 
REMARK  2 active torsions:
REMARK  status: ('A' for Active; 'I' for Inactive)
REMARK    1  A    between atoms: C_2  and  C_4
REMARK    2  A    between atoms: C_9  and  C_11
REMARK                            x       y       z     vdW  Elec       q    Type
REMARK                         _______ _______ _______ _____ _____    ______ ____
ROOT
ATOM      1  C   UNL     1       3.228   5.479  17.990  0.00  0.00    +0.000 A 
ATOM      2  C   UNL     1       3.367   5.281  19.368  0.00  0.00    +0.000 A 
ATOM      3  C   UNL     1       2.783   6.156  20.285  0.00  0.00    +0.000 A 
ATOM      4  C   UNL     1       2.189   7.304  19.801  0.00  0.00    +0.000 A 
ATOM      5  C   UNL     1       2.257   7.621  18.428  0.00  0.00    +0.000 A 
ATOM      6  C   UNL     1       2.742   6.706  17.504  0.00  0.00    +0.000 A 
ATOM      7  C   UNL     1       1.760   9.039  18.204  0.00  0.00    +0.000 C 
ATOM      8  C   UNL     1       1.275   9.423  19.591  0.00  0.00    +0.000 A 
ATOM      9  C   UNL     1       0.677  10.602  20.003  0.00  0.00    +0.000 A 
ATOM     10  C   UNL     1       0.247  10.690  21.331  0.00  0.00    +0.000 A 
ATOM     11  C   UNL     1       0.408   9.610  22.215  0.00  0.00    +0.000 A 
ATOM     12  C   UNL     1       1.045   8.439  21.801  0.00  0.00    +0.000 A 
ATOM     13  C   UNL     1       1.502   8.366  20.495  0.00  0.00    +0.000 A 
ENDROOT
BRANCH   1  19
ATOM     14  C   UNL     1       6.153   5.154  16.821  0.00  0.00    +0.000 C 
ATOM     15  C   UNL     1       7.030   5.026  15.567  0.00  0.00    +0.000 C 
ATOM     16  C   UNL     1       6.635   3.687  14.980  0.00  0.00    +0.000 C 
ATOM     17  C   UNL     1       5.172   3.526  15.367  0.00  0.00    +0.000 C 
ATOM     18  N   UNL     1       4.876   4.568  16.343  0.00  0.00    +0.000 N 
ATOM     19  C   UNL     1       3.667   4.433  17.032  0.00  0.00    +0.000 C 
ATOM     20  O   UNL     1       2.907   3.477  16.853  0.00  0.00    +0.000 OA
BRANCH  14  22
ATOM     21  N   UNL     1       7.024   6.781  18.445  0.00  0.00    +0.000 N 
ATOM     22  C   UNL     1       6.301   6.614  17.293  0.00  0.00    +0.000 C 
ATOM     23  O   UNL     1       5.791   7.586  16.742  0.00  0.00    +0.000 OA
ATOM     24  H   UNL     1       6.977   7.711  18.848  0.00  0.00    +0.000 HD
ATOM     25  H   UNL     1       7.104   6.021  19.109  0.00  0.00    +0.000 HD
ENDBRANCH  14  22
ENDBRANCH   1  19
TORSDOF 2
ENDMDL
MODEL 7
REMARK VINA RESULT:      -6.6      1.696      2.276
REMARK  Name = 
REMARK  2 active torsions:
REMARK  status: ('A' for Active; 'I' for Inactive)
REMARK    1  A    between atoms: C_2  and  C_4
REMARK    2  A    between atoms: C_9  and  C_11
REMARK                            x       y       z     vdW  Elec       q    Type
REMARK                         _______ _______ _______ _____ _____    ______ ____
ROOT
ATOM      1  C   UNL     1       2.433   7.666  18.647  0.00  0.00    +0.000 A 
ATOM      2  C   UNL     1       1.564   8.427  17.858  0.00  0.00    +0.000 A 
ATOM      3  C   UNL     1       0.713   9.374  18.431  0.00  0.00    +0.000 A 
ATOM      4  C   UNL     1       0.644   9.438  19.808  0.00  0.00    +0.000 A 
ATOM      5  C   UNL     1       1.345   8.508  20.604  0.00  0.00    +0.000 A 
ATOM      6  C   UNL     1       2.269   7.637  20.044  0.00  0.00    +0.000 A 
ATOM      7  C   UNL     1       0.899   8.633  22.051  0.00  0.00    +0.000 C 
ATOM      8  C   UNL     1      -0.026   9.837  21.991  0.00  0.00    +0.000 A 
ATOM      9  C   UNL     1      -0.710  10.455  23.024  0.00  0.00    +0.000 A 
ATOM     10  C   UNL     1      -1.448  11.605  22.725  0.00  0.00    +0.000 A 
ATOM     11  C   UNL     1      -1.484  12.121  21.419  0.00  0.00    +0.000 A 
ATOM     12  C   UNL     1      -0.822  11.469  20.377  0.00  0.00    +0.000 A 
ATOM     13  C   UNL     1      -0.120  10.311  20.667  0.00  0.00    +0.000 A 
ENDROOT
BRANCH   1  19
ATOM     14  C   UNL     1       2.682   4.521  18.919  0.00  0.00    +0.000 C 
ATOM     15  C   UNL     1       3.581   3.328  19.275  0.00  0.00    +0.000 C 
ATOM     16  C   UNL     1       4.638   3.329  18.190  0.00  0.00    +0.000 C 
ATOM     17  C   UNL     1       4.789   4.797  17.818  0.00  0.00    +0.000 C 
ATOM     18  N   UNL     1       3.685   5.509  18.449  0.00  0.00    +0.000 N 
ATOM     19  C   UNL     1       3.478   6.822  18.015  0.00  0.00    +0.000 C 
ATOM     20  O   UNL     1       4.164   7.342  17.130  0.00  0.00    +0.000 OA
BRANCH  14  22
ATOM     21  N   UNL     1       2.424   4.886  21.336  0.00  0.00    +0.000 N 
ATOM     22  C   UNL     1       1.769   4.742  20.140  0.00  0.00    +0.000 C 
ATOM     23  O   UNL     1       0.541   4.749  20.108  0.00  0.00    +0.000 OA
ATOM     24  H   UNL     1       1.827   4.858  22.155  0.00  0.00    +0.000 HD
ATOM     25  H   UNL     1       3.351   4.499  21.456  0.00  0.00    +0.000 HD
ENDBRANCH  14  22
ENDBRANCH   1  19
TORSDOF 2
ENDMDL
MODEL 8
REMARK VINA RESULT:      -6.6      4.622      8.464
REMARK  Name = 
REMARK  2 active torsions:
REMARK  status: ('A' for Active; 'I' for Inactive)
REMARK    1  A    between atoms: C_2  and  C_4
REMARK    2  A    between atoms: C_9  and  C_11
REMARK                            x       y       z     vdW  Elec       q    Type
REMARK                         _______ _______ _______ _____ _____    ______ ____
ROOT
ATOM      1  C   UNL     1      -1.409  11.946  20.341  0.00  0.00    +0.000 A 
ATOM      2  C   UNL     1      -0.622  12.338  19.252  0.00  0.00    +0.000 A 
ATOM      3  C   UNL     1       0.306  11.465  18.682  0.00  0.00    +0.000 A 
ATOM      4  C   UNL     1       0.534  10.258  19.310  0.00  0.00    +0.000 A 
ATOM      5  C   UNL     1      -0.088   9.962  20.541  0.00  0.00    +0.000 A 
ATOM      6  C   UNL     1      -1.086  10.777  21.054  0.00  0.00    +0.000 A 
ATOM      7  C   UNL     1       0.523   8.703  21.134  0.00  0.00    +0.000 C 
ATOM      8  C   UNL     1       1.456   8.255  20.023  0.00  0.00    +0.000 A 
ATOM      9  C   UNL     1       2.266   7.132  19.973  0.00  0.00    +0.000 A 
ATOM     10  C   UNL     1       2.986   6.895  18.799  0.00  0.00    +0.000 A 
ATOM     11  C   UNL     1       2.881   7.764  17.700  0.00  0.00    +0.000 A 
ATOM     12  C   UNL     1       2.092   8.914  17.772  0.00  0.00    +0.000 A 
ATOM     13  C   UNL     1       1.406   9.166  18.949  0.00  0.00    +0.000 A 
ENDROOT
BRANCH   1  19
ATOM     14  C   UNL     1      -4.365  11.868  19.211  0.00  0.00    +0.000 C 
ATOM     15  C   UNL     1      -5.536  12.663  18.614  0.00  0.00    +0.000 C 
ATOM     16  C   UNL     1      -5.982  13.564  19.747  0.00  0.00    +0.000 C 
ATOM     17  C   UNL     1      -4.707  13.833  20.533  0.00  0.00    +0.000 C 
ATOM     18  N   UNL     1      -3.698  12.907  20.032  0.00  0.00    +0.000 N 
ATOM     19  C   UNL     1      -2.535  12.798  20.800  0.00  0.00    +0.000 C 
ATOM     20  O   UNL     1      -2.379  13.418  21.856  0.00  0.00    +0.000 OA
BRANCH  14  22
ATOM     21  N   UNL     1      -3.723  11.839  16.838  0.00  0.00    +0.000 N 
ATOM     22  C   UNL     1      -3.693  11.151  18.023  0.00  0.00    +0.000 C 
ATOM     23  O   UNL     1      -3.196  10.029  18.070  0.00  0.00    +0.000 OA
ATOM     24  H   UNL     1      -3.439  11.301  16.026  0.00  0.00    +0.000 HD
ATOM     25  H   UNL     1      -4.439  12.534  16.673  0.00  0.00    +0.000 HD
ENDBRANCH  14  22
ENDBRANCH   1  19
TORSDOF 2
ENDMDL
MODEL 9
REMARK VINA RESULT:      -6.4      1.578      1.930
REMARK  Name = 
REMARK  2 active torsions:
REMARK  status: ('A' for Active; 'I' for Inactive)
REMARK    1  A    between atoms: C_2  and  C_4
REMARK    2  A    between atoms: C_9  and  C_11
REMARK                            x       y       z     vdW  Elec       q    Type
REMARK                         _______ _______ _______ _____ _____    ______ ____
ROOT
ATOM      1  C   UNL     1       3.425   7.249  18.108  0.00  0.00    +0.000 A 
ATOM      2  C   UNL     1       2.680   8.156  17.347  0.00  0.00    +0.000 A 
ATOM      3  C   UNL     1       1.746   9.003  17.946  0.00  0.00    +0.000 A 
ATOM      4  C   UNL     1       1.470   8.822  19.286  0.00  0.00    +0.000 A 
ATOM      5  C   UNL     1       2.049   7.751  19.998  0.00  0.00    +0.000 A 
ATOM      6  C   UNL     1       3.053   6.976  19.437  0.00  0.00    +0.000 A 
ATOM      7  C   UNL     1       1.390   7.626  21.361  0.00  0.00    +0.000 C 
ATOM      8  C   UNL     1       0.476   8.840  21.380  0.00  0.00    +0.000 A 
ATOM      9  C   UNL     1      -0.360   9.279  22.393  0.00  0.00    +0.000 A 
ATOM     10  C   UNL     1      -1.053  10.478  22.198  0.00  0.00    +0.000 A 
ATOM     11  C   UNL     1      -0.895  11.218  21.014  0.00  0.00    +0.000 A 
ATOM     12  C   UNL     1      -0.079  10.749  19.983  0.00  0.00    +0.000 A 
ATOM     13  C   UNL     1       0.580   9.544  20.163  0.00  0.00    +0.000 A 
ENDROOT
BRANCH   1  19
ATOM     14  C   UNL     1       3.320   4.281  17.010  0.00  0.00    +0.000 C 
ATOM     15  C   UNL     1       3.938   2.876  17.041  0.00  0.00    +0.000 C 
ATOM     16  C   UNL     1       5.309   3.065  16.427  0.00  0.00    +0.000 C 
ATOM     17  C   UNL     1       5.696   4.486  16.808  0.00  0.00    +0.000 C 
ATOM     18  N   UNL     1       4.497   5.122  17.341  0.00  0.00    +0.000 N 
ATOM     19  C   UNL     1       4.560   6.510  17.498  0.00  0.00    +0.000 C 
ATOM     20  O   UNL     1       5.554   7.167  17.177  0.00  0.00    +0.000 OA
BRANCH  14  22
ATOM     21  N   UNL     1       2.240   3.695  19.140  0.00  0.00    +0.000 N 
ATOM     22  C   UNL     1       2.050   4.203  17.881  0.00  0.00    +0.000 C 
ATOM     23  O   UNL     1       0.922   4.514  17.507  0.00  0.00    +0.000 OA
ATOM     24  H   UNL     1       1.387   3.483  19.647  0.00  0.00    +0.000 HD
ATOM     25  H   UNL     1       3.023   3.083  19.327  0.00  0.00    +0.000 HD
ENDBRANCH  14  22
ENDBRANCH   1  19
TORSDOF 2
ENDMDL
