MODEL 1
REMARK VINA RESULT:      -8.8      0.000      0.000
REMARK  Name = 
REMARK  4 active torsions:
REMARK  status: ('A' for Active; 'I' for Inactive)
REMARK    1  A    between atoms: C_2  and  C_14
REMARK    2  A    between atoms: N_3  and  C_4
REMARK    3  A    between atoms: C_16  and  C_17
REMARK    4  A    between atoms: C_23  and  N_24
REMARK                            x       y       z     vdW  Elec       q    Type
REMARK                         _______ _______ _______ _____ _____    ______ ____
ROOT
ATOM      1  C   UNL     1       2.581   8.047  17.903  0.00  0.00    +0.000 A 
ATOM      2  C   UNL     1       1.969   6.872  18.284  0.00  0.00    +0.000 A 
ATOM      3  C   UNL     1       2.767   5.696  18.085  0.00  0.00    +0.000 A 
ATOM      4  C   UNL     1       4.037   6.015  17.575  0.00  0.00    +0.000 A 
ATOM      5  S   UNL     1       4.119   7.739  17.272  0.00  0.00    +0.000 S 
ENDROOT
BRANCH   3   6
ATOM      6  C   UNL     1       2.308   4.342  18.443  0.00  0.00    +0.000 A 
ATOM      7  C   UNL     1       2.457   3.269  17.558  0.00  0.00    +0.000 A 
ATOM      8  C   UNL     1       2.298   1.952  17.994  0.00  0.00    +0.000 A 
ATOM      9  C   UNL     1       1.822   1.703  19.276  0.00  0.00    +0.000 A 
ATOM     10  C   UNL     1       1.514   2.768  20.118  0.00  0.00    +0.000 A 
ATOM     11  C   UNL     1       1.773   4.082  19.714  0.00  0.00    +0.000 A 
ENDBRANCH   3   6
BRANCH   4  12
ATOM     12  N   UNL     1       5.145   5.225  17.344  0.00  0.00    +0.000 N 
ATOM     13  C   UNL     1       6.066   4.771  18.401  0.00  0.00    +0.000 C 
ATOM     14  C   UNL     1       7.525   4.975  18.005  0.00  0.00    +0.000 C 
ATOM     15  O   UNL     1       7.816   4.383  16.734  0.00  0.00    +0.000 OA
ATOM     16  C   UNL     1       6.957   4.943  15.725  0.00  0.00    +0.000 C 
ATOM     17  C   UNL     1       5.476   4.669  16.025  0.00  0.00    +0.000 C 
ENDBRANCH   4  12
BRANCH   1  19
ATOM     18  O   UNL     1       2.492  10.317  17.436  0.00  0.00    +0.000 OA
ATOM     19  C   UNL     1       1.995   9.369  18.048  0.00  0.00    +0.000 C 
ATOM     20  N   UNL     1       0.913   9.506  18.918  0.00  0.00    +0.000 N 
ATOM     21  H   UNL     1       0.704   8.708  19.503  0.00  0.00    +0.000 HD
BRANCH  20  22
ATOM     22  C   UNL     1       0.210  10.715  19.158  0.00  0.00    +0.000 A 
ATOM     23  C   UNL     1      -0.953  11.059  18.418  0.00  0.00    +0.000 A 
ATOM     24  C   UNL     1      -1.628  12.271  18.588  0.00  0.00    +0.000 A 
ATOM     25  C   UNL     1      -1.111  13.123  19.531  0.00  0.00    +0.000 A 
ATOM     26  N   UNL     1      -1.543  14.393  19.888  0.00  0.00    +0.000 N 
ATOM     27  C   UNL     1      -0.691  14.887  20.882  0.00  0.00    +0.000 A 
ATOM     28  O   UNL     1      -0.758  15.972  21.424  0.00  0.00    +0.000 OA
ATOM     29  N   UNL     1       0.264  13.880  21.131  0.00  0.00    +0.000 N 
ATOM     30  C   UNL     1       0.001  12.798  20.291  0.00  0.00    +0.000 A 
ATOM     31  C   UNL     1       0.681  11.599  20.148  0.00  0.00    +0.000 A 
ATOM     32  H   UNL     1      -2.317  14.907  19.501  0.00  0.00    +0.000 HD
ATOM     33  H   UNL     1       1.008  13.980  21.799  0.00  0.00    +0.000 HD
ENDBRANCH  20  22
ENDBRANCH   1  19
TORSDOF 4
ENDMDL
MODEL 2
REMARK VINA RESULT:      -8.7      0.676      1.138
REMARK  Name = 
REMARK  4 active torsions:
REMARK  status: ('A' for Active; 'I' for Inactive)
REMARK    1  A    between atoms: C_2  and  C_14
REMARK    2  A    between atoms: N_3  and  C_4
REMARK    3  A    between atoms: C_16  and  C_17
REMARK    4  A    between atoms: C_23  and  N_24
REMARK                            x       y       z     vdW  Elec       q    Type
REMARK                         _______ _______ _______ _____ _____    ______ ____
ROOT
ATOM      1  C   UNL     1       2.565   8.052  18.173  0.00  0.00    +0.000 A 
ATOM      2  C   UNL     1       2.093   6.978  18.898  0.00  0.00    +0.000 A 
ATOM      3  C   UNL     1       2.891   5.790  18.784  0.00  0.00    +0.000 A 
ATOM      4  C   UNL     1       4.020   6.004  17.975  0.00  0.00    +0.000 A 
ATOM      5  S   UNL     1       3.962   7.629  17.322  0.00  0.00    +0.000 S 
ENDROOT
BRANCH   3   6
ATOM      6  C   UNL     1       2.574   4.537  19.491  0.00  0.00    +0.000 A 
ATOM      7  C   UNL     1       2.700   4.436  20.880  0.00  0.00    +0.000 A 
ATOM      8  C   UNL     1       2.132   3.369  21.578  0.00  0.00    +0.000 A 
ATOM      9  C   UNL     1       1.580   2.304  20.876  0.00  0.00    +0.000 A 
ATOM     10  C   UNL     1       1.590   2.313  19.483  0.00  0.00    +0.000 A 
ATOM     11  C   UNL     1       2.066   3.432  18.792  0.00  0.00    +0.000 A 
ENDBRANCH   3   6
BRANCH   4  12
ATOM     12  N   UNL     1       5.097   5.189  17.690  0.00  0.00    +0.000 N 
ATOM     13  C   UNL     1       6.185   4.901  18.641  0.00  0.00    +0.000 C 
ATOM     14  C   UNL     1       7.558   5.043  17.990  0.00  0.00    +0.000 C 
ATOM     15  O   UNL     1       7.658   4.266  16.792  0.00  0.00    +0.000 OA
ATOM     16  C   UNL     1       6.636   4.666  15.862  0.00  0.00    +0.000 C 
ATOM     17  C   UNL     1       5.228   4.439  16.433  0.00  0.00    +0.000 C 
ENDBRANCH   4  12
BRANCH   1  19
ATOM     18  O   UNL     1       2.301  10.187  17.305  0.00  0.00    +0.000 OA
ATOM     19  C   UNL     1       1.958   9.373  18.165  0.00  0.00    +0.000 C 
ATOM     20  N   UNL     1       1.037   9.670  19.171  0.00  0.00    +0.000 N 
ATOM     21  H   UNL     1       0.966   9.000  19.925  0.00  0.00    +0.000 HD
BRANCH  20  22
ATOM     22  C   UNL     1       0.337  10.898  19.296  0.00  0.00    +0.000 A 
ATOM     23  C   UNL     1      -0.954  11.078  18.731  0.00  0.00    +0.000 A 
ATOM     24  C   UNL     1      -1.640  12.295  18.782  0.00  0.00    +0.000 A 
ATOM     25  C   UNL     1      -1.000  13.322  19.430  0.00  0.00    +0.000 A 
ATOM     26  N   UNL     1      -1.416  14.634  19.605  0.00  0.00    +0.000 N 
ATOM     27  C   UNL     1      -0.422  15.323  20.310  0.00  0.00    +0.000 A 
ATOM     28  O   UNL     1      -0.438  16.494  20.632  0.00  0.00    +0.000 OA
ATOM     29  N   UNL     1       0.606  14.393  20.569  0.00  0.00    +0.000 N 
ATOM     30  C   UNL     1       0.244  13.164  20.020  0.00  0.00    +0.000 A 
ATOM     31  C   UNL     1       0.938  11.965  19.990  0.00  0.00    +0.000 A 
ATOM     32  H   UNL     1      -2.269  15.055  19.275  0.00  0.00    +0.000 HD
ATOM     33  H   UNL     1       1.453  14.630  21.055  0.00  0.00    +0.000 HD
ENDBRANCH  20  22
ENDBRANCH   1  19
TORSDOF 4
ENDMDL
MODEL 3
REMARK VINA RESULT:      -8.6      1.790      2.340
REMARK  Name = 
REMARK  4 active torsions:
REMARK  status: ('A' for Active; 'I' for Inactive)
REMARK    1  A    between atoms: C_2  and  C_14
REMARK    2  A    between atoms: N_3  and  C_4
REMARK    3  A    between atoms: C_16  and  C_17
REMARK    4  A    between atoms: C_23  and  N_24
REMARK                            x       y       z     vdW  Elec       q    Type
REMARK                         _______ _______ _______ _____ _____    ______ ____
ROOT
ATOM      1  C   UNL     1       2.365   7.789  18.590  0.00  0.00    +0.000 A 
ATOM      2  C   UNL     1       2.288   6.433  18.829  0.00  0.00    +0.000 A 
ATOM      3  C   UNL     1       3.287   5.655  18.154  0.00  0.00    +0.000 A 
ATOM      4  C   UNL     1       4.164   6.469  17.418  0.00  0.00    +0.000 A 
ATOM      5  S   UNL     1       3.628   8.135  17.522  0.00  0.00    +0.000 S 
ENDROOT
BRANCH   3   6
ATOM      6  C   UNL     1       3.393   4.191  18.289  0.00  0.00    +0.000 A 
ATOM      7  C   UNL     1       4.253   3.610  19.227  0.00  0.00    +0.000 A 
ATOM      8  C   UNL     1       4.145   2.258  19.559  0.00  0.00    +0.000 A 
ATOM      9  C   UNL     1       3.291   1.437  18.833  0.00  0.00    +0.000 A 
ATOM     10  C   UNL     1       2.545   1.969  17.784  0.00  0.00    +0.000 A 
ATOM     11  C   UNL     1       2.579   3.343  17.524  0.00  0.00    +0.000 A 
ENDBRANCH   3   6
BRANCH   4  12
ATOM     12  N   UNL     1       5.316   6.163  16.723  0.00  0.00    +0.000 N 
ATOM     13  C   UNL     1       5.351   5.853  15.283  0.00  0.00    +0.000 C 
ATOM     14  C   UNL     1       6.189   4.610  14.992  0.00  0.00    +0.000 C 
ATOM     15  O   UNL     1       7.498   4.710  15.563  0.00  0.00    +0.000 OA
ATOM     16  C   UNL     1       7.399   4.906  16.985  0.00  0.00    +0.000 C 
ATOM     17  C   UNL     1       6.656   6.205  17.328  0.00  0.00    +0.000 C 
ENDBRANCH   4  12
BRANCH   1  19
ATOM     18  O   UNL     1       0.808   9.504  18.464  0.00  0.00    +0.000 OA
ATOM     19  C   UNL     1       1.494   8.784  19.194  0.00  0.00    +0.000 C 
ATOM     20  N   UNL     1       1.514   8.906  20.584  0.00  0.00    +0.000 N 
ATOM     21  H   UNL     1       2.242   8.397  21.068  0.00  0.00    +0.000 HD
BRANCH  20  22
ATOM     22  C   UNL     1       0.714   9.806  21.333  0.00  0.00    +0.000 A 
ATOM     23  C   UNL     1      -0.102   9.359  22.407  0.00  0.00    +0.000 A 
ATOM     24  C   UNL     1      -0.949  10.212  23.121  0.00  0.00    +0.000 A 
ATOM     25  C   UNL     1      -0.943  11.529  22.737  0.00  0.00    +0.000 A 
ATOM     26  N   UNL     1      -1.696  12.584  23.232  0.00  0.00    +0.000 N 
ATOM     27  C   UNL     1      -1.365  13.739  22.515  0.00  0.00    +0.000 A 
ATOM     28  O   UNL     1      -1.834  14.850  22.666  0.00  0.00    +0.000 OA
ATOM     29  N   UNL     1      -0.382  13.362  21.576  0.00  0.00    +0.000 N 
ATOM     30  C   UNL     1      -0.131  11.999  21.716  0.00  0.00    +0.000 A 
ATOM     31  C   UNL     1       0.723  11.175  21.001  0.00  0.00    +0.000 A 
ATOM     32  H   UNL     1      -2.385  12.553  23.965  0.00  0.00    +0.000 HD
ATOM     33  H   UNL     1       0.025  14.004  20.918  0.00  0.00    +0.000 HD
ENDBRANCH  20  22
ENDBRANCH   1  19
TORSDOF 4
ENDMDL
MODEL 4
REMARK VINA RESULT:      -8.6      1.031      1.456
REMARK  Name = 
REMARK  4 active torsions:
REMARK  status: ('A' for Active; 'I' for Inactive)
REMARK    1  A    between atoms: C_2  and  C_14
REMARK    2  A    between atoms: N_3  and  C_4
REMARK    3  A    between atoms: C_16  and  C_17
REMARK    4  A    between atoms: C_23  and  N_24
REMARK                            x       y       z     vdW  Elec       q    Type
REMARK                         _______ _______ _______ _____ _____    ______ ____
ROOT
ATOM      1  C   UNL     1       2.548   8.021  18.021  0.00  0.00    +0.000 A 
ATOM      2  C   UNL     1       1.950   6.825  18.356  0.00  0.00    +0.000 A 
ATOM      3  C   UNL     1       2.743   5.664  18.067  0.00  0.00    +0.000 A 
ATOM      4  C   UNL     1       3.995   6.015  17.534  0.00  0.00    +0.000 A 
ATOM      5  S   UNL     1       4.065   7.754  17.325  0.00  0.00    +0.000 S 
ENDROOT
BRANCH   3   6
ATOM      6  C   UNL     1       2.297   4.291  18.363  0.00  0.00    +0.000 A 
ATOM      7  C   UNL     1       2.546   3.240  17.474  0.00  0.00    +0.000 A 
ATOM      8  C   UNL     1       2.393   1.911  17.872  0.00  0.00    +0.000 A 
ATOM      9  C   UNL     1       1.826   1.623  19.107  0.00  0.00    +0.000 A 
ATOM     10  C   UNL     1       1.422   2.663  19.942  0.00  0.00    +0.000 A 
ATOM     11  C   UNL     1       1.673   3.990  19.583  0.00  0.00    +0.000 A 
ENDBRANCH   3   6
BRANCH   4  12
ATOM     12  N   UNL     1       5.096   5.243  17.224  0.00  0.00    +0.000 N 
ATOM     13  C   UNL     1       6.006   4.667  18.230  0.00  0.00    +0.000 C 
ATOM     14  C   UNL     1       7.470   4.896  17.865  0.00  0.00    +0.000 C 
ATOM     15  O   UNL     1       7.761   4.442  16.539  0.00  0.00    +0.000 OA
ATOM     16  C   UNL     1       6.914   5.119  15.592  0.00  0.00    +0.000 C 
ATOM     17  C   UNL     1       5.429   4.830  15.853  0.00  0.00    +0.000 C 
ENDBRANCH   4  12
BRANCH   1  19
ATOM     18  O   UNL     1       2.225  10.254  17.483  0.00  0.00    +0.000 OA
ATOM     19  C   UNL     1       1.965   9.331  18.259  0.00  0.00    +0.000 C 
ATOM     20  N   UNL     1       1.166   9.490  19.392  0.00  0.00    +0.000 N 
ATOM     21  H   UNL     1       1.167   8.724  20.052  0.00  0.00    +0.000 HD
BRANCH  20  22
ATOM     22  C   UNL     1       0.504  10.689  19.759  0.00  0.00    +0.000 A 
ATOM     23  C   UNL     1       1.204  11.773  20.356  0.00  0.00    +0.000 A 
ATOM     24  C   UNL     1       0.568  12.941  20.786  0.00  0.00    +0.000 A 
ATOM     25  C   UNL     1      -0.789  12.998  20.587  0.00  0.00    +0.000 A 
ATOM     26  N   UNL     1      -1.679  14.002  20.939  0.00  0.00    +0.000 N 
ATOM     27  C   UNL     1      -2.966  13.608  20.553  0.00  0.00    +0.000 A 
ATOM     28  O   UNL     1      -3.996  14.232  20.713  0.00  0.00    +0.000 OA
ATOM     29  N   UNL     1      -2.834  12.342  19.948  0.00  0.00    +0.000 N 
ATOM     30  C   UNL     1      -1.491  11.971  19.976  0.00  0.00    +0.000 A 
ATOM     31  C   UNL     1      -0.881  10.808  19.533  0.00  0.00    +0.000 A 
ATOM     32  H   UNL     1      -1.471  14.867  21.411  0.00  0.00    +0.000 HD
ATOM     33  H   UNL     1      -3.615  11.820  19.588  0.00  0.00    +0.000 HD
ENDBRANCH  20  22
ENDBRANCH   1  19
TORSDOF 4
ENDMDL
MODEL 5
REMARK VINA RESULT:      -8.5      1.804      2.439
REMARK  Name = 
REMARK  4 active torsions:
REMARK  status: ('A' for Active; 'I' for Inactive)
REMARK    1  A    between atoms: C_2  and  C_14
REMARK    2  A    between atoms: N_3  and  C_4
REMARK    3  A    between atoms: C_16  and  C_17
REMARK    4  A    between atoms: C_23  and  N_24
REMARK                            x       y       z     vdW  Elec       q    Type
REMARK                         _______ _______ _______ _____ _____    ______ ____
ROOT
ATOM      1  C   UNL     1       2.360   7.748  18.536  0.00  0.00    +0.000 A 
ATOM      2  C   UNL     1       2.290   6.393  18.782  0.00  0.00    +0.000 A 
ATOM      3  C   UNL     1       3.311   5.620  18.135  0.00  0.00    +0.000 A 
ATOM      4  C   UNL     1       4.197   6.437  17.413  0.00  0.00    +0.000 A 
ATOM      5  S   UNL     1       3.645   8.099  17.495  0.00  0.00    +0.000 S 
ENDROOT
BRANCH   3   6
ATOM      6  C   UNL     1       3.428   4.158  18.281  0.00  0.00    +0.000 A 
ATOM      7  C   UNL     1       4.288   3.590  19.226  0.00  0.00    +0.000 A 
ATOM      8  C   UNL     1       4.189   2.240  19.569  0.00  0.00    +0.000 A 
ATOM      9  C   UNL     1       3.343   1.407  18.846  0.00  0.00    +0.000 A 
ATOM     10  C   UNL     1       2.596   1.926  17.791  0.00  0.00    +0.000 A 
ATOM     11  C   UNL     1       2.621   3.298  17.520  0.00  0.00    +0.000 A 
ENDBRANCH   3   6
BRANCH   4  12
ATOM     12  N   UNL     1       5.368   6.137  16.746  0.00  0.00    +0.000 N 
ATOM     13  C   UNL     1       5.444   5.863  15.301  0.00  0.00    +0.000 C 
ATOM     14  C   UNL     1       6.278   4.620  15.004  0.00  0.00    +0.000 C 
ATOM     15  O   UNL     1       7.570   4.693  15.616  0.00  0.00    +0.000 OA
ATOM     16  C   UNL     1       7.430   4.853  17.039  0.00  0.00    +0.000 C 
ATOM     17  C   UNL     1       6.688   6.151  17.392  0.00  0.00    +0.000 C 
ENDBRANCH   4  12
BRANCH   1  19
ATOM     18  O   UNL     1       1.291   8.750  20.335  0.00  0.00    +0.000 OA
ATOM     19  C   UNL     1       1.468   8.739  19.114  0.00  0.00    +0.000 C 
ATOM     20  N   UNL     1       0.815   9.611  18.242  0.00  0.00    +0.000 N 
ATOM     21  H   UNL     1       0.890   9.399  17.256  0.00  0.00    +0.000 HD
BRANCH  20  22
ATOM     22  C   UNL     1      -0.068  10.648  18.639  0.00  0.00    +0.000 A 
ATOM     23  C   UNL     1       0.413  11.850  19.226  0.00  0.00    +0.000 A 
ATOM     24  C   UNL     1      -0.436  12.861  19.685  0.00  0.00    +0.000 A 
ATOM     25  C   UNL     1      -1.781  12.640  19.526  0.00  0.00    +0.000 A 
ATOM     26  N   UNL     1      -2.847  13.439  19.912  0.00  0.00    +0.000 N 
ATOM     27  C   UNL     1      -4.037  12.790  19.560  0.00  0.00    +0.000 A 
ATOM     28  O   UNL     1      -5.168  13.189  19.755  0.00  0.00    +0.000 OA
ATOM     29  N   UNL     1      -3.666  11.580  18.938  0.00  0.00    +0.000 N 
ATOM     30  C   UNL     1      -2.276  11.492  18.925  0.00  0.00    +0.000 A 
ATOM     31  C   UNL     1      -1.454  10.481  18.453  0.00  0.00    +0.000 A 
ATOM     32  H   UNL     1      -2.807  14.326  20.386  0.00  0.00    +0.000 HD
ATOM     33  H   UNL     1      -4.334  10.911  18.596  0.00  0.00    +0.000 HD
ENDBRANCH  20  22
ENDBRANCH   1  19
TORSDOF 4
ENDMDL
MODEL 6
REMARK VINA RESULT:      -8.5      1.318      1.717
REMARK  Name = 
REMARK  4 active torsions:
REMARK  status: ('A' for Active; 'I' for Inactive)
REMARK    1  A    between atoms: C_2  and  C_14
REMARK    2  A    between atoms: N_3  and  C_4
REMARK    3  A    between atoms: C_16  and  C_17
REMARK    4  A    between atoms: C_23  and  N_24
REMARK                            x       y       z     vdW  Elec       q    Type
REMARK                         _______ _______ _______ _____ _____    ______ ____
ROOT
ATOM      1  C   UNL     1       2.420   7.741  18.562  0.00  0.00    +0.000 A 
ATOM      2  C   UNL     1       2.345   6.387  18.813  0.00  0.00    +0.000 A 
ATOM      3  C   UNL     1       3.342   5.604  18.140  0.00  0.00    +0.000 A 
ATOM      4  C   UNL     1       4.216   6.413  17.393  0.00  0.00    +0.000 A 
ATOM      5  S   UNL     1       3.679   8.079  17.486  0.00  0.00    +0.000 S 
ENDROOT
BRANCH   3   6
ATOM      6  C   UNL     1       3.450   4.142  18.285  0.00  0.00    +0.000 A 
ATOM      7  C   UNL     1       4.296   3.569  19.241  0.00  0.00    +0.000 A 
ATOM      8  C   UNL     1       4.186   2.219  19.580  0.00  0.00    +0.000 A 
ATOM      9  C   UNL     1       3.346   1.391  18.846  0.00  0.00    +0.000 A 
ATOM     10  C   UNL     1       2.615   1.914  17.782  0.00  0.00    +0.000 A 
ATOM     11  C   UNL     1       2.650   3.286  17.514  0.00  0.00    +0.000 A 
ENDBRANCH   3   6
BRANCH   4  12
ATOM     12  N   UNL     1       5.365   6.102  16.696  0.00  0.00    +0.000 N 
ATOM     13  C   UNL     1       5.402   5.834  15.247  0.00  0.00    +0.000 C 
ATOM     14  C   UNL     1       6.214   4.582  14.924  0.00  0.00    +0.000 C 
ATOM     15  O   UNL     1       7.521   4.636  15.504  0.00  0.00    +0.000 OA
ATOM     16  C   UNL     1       7.418   4.792  16.931  0.00  0.00    +0.000 C 
ATOM     17  C   UNL     1       6.701   6.097  17.309  0.00  0.00    +0.000 C 
ENDBRANCH   4  12
BRANCH   1  19
ATOM     18  O   UNL     1       1.237   8.629  20.349  0.00  0.00    +0.000 OA
ATOM     19  C   UNL     1       1.552   8.741  19.162  0.00  0.00    +0.000 C 
ATOM     20  N   UNL     1       1.078   9.765  18.341  0.00  0.00    +0.000 N 
ATOM     21  H   UNL     1       1.248   9.660  17.349  0.00  0.00    +0.000 HD
BRANCH  20  22
ATOM     22  C   UNL     1       0.244  10.830  18.768  0.00  0.00    +0.000 A 
ATOM     23  C   UNL     1      -1.167  10.682  18.851  0.00  0.00    +0.000 A 
ATOM     24  C   UNL     1      -2.019  11.731  19.207  0.00  0.00    +0.000 A 
ATOM     25  C   UNL     1      -1.415  12.930  19.492  0.00  0.00    +0.000 A 
ATOM     26  N   UNL     1      -2.000  14.140  19.835  0.00  0.00    +0.000 N 
ATOM     27  C   UNL     1      -0.985  15.088  20.010  0.00  0.00    +0.000 A 
ATOM     28  O   UNL     1      -1.126  16.259  20.303  0.00  0.00    +0.000 OA
ATOM     29  N   UNL     1       0.235  14.420  19.776  0.00  0.00    +0.000 N 
ATOM     30  C   UNL     1      -0.039  13.092  19.452  0.00  0.00    +0.000 A 
ATOM     31  C   UNL     1       0.826  12.064  19.112  0.00  0.00    +0.000 A 
ATOM     32  H   UNL     1      -2.982  14.341  19.928  0.00  0.00    +0.000 HD
ATOM     33  H   UNL     1       1.129  14.876  19.824  0.00  0.00    +0.000 HD
ENDBRANCH  20  22
ENDBRANCH   1  19
TORSDOF 4
ENDMDL
MODEL 7
REMARK VINA RESULT:      -8.5      1.573      3.298
REMARK  Name = 
REMARK  4 active torsions:
REMARK  status: ('A' for Active; 'I' for Inactive)
REMARK    1  A    between atoms: C_2  and  C_14
REMARK    2  A    between atoms: N_3  and  C_4
REMARK    3  A    between atoms: C_16  and  C_17
REMARK    4  A    between atoms: C_23  and  N_24
REMARK                            x       y       z     vdW  Elec       q    Type
REMARK                         _______ _______ _______ _____ _____    ______ ____
ROOT
ATOM      1  C   UNL     1       2.473   7.794  18.317  0.00  0.00    +0.000 A 
ATOM      2  C   UNL     1       3.554   7.433  17.541  0.00  0.00    +0.000 A 
ATOM      3  C   UNL     1       3.951   6.061  17.679  0.00  0.00    +0.000 A 
ATOM      4  C   UNL     1       3.107   5.366  18.561  0.00  0.00    +0.000 A 
ATOM      5  S   UNL     1       1.943   6.484  19.245  0.00  0.00    +0.000 S 
ENDROOT
BRANCH   3   6
ATOM      6  C   UNL     1       5.070   5.468  16.926  0.00  0.00    +0.000 A 
ATOM      7  C   UNL     1       5.071   5.443  15.527  0.00  0.00    +0.000 A 
ATOM      8  C   UNL     1       6.236   5.156  14.814  0.00  0.00    +0.000 A 
ATOM      9  C   UNL     1       7.370   4.724  15.493  0.00  0.00    +0.000 A 
ATOM     10  C   UNL     1       7.337   4.588  16.879  0.00  0.00    +0.000 A 
ATOM     11  C   UNL     1       6.201   4.976  17.596  0.00  0.00    +0.000 A 
ENDBRANCH   3   6
BRANCH   4  12
ATOM     12  N   UNL     1       3.049   4.028  18.895  0.00  0.00    +0.000 N 
ATOM     13  C   UNL     1       3.503   3.482  20.186  0.00  0.00    +0.000 C 
ATOM     14  C   UNL     1       4.372   2.241  20.000  0.00  0.00    +0.000 C 
ATOM     15  O   UNL     1       3.723   1.258  19.188  0.00  0.00    +0.000 OA
ATOM     16  C   UNL     1       3.400   1.819  17.903  0.00  0.00    +0.000 C 
ATOM     17  C   UNL     1       2.437   3.009  18.031  0.00  0.00    +0.000 C 
ENDBRANCH   4  12
BRANCH   1  19
ATOM     18  O   UNL     1       2.194   9.930  17.458  0.00  0.00    +0.000 OA
ATOM     19  C   UNL     1       1.859   9.111  18.316  0.00  0.00    +0.000 C 
ATOM     20  N   UNL     1       0.942   9.400  19.328  0.00  0.00    +0.000 N 
ATOM     21  H   UNL     1       0.877   8.727  20.080  0.00  0.00    +0.000 HD
BRANCH  20  22
ATOM     22  C   UNL     1       0.236  10.623  19.461  0.00  0.00    +0.000 A 
ATOM     23  C   UNL     1      -1.059  10.800  18.902  0.00  0.00    +0.000 A 
ATOM     24  C   UNL     1      -1.751  12.013  18.962  0.00  0.00    +0.000 A 
ATOM     25  C   UNL     1      -1.113  13.041  19.610  0.00  0.00    +0.000 A 
ATOM     26  N   UNL     1      -1.535  14.350  19.793  0.00  0.00    +0.000 N 
ATOM     27  C   UNL     1      -0.541  15.040  20.496  0.00  0.00    +0.000 A 
ATOM     28  O   UNL     1      -0.561  16.211  20.824  0.00  0.00    +0.000 OA
ATOM     29  N   UNL     1       0.492  14.114  20.747  0.00  0.00    +0.000 N 
ATOM     30  C   UNL     1       0.135  12.886  20.195  0.00  0.00    +0.000 A 
ATOM     31  C   UNL     1       0.835  11.691  20.157  0.00  0.00    +0.000 A 
ATOM     32  H   UNL     1      -2.391  14.768  19.469  0.00  0.00    +0.000 HD
ATOM     33  H   UNL     1       1.340  14.354  21.231  0.00  0.00    +0.000 HD
ENDBRANCH  20  22
ENDBRANCH   1  19
TORSDOF 4
ENDMDL
MODEL 8
REMARK VINA RESULT:      -8.5      1.434      1.694
REMARK  Name = 
REMARK  4 active torsions:
REMARK  status: ('A' for Active; 'I' for Inactive)
REMARK    1  A    between atoms: C_2  and  C_14
REMARK    2  A    between atoms: N_3  and  C_4
REMARK    3  A    between atoms: C_16  and  C_17
REMARK    4  A    between atoms: C_23  and  N_24
REMARK                            x       y       z     vdW  Elec       q    Type
REMARK                         _______ _______ _______ _____ _____    ______ ____
ROOT
ATOM      1  C   UNL     1       2.497   7.915  18.420  0.00  0.00    +0.000 A 
ATOM      2  C   UNL     1       2.296   6.590  18.743  0.00  0.00    +0.000 A 
ATOM      3  C   UNL     1       3.262   5.690  18.181  0.00  0.00    +0.000 A 
ATOM      4  C   UNL     1       4.242   6.378  17.446  0.00  0.00    +0.000 A 
ATOM      5  S   UNL     1       3.841   8.084  17.408  0.00  0.00    +0.000 S 
ENDROOT
BRANCH   3   6
ATOM      6  C   UNL     1       3.240   4.235  18.418  0.00  0.00    +0.000 A 
ATOM      7  C   UNL     1       2.448   3.386  17.638  0.00  0.00    +0.000 A 
ATOM      8  C   UNL     1       2.641   2.003  17.660  0.00  0.00    +0.000 A 
ATOM      9  C   UNL     1       3.511   1.444  18.588  0.00  0.00    +0.000 A 
ATOM     10  C   UNL     1       4.189   2.267  19.484  0.00  0.00    +0.000 A 
ATOM     11  C   UNL     1       4.071   3.657  19.389  0.00  0.00    +0.000 A 
ENDBRANCH   3   6
BRANCH   4  12
ATOM     12  N   UNL     1       5.401   5.934  16.843  0.00  0.00    +0.000 N 
ATOM     13  C   UNL     1       5.450   5.331  15.499  0.00  0.00    +0.000 C 
ATOM     14  C   UNL     1       6.287   4.056  15.482  0.00  0.00    +0.000 C 
ATOM     15  O   UNL     1       7.591   4.271  16.033  0.00  0.00    +0.000 OA
ATOM     16  C   UNL     1       7.477   4.758  17.382  0.00  0.00    +0.000 C 
ATOM     17  C   UNL     1       6.734   6.101  17.440  0.00  0.00    +0.000 C 
ENDBRANCH   4  12
BRANCH   1  19
ATOM     18  O   UNL     1       1.085   8.896  19.977  0.00  0.00    +0.000 OA
ATOM     19  C   UNL     1       1.681   9.016  18.904  0.00  0.00    +0.000 C 
ATOM     20  N   UNL     1       1.576  10.150  18.097  0.00  0.00    +0.000 N 
ATOM     21  H   UNL     1       1.954  10.071  17.162  0.00  0.00    +0.000 HD
BRANCH  20  22
ATOM     22  C   UNL     1       0.843  11.318  18.428  0.00  0.00    +0.000 A 
ATOM     23  C   UNL     1      -0.574  11.301  18.535  0.00  0.00    +0.000 A 
ATOM     24  C   UNL     1      -1.328  12.449  18.796  0.00  0.00    +0.000 A 
ATOM     25  C   UNL     1      -0.619  13.613  18.961  0.00  0.00    +0.000 A 
ATOM     26  N   UNL     1      -1.093  14.896  19.192  0.00  0.00    +0.000 N 
ATOM     27  C   UNL     1       0.002  15.765  19.268  0.00  0.00    +0.000 A 
ATOM     28  O   UNL     1      -0.034  16.966  19.449  0.00  0.00    +0.000 OA
ATOM     29  N   UNL     1       1.156  14.975  19.088  0.00  0.00    +0.000 N 
ATOM     30  C   UNL     1       0.765  13.651  18.895  0.00  0.00    +0.000 A 
ATOM     31  C   UNL     1       1.534  12.525  18.648  0.00  0.00    +0.000 A 
ATOM     32  H   UNL     1      -2.053  15.189  19.273  0.00  0.00    +0.000 HD
ATOM     33  H   UNL     1       2.087  15.354  19.086  0.00  0.00    +0.000 HD
ENDBRANCH  20  22
ENDBRANCH   1  19
TORSDOF 4
ENDMDL
MODEL 9
REMARK VINA RESULT:      -8.5      1.580      1.843
REMARK  Name = 
REMARK  4 active torsions:
REMARK  status: ('A' for Active; 'I' for Inactive)
REMARK    1  A    between atoms: C_2  and  C_14
REMARK    2  A    between atoms: N_3  and  C_4
REMARK    3  A    between atoms: C_16  and  C_17
REMARK    4  A    between atoms: C_23  and  N_24
REMARK                            x       y       z     vdW  Elec       q    Type
REMARK                         _______ _______ _______ _____ _____    ______ ____
ROOT
ATOM      1  C   UNL     1       2.551   8.047  18.141  0.00  0.00    +0.000 A 
ATOM      2  C   UNL     1       2.299   6.736  18.484  0.00  0.00    +0.000 A 
ATOM      3  C   UNL     1       3.313   5.810  18.067  0.00  0.00    +0.000 A 
ATOM      4  C   UNL     1       4.378   6.465  17.426  0.00  0.00    +0.000 A 
ATOM      5  S   UNL     1       4.003   8.171  17.285  0.00  0.00    +0.000 S 
ENDROOT
BRANCH   3   6
ATOM      6  C   UNL     1       3.248   4.365  18.349  0.00  0.00    +0.000 A 
ATOM      7  C   UNL     1       2.440   3.513  17.588  0.00  0.00    +0.000 A 
ATOM      8  C   UNL     1       2.594   2.127  17.655  0.00  0.00    +0.000 A 
ATOM      9  C   UNL     1       3.439   1.574  18.609  0.00  0.00    +0.000 A 
ATOM     10  C   UNL     1       4.131   2.405  19.486  0.00  0.00    +0.000 A 
ATOM     11  C   UNL     1       4.053   3.795  19.347  0.00  0.00    +0.000 A 
ENDBRANCH   3   6
BRANCH   4  12
ATOM     12  N   UNL     1       5.593   5.992  16.974  0.00  0.00    +0.000 N 
ATOM     13  C   UNL     1       5.808   5.428  15.630  0.00  0.00    +0.000 C 
ATOM     14  C   UNL     1       6.592   4.120  15.684  0.00  0.00    +0.000 C 
ATOM     15  O   UNL     1       7.812   4.265  16.419  0.00  0.00    +0.000 OA
ATOM     16  C   UNL     1       7.529   4.716  17.755  0.00  0.00    +0.000 C 
ATOM     17  C   UNL     1       6.834   6.085  17.757  0.00  0.00    +0.000 C 
ENDBRANCH   4  12
BRANCH   1  19
ATOM     18  O   UNL     1       1.772  10.211  17.833  0.00  0.00    +0.000 OA
ATOM     19  C   UNL     1       1.697   9.171  18.492  0.00  0.00    +0.000 C 
ATOM     20  N   UNL     1       0.857   9.027  19.597  0.00  0.00    +0.000 N 
ATOM     21  H   UNL     1       1.007   8.207  20.170  0.00  0.00    +0.000 HD
BRANCH  20  22
ATOM     22  C   UNL     1      -0.053  10.012  20.060  0.00  0.00    +0.000 A 
ATOM     23  C   UNL     1      -0.952  10.668  19.176  0.00  0.00    +0.000 A 
ATOM     24  C   UNL     1      -1.815  11.686  19.591  0.00  0.00    +0.000 A 
ATOM     25  C   UNL     1      -1.760  12.019  20.922  0.00  0.00    +0.000 A 
ATOM     26  N   UNL     1      -2.464  13.002  21.603  0.00  0.00    +0.000 N 
ATOM     27  C   UNL     1      -2.060  12.986  22.943  0.00  0.00    +0.000 A 
ATOM     28  O   UNL     1      -2.456  13.716  23.831  0.00  0.00    +0.000 OA
ATOM     29  N   UNL     1      -1.101  11.960  23.063  0.00  0.00    +0.000 N 
ATOM     30  C   UNL     1      -0.918  11.372  21.812  0.00  0.00    +0.000 A 
ATOM     31  C   UNL     1      -0.062  10.353  21.426  0.00  0.00    +0.000 A 
ATOM     32  H   UNL     1      -3.138  13.646  21.224  0.00  0.00    +0.000 HD
ATOM     33  H   UNL     1      -0.635  11.740  23.926  0.00  0.00    +0.000 HD
ENDBRANCH  20  22
ENDBRANCH   1  19
TORSDOF 4
ENDMDL
