MODEL 1
REMARK VINA RESULT:      -8.6      0.000      0.000
REMARK  Name = 
REMARK  6 active torsions:
REMARK  status: ('A' for Active; 'I' for Inactive)
REMARK    1  A    between atoms: C_1  and  C_2
REMARK    2  A    between atoms: C_6  and  C_8
REMARK    3  A    between atoms: C_12  and  C_13
REMARK    4  A    between atoms: N_16  and  C_17
REMARK    5  A    between atoms: C_18  and  C_19
REMARK    6  A    between atoms: C_21  and  C_22
REMARK                            x       y       z     vdW  Elec       q    Type
REMARK                         _______ _______ _______ _____ _____    ______ ____
ROOT
ATOM      1  C   UNL     1       2.151   4.518  21.412  0.00  0.00    +0.000 C 
ATOM      2  C   UNL     1       2.411   5.497  20.311  0.00  0.00    +0.000 A 
ATOM      3  N   UNL     1       1.844   6.705  20.397  0.00  0.00    +0.000 NA
ATOM      4  C   UNL     1       2.078   7.582  19.416  0.00  0.00    +0.000 A 
ATOM      5  N   UNL     1       1.458   8.848  19.455  0.00  0.00    +0.000 N 
ATOM      6  C   UNL     1       0.384   9.114  20.284  0.00  0.00    +0.000 C 
ATOM      7  O   UNL     1      -0.280   8.270  20.872  0.00  0.00    +0.000 OA
ATOM      8  C   UNL     1       2.920   7.290  18.365  0.00  0.00    +0.000 A 
ATOM      9  C   UNL     1       3.449   6.010  18.327  0.00  0.00    +0.000 A 
ATOM     10  N   UNL     1       3.198   5.108  19.299  0.00  0.00    +0.000 NA
ATOM     11  H   UNL     1       1.772   9.556  18.809  0.00  0.00    +0.000 HD
ENDROOT
BRANCH   9  12
ATOM     12  C   UNL     1       4.283   5.512  17.212  0.00  0.00    +0.000 A 
ATOM     13  C   UNL     1       4.852   6.377  16.258  0.00  0.00    +0.000 A 
ATOM     14  C   UNL     1       5.620   5.880  15.199  0.00  0.00    +0.000 A 
ATOM     15  C   UNL     1       5.835   4.514  15.085  0.00  0.00    +0.000 A 
ATOM     16  F   UNL     1       6.569   4.045  14.069  0.00  0.00    +0.000 F 
ATOM     17  C   UNL     1       5.303   3.632  16.012  0.00  0.00    +0.000 A 
ATOM     18  C   UNL     1       4.534   4.130  17.068  0.00  0.00    +0.000 A 
ENDBRANCH   9  12
BRANCH   6  19
ATOM     19  C   UNL     1       0.010  10.583  20.378  0.00  0.00    +0.000 C 
ATOM     20  C   UNL     1       1.106  11.440  20.974  0.00  0.00    +0.000 C 
ATOM     21  C   UNL     1       0.868  12.796  20.339  0.00  0.00    +0.000 C 
ATOM     22  O   UNL     1       0.163  12.588  19.115  0.00  0.00    +0.000 OA
ATOM     23  C   UNL     1      -0.112  11.177  18.976  0.00  0.00    +0.000 C 
BRANCH  23  24
ATOM     24  C   UNL     1      -1.441  10.909  18.351  0.00  0.00    +0.000 A 
ATOM     25  C   UNL     1      -1.695  10.009  17.290  0.00  0.00    +0.000 A 
ATOM     26  N   UNL     1      -2.979   9.983  16.936  0.00  0.00    +0.000 NA
ATOM     27  N   UNL     1      -3.552  10.894  17.743  0.00  0.00    +0.000 N 
ATOM     28  C   UNL     1      -4.947  11.216  17.555  0.00  0.00    +0.000 C 
ATOM     29  C   UNL     1      -2.686  11.438  18.657  0.00  0.00    +0.000 A 
ATOM     30  C   UNL     1      -3.073  12.419  19.700  0.00  0.00    +0.000 C 
ENDBRANCH  23  24
ENDBRANCH   6  19
TORSDOF 3
ENDMDL
MODEL 2
REMARK VINA RESULT:      -8.2      0.991      1.723
REMARK  Name = 
REMARK  6 active torsions:
REMARK  status: ('A' for Active; 'I' for Inactive)
REMARK    1  A    between atoms: C_1  and  C_2
REMARK    2  A    between atoms: C_6  and  C_8
REMARK    3  A    between atoms: C_12  and  C_13
REMARK    4  A    between atoms: N_16  and  C_17
REMARK    5  A    between atoms: C_18  and  C_19
REMARK    6  A    between atoms: C_21  and  C_22
REMARK                            x       y       z     vdW  Elec       q    Type
REMARK                         _______ _______ _______ _____ _____    ______ ____
ROOT
ATOM      1  C   UNL     1       1.664   5.329  21.026  0.00  0.00    +0.000 C 
ATOM      2  C   UNL     1       2.157   6.204  19.917  0.00  0.00    +0.000 A 
ATOM      3  N   UNL     1       1.769   7.483  19.906  0.00  0.00    +0.000 NA
ATOM      4  C   UNL     1       2.211   8.267  18.917  0.00  0.00    +0.000 A 
ATOM      5  N   UNL     1       1.785   9.610  18.853  0.00  0.00    +0.000 N 
ATOM      6  C   UNL     1       0.696  10.069  19.572  0.00  0.00    +0.000 C 
ATOM      7  O   UNL     1      -0.132   9.359  20.130  0.00  0.00    +0.000 OA
ATOM      8  C   UNL     1       3.086   7.805  17.958  0.00  0.00    +0.000 A 
ATOM      9  C   UNL     1       3.421   6.461  18.016  0.00  0.00    +0.000 A 
ATOM     10  N   UNL     1       2.959   5.655  18.995  0.00  0.00    +0.000 NA
ATOM     11  H   UNL     1       2.253  10.232  18.213  0.00  0.00    +0.000 HD
ENDROOT
BRANCH   9  12
ATOM     12  C   UNL     1       4.262   5.793  17.000  0.00  0.00    +0.000 A 
ATOM     13  C   UNL     1       4.369   4.392  16.921  0.00  0.00    +0.000 A 
ATOM     14  C   UNL     1       5.188   3.783  15.964  0.00  0.00    +0.000 A 
ATOM     15  C   UNL     1       5.904   4.566  15.069  0.00  0.00    +0.000 A 
ATOM     16  F   UNL     1       6.687   3.977  14.157  0.00  0.00    +0.000 F 
ATOM     17  C   UNL     1       5.813   5.949  15.107  0.00  0.00    +0.000 A 
ATOM     18  C   UNL     1       4.996   6.555  16.065  0.00  0.00    +0.000 A 
ENDBRANCH   9  12
BRANCH   6  19
ATOM     19  C   UNL     1       0.537  11.579  19.577  0.00  0.00    +0.000 C 
ATOM     20  C   UNL     1       1.844  12.317  19.379  0.00  0.00    +0.000 C 
ATOM     21  C   UNL     1       1.413  13.612  18.719  0.00  0.00    +0.000 C 
ATOM     22  O   UNL     1       0.161  13.378  18.073  0.00  0.00    +0.000 OA
ATOM     23  C   UNL     1      -0.251  12.021  18.344  0.00  0.00    +0.000 C 
BRANCH  23  24
ATOM     24  C   UNL     1      -1.727  11.895  18.530  0.00  0.00    +0.000 A 
ATOM     25  C   UNL     1      -2.484  12.461  19.582  0.00  0.00    +0.000 A 
ATOM     26  N   UNL     1      -3.782  12.174  19.492  0.00  0.00    +0.000 NA
ATOM     27  N   UNL     1      -3.862  11.392  18.401  0.00  0.00    +0.000 N 
ATOM     28  C   UNL     1      -5.130  10.793  18.060  0.00  0.00    +0.000 C 
ATOM     29  C   UNL     1      -2.665  11.241  17.747  0.00  0.00    +0.000 A 
ATOM     30  C   UNL     1      -2.488  10.480  16.486  0.00  0.00    +0.000 C 
ENDBRANCH  23  24
ENDBRANCH   6  19
TORSDOF 3
ENDMDL
MODEL 3
REMARK VINA RESULT:      -8.2      4.092      9.462
REMARK  Name = 
REMARK  6 active torsions:
REMARK  status: ('A' for Active; 'I' for Inactive)
REMARK    1  A    between atoms: C_1  and  C_2
REMARK    2  A    between atoms: C_6  and  C_8
REMARK    3  A    between atoms: C_12  and  C_13
REMARK    4  A    between atoms: N_16  and  C_17
REMARK    5  A    between atoms: C_18  and  C_19
REMARK    6  A    between atoms: C_21  and  C_22
REMARK                            x       y       z     vdW  Elec       q    Type
REMARK                         _______ _______ _______ _____ _____    ______ ____
ROOT
ATOM      1  C   UNL     1       2.001  10.838  17.733  0.00  0.00    +0.000 C 
ATOM      2  C   UNL     1       1.412  10.204  18.953  0.00  0.00    +0.000 A 
ATOM      3  N   UNL     1       1.810   8.969  19.274  0.00  0.00    +0.000 NA
ATOM      4  C   UNL     1       1.288   8.402  20.367  0.00  0.00    +0.000 A 
ATOM      5  N   UNL     1       1.654   7.084  20.707  0.00  0.00    +0.000 N 
ATOM      6  C   UNL     1       2.279   6.240  19.807  0.00  0.00    +0.000 C 
ATOM      7  O   UNL     1       2.366   6.434  18.601  0.00  0.00    +0.000 OA
ATOM      8  C   UNL     1       0.404   9.074  21.183  0.00  0.00    +0.000 A 
ATOM      9  C   UNL     1       0.015  10.339  20.772  0.00  0.00    +0.000 A 
ATOM     10  N   UNL     1       0.517  10.910  19.656  0.00  0.00    +0.000 NA
ATOM     11  H   UNL     1       1.391   6.732  21.615  0.00  0.00    +0.000 HD
ENDROOT
BRANCH   9  12
ATOM     12  C   UNL     1      -1.004  11.143  21.481  0.00  0.00    +0.000 A 
ATOM     13  C   UNL     1      -1.208  11.036  22.870  0.00  0.00    +0.000 A 
ATOM     14  C   UNL     1      -2.193  11.790  23.516  0.00  0.00    +0.000 A 
ATOM     15  C   UNL     1      -2.981  12.668  22.784  0.00  0.00    +0.000 A 
ATOM     16  F   UNL     1      -3.923  13.386  23.407  0.00  0.00    +0.000 F 
ATOM     17  C   UNL     1      -2.800  12.811  21.416  0.00  0.00    +0.000 A 
ATOM     18  C   UNL     1      -1.817  12.054  20.773  0.00  0.00    +0.000 A 
ENDBRANCH   9  12
BRANCH   6  19
ATOM     19  C   UNL     1       2.820   4.959  20.416  0.00  0.00    +0.000 C 
ATOM     20  C   UNL     1       1.760   4.143  21.127  0.00  0.00    +0.000 C 
ATOM     21  C   UNL     1       2.275   2.723  21.000  0.00  0.00    +0.000 C 
ATOM     22  O   UNL     1       3.141   2.671  19.865  0.00  0.00    +0.000 OA
ATOM     23  C   UNL     1       3.250   3.999  19.308  0.00  0.00    +0.000 C 
BRANCH  23  24
ATOM     24  C   UNL     1       4.618   4.295  18.790  0.00  0.00    +0.000 A 
ATOM     25  C   UNL     1       5.708   4.778  19.551  0.00  0.00    +0.000 A 
ATOM     26  N   UNL     1       6.806   4.956  18.817  0.00  0.00    +0.000 NA
ATOM     27  N   UNL     1       6.418   4.622  17.573  0.00  0.00    +0.000 N 
ATOM     28  C   UNL     1       7.341   4.806  16.479  0.00  0.00    +0.000 C 
ATOM     29  C   UNL     1       5.129   4.157  17.508  0.00  0.00    +0.000 A 
ATOM     30  C   UNL     1       4.475   3.667  16.271  0.00  0.00    +0.000 C 
ENDBRANCH  23  24
ENDBRANCH   6  19
TORSDOF 3
ENDMDL
MODEL 4
REMARK VINA RESULT:      -7.8      4.125      9.409
REMARK  Name = 
REMARK  6 active torsions:
REMARK  status: ('A' for Active; 'I' for Inactive)
REMARK    1  A    between atoms: C_1  and  C_2
REMARK    2  A    between atoms: C_6  and  C_8
REMARK    3  A    between atoms: C_12  and  C_13
REMARK    4  A    between atoms: N_16  and  C_17
REMARK    5  A    between atoms: C_18  and  C_19
REMARK    6  A    between atoms: C_21  and  C_22
REMARK                            x       y       z     vdW  Elec       q    Type
REMARK                         _______ _______ _______ _____ _____    ______ ____
ROOT
ATOM      1  C   UNL     1       1.991  11.978  18.188  0.00  0.00    +0.000 C 
ATOM      2  C   UNL     1       1.288  11.143  19.211  0.00  0.00    +0.000 A 
ATOM      3  N   UNL     1       1.682   9.875  19.366  0.00  0.00    +0.000 NA
ATOM      4  C   UNL     1       1.056   9.128  20.282  0.00  0.00    +0.000 A 
ATOM      5  N   UNL     1       1.419   7.775  20.439  0.00  0.00    +0.000 N 
ATOM      6  C   UNL     1       2.163   7.100  19.489  0.00  0.00    +0.000 C 
ATOM      7  O   UNL     1       2.379   7.495  18.350  0.00  0.00    +0.000 OA
ATOM      8  C   UNL     1       0.069   9.646  21.092  0.00  0.00    +0.000 A 
ATOM      9  C   UNL     1      -0.307  10.959  20.854  0.00  0.00    +0.000 A 
ATOM     10  N   UNL     1       0.300  11.713  19.914  0.00  0.00    +0.000 NA
ATOM     11  H   UNL     1       1.066   7.273  21.240  0.00  0.00    +0.000 HD
ENDROOT
BRANCH   9  12
ATOM     12  C   UNL     1      -1.421  11.623  21.566  0.00  0.00    +0.000 A 
ATOM     13  C   UNL     1      -1.632  11.456  22.947  0.00  0.00    +0.000 A 
ATOM     14  C   UNL     1      -2.705  12.077  23.594  0.00  0.00    +0.000 A 
ATOM     15  C   UNL     1      -3.576  12.880  22.871  0.00  0.00    +0.000 A 
ATOM     16  F   UNL     1      -4.603  13.470  23.495  0.00  0.00    +0.000 F 
ATOM     17  C   UNL     1      -3.393  13.079  21.511  0.00  0.00    +0.000 A 
ATOM     18  C   UNL     1      -2.321  12.456  20.866  0.00  0.00    +0.000 A 
ENDBRANCH   9  12
BRANCH   6  19
ATOM     19  C   UNL     1       2.668   5.739  19.936  0.00  0.00    +0.000 C 
ATOM     20  C   UNL     1       1.554   4.763  20.250  0.00  0.00    +0.000 C 
ATOM     21  C   UNL     1       2.182   3.415  19.957  0.00  0.00    +0.000 C 
ATOM     22  O   UNL     1       3.249   3.622  19.030  0.00  0.00    +0.000 OA
ATOM     23  C   UNL     1       3.366   5.038  18.771  0.00  0.00    +0.000 C 
BRANCH  23  24
ATOM     24  C   UNL     1       4.784   5.475  18.604  0.00  0.00    +0.000 A 
ATOM     25  C   UNL     1       5.845   5.219  19.503  0.00  0.00    +0.000 A 
ATOM     26  N   UNL     1       7.001   5.739  19.094  0.00  0.00    +0.000 NA
ATOM     27  N   UNL     1       6.683   6.364  17.945  0.00  0.00    +0.000 N 
ATOM     28  C   UNL     1       7.690   7.147  17.272  0.00  0.00    +0.000 C 
ATOM     29  C   UNL     1       5.375   6.186  17.570  0.00  0.00    +0.000 A 
ATOM     30  C   UNL     1       4.781   6.716  16.318  0.00  0.00    +0.000 C 
ENDBRANCH  23  24
ENDBRANCH   6  19
TORSDOF 3
ENDMDL
MODEL 5
REMARK VINA RESULT:      -7.7      4.085      9.305
REMARK  Name = 
REMARK  6 active torsions:
REMARK  status: ('A' for Active; 'I' for Inactive)
REMARK    1  A    between atoms: C_1  and  C_2
REMARK    2  A    between atoms: C_6  and  C_8
REMARK    3  A    between atoms: C_12  and  C_13
REMARK    4  A    between atoms: N_16  and  C_17
REMARK    5  A    between atoms: C_18  and  C_19
REMARK    6  A    between atoms: C_21  and  C_22
REMARK                            x       y       z     vdW  Elec       q    Type
REMARK                         _______ _______ _______ _____ _____    ______ ____
ROOT
ATOM      1  C   UNL     1       2.154  11.313  17.784  0.00  0.00    +0.000 C 
ATOM      2  C   UNL     1       1.520  10.576  18.920  0.00  0.00    +0.000 A 
ATOM      3  N   UNL     1       1.934   9.330  19.171  0.00  0.00    +0.000 NA
ATOM      4  C   UNL     1       1.370   8.671  20.189  0.00  0.00    +0.000 A 
ATOM      5  N   UNL     1       1.754   7.340  20.451  0.00  0.00    +0.000 N 
ATOM      6  C   UNL     1       2.448   6.581  19.527  0.00  0.00    +0.000 C 
ATOM      7  O   UNL     1       2.594   6.867  18.345  0.00  0.00    +0.000 OA
ATOM      8  C   UNL     1       0.426   9.260  21.003  0.00  0.00    +0.000 A 
ATOM      9  C   UNL     1       0.025  10.543  20.665  0.00  0.00    +0.000 A 
ATOM     10  N   UNL     1       0.569  11.207  19.623  0.00  0.00    +0.000 NA
ATOM     11  H   UNL     1       1.453   6.915  21.315  0.00  0.00    +0.000 HD
ENDROOT
BRANCH   9  12
ATOM     12  C   UNL     1      -1.052  11.267  21.375  0.00  0.00    +0.000 A 
ATOM     13  C   UNL     1      -1.924  12.150  20.711  0.00  0.00    +0.000 A 
ATOM     14  C   UNL     1      -2.921  12.840  21.407  0.00  0.00    +0.000 A 
ATOM     15  C   UNL     1      -3.065  12.650  22.775  0.00  0.00    +0.000 A 
ATOM     16  F   UNL     1      -4.021  13.315  23.436  0.00  0.00    +0.000 F 
ATOM     17  C   UNL     1      -2.234  11.778  23.461  0.00  0.00    +0.000 A 
ATOM     18  C   UNL     1      -1.237  11.091  22.763  0.00  0.00    +0.000 A 
ENDBRANCH   9  12
BRANCH   6  19
ATOM     19  C   UNL     1       2.991   5.271  20.069  0.00  0.00    +0.000 C 
ATOM     20  C   UNL     1       2.137   4.683  21.173  0.00  0.00    +0.000 C 
ATOM     21  C   UNL     1       2.388   3.193  21.048  0.00  0.00    +0.000 C 
ATOM     22  O   UNL     1       2.806   2.931  19.707  0.00  0.00    +0.000 OA
ATOM     23  C   UNL     1       2.892   4.186  18.998  0.00  0.00    +0.000 C 
BRANCH  23  24
ATOM     24  C   UNL     1       4.031   4.224  18.034  0.00  0.00    +0.000 A 
ATOM     25  C   UNL     1       3.984   3.831  16.676  0.00  0.00    +0.000 A 
ATOM     26  N   UNL     1       5.158   3.969  16.061  0.00  0.00    +0.000 NA
ATOM     27  N   UNL     1       5.976   4.418  17.030  0.00  0.00    +0.000 N 
ATOM     28  C   UNL     1       7.381   4.575  16.743  0.00  0.00    +0.000 C 
ATOM     29  C   UNL     1       5.337   4.649  18.222  0.00  0.00    +0.000 A 
ATOM     30  C   UNL     1       5.993   5.200  19.433  0.00  0.00    +0.000 C 
ENDBRANCH  23  24
ENDBRANCH   6  19
TORSDOF 3
ENDMDL
MODEL 6
REMARK VINA RESULT:      -7.6      3.938      8.314
REMARK  Name = 
REMARK  6 active torsions:
REMARK  status: ('A' for Active; 'I' for Inactive)
REMARK    1  A    between atoms: C_1  and  C_2
REMARK    2  A    between atoms: C_6  and  C_8
REMARK    3  A    between atoms: C_12  and  C_13
REMARK    4  A    between atoms: N_16  and  C_17
REMARK    5  A    between atoms: C_18  and  C_19
REMARK    6  A    between atoms: C_21  and  C_22
REMARK                            x       y       z     vdW  Elec       q    Type
REMARK                         _______ _______ _______ _____ _____    ______ ____
ROOT
ATOM      1  C   UNL     1      -0.538   9.155  22.971  0.00  0.00    +0.000 C 
ATOM      2  C   UNL     1       0.262   9.237  21.710  0.00  0.00    +0.000 A 
ATOM      3  N   UNL     1       0.743   8.101  21.195  0.00  0.00    +0.000 NA
ATOM      4  C   UNL     1       1.455   8.172  20.066  0.00  0.00    +0.000 A 
ATOM      5  N   UNL     1       2.013   6.997  19.523  0.00  0.00    +0.000 N 
ATOM      6  C   UNL     1       2.127   5.830  20.257  0.00  0.00    +0.000 C 
ATOM      7  O   UNL     1       1.992   5.745  21.472  0.00  0.00    +0.000 OA
ATOM      8  C   UNL     1       1.654   9.365  19.405  0.00  0.00    +0.000 A 
ATOM      9  C   UNL     1       1.151  10.505  20.012  0.00  0.00    +0.000 A 
ATOM     10  N   UNL     1       0.453  10.447  21.167  0.00  0.00    +0.000 NA
ATOM     11  H   UNL     1       2.398   7.034  18.591  0.00  0.00    +0.000 HD
ENDROOT
BRANCH   9  12
ATOM     12  C   UNL     1       1.372  11.868  19.483  0.00  0.00    +0.000 A 
ATOM     13  C   UNL     1       2.249  12.121  18.411  0.00  0.00    +0.000 A 
ATOM     14  C   UNL     1       2.458  13.422  17.942  0.00  0.00    +0.000 A 
ATOM     15  C   UNL     1       1.789  14.485  18.532  0.00  0.00    +0.000 A 
ATOM     16  F   UNL     1       1.995  15.728  18.080  0.00  0.00    +0.000 F 
ATOM     17  C   UNL     1       0.908  14.274  19.582  0.00  0.00    +0.000 A 
ATOM     18  C   UNL     1       0.701  12.973  20.050  0.00  0.00    +0.000 A 
ENDBRANCH   9  12
BRANCH   6  19
ATOM     19  C   UNL     1       2.515   4.609  19.443  0.00  0.00    +0.000 C 
ATOM     20  C   UNL     1       1.323   3.830  18.930  0.00  0.00    +0.000 C 
ATOM     21  C   UNL     1       1.848   3.189  17.661  0.00  0.00    +0.000 C 
ATOM     22  O   UNL     1       2.944   3.977  17.194  0.00  0.00    +0.000 OA
ATOM     23  C   UNL     1       3.177   5.046  18.137  0.00  0.00    +0.000 C 
BRANCH  23  24
ATOM     24  C   UNL     1       4.627   5.359  18.304  0.00  0.00    +0.000 A 
ATOM     25  C   UNL     1       5.486   4.819  19.290  0.00  0.00    +0.000 A 
ATOM     26  N   UNL     1       6.730   5.288  19.199  0.00  0.00    +0.000 NA
ATOM     27  N   UNL     1       6.670   6.159  18.176  0.00  0.00    +0.000 N 
ATOM     28  C   UNL     1       7.834   6.953  17.864  0.00  0.00    +0.000 C 
ATOM     29  C   UNL     1       5.444   6.197  17.561  0.00  0.00    +0.000 A 
ATOM     30  C   UNL     1       5.127   7.026  16.372  0.00  0.00    +0.000 C 
ENDBRANCH  23  24
ENDBRANCH   6  19
TORSDOF 3
ENDMDL
MODEL 7
REMARK VINA RESULT:      -7.5      4.313      9.373
REMARK  Name = 
REMARK  6 active torsions:
REMARK  status: ('A' for Active; 'I' for Inactive)
REMARK    1  A    between atoms: C_1  and  C_2
REMARK    2  A    between atoms: C_6  and  C_8
REMARK    3  A    between atoms: C_12  and  C_13
REMARK    4  A    between atoms: N_16  and  C_17
REMARK    5  A    between atoms: C_18  and  C_19
REMARK    6  A    between atoms: C_21  and  C_22
REMARK                            x       y       z     vdW  Elec       q    Type
REMARK                         _______ _______ _______ _____ _____    ______ ____
ROOT
ATOM      1  C   UNL     1       2.080  11.743  18.010  0.00  0.00    +0.000 C 
ATOM      2  C   UNL     1       1.497  11.034  19.191  0.00  0.00    +0.000 A 
ATOM      3  N   UNL     1       1.812   9.748  19.372  0.00  0.00    +0.000 NA
ATOM      4  C   UNL     1       1.294   9.114  20.429  0.00  0.00    +0.000 A 
ATOM      5  N   UNL     1       1.572   7.745  20.623  0.00  0.00    +0.000 N 
ATOM      6  C   UNL     1       2.091   6.953  19.615  0.00  0.00    +0.000 C 
ATOM      7  O   UNL     1       2.142   7.260  18.431  0.00  0.00    +0.000 OA
ATOM      8  C   UNL     1       0.500   9.764  21.350  0.00  0.00    +0.000 A 
ATOM      9  C   UNL     1       0.193  11.089  21.082  0.00  0.00    +0.000 A 
ATOM     10  N   UNL     1       0.689  11.730  20.003  0.00  0.00    +0.000 NA
ATOM     11  H   UNL     1       1.322   7.325  21.504  0.00  0.00    +0.000 HD
ENDROOT
BRANCH   9  12
ATOM     12  C   UNL     1      -0.730  11.889  21.916  0.00  0.00    +0.000 A 
ATOM     13  C   UNL     1      -0.771  13.294  21.849  0.00  0.00    +0.000 A 
ATOM     14  C   UNL     1      -1.638  14.031  22.664  0.00  0.00    +0.000 A 
ATOM     15  C   UNL     1      -2.480  13.373  23.548  0.00  0.00    +0.000 A 
ATOM     16  F   UNL     1      -3.306  14.083  24.326  0.00  0.00    +0.000 F 
ATOM     17  C   UNL     1      -2.479  11.989  23.632  0.00  0.00    +0.000 A 
ATOM     18  C   UNL     1      -1.610  11.255  22.819  0.00  0.00    +0.000 A 
ENDBRANCH   9  12
BRANCH   6  19
ATOM     19  C   UNL     1       2.557   5.581  20.071  0.00  0.00    +0.000 C 
ATOM     20  C   UNL     1       1.416   4.642  20.400  0.00  0.00    +0.000 C 
ATOM     21  C   UNL     1       2.001   3.274  20.115  0.00  0.00    +0.000 C 
ATOM     22  O   UNL     1       3.069   3.440  19.180  0.00  0.00    +0.000 OA
ATOM     23  C   UNL     1       3.228   4.849  18.909  0.00  0.00    +0.000 C 
BRANCH  23  24
ATOM     24  C   UNL     1       4.656   5.242  18.730  0.00  0.00    +0.000 A 
ATOM     25  C   UNL     1       5.729   4.889  19.582  0.00  0.00    +0.000 A 
ATOM     26  N   UNL     1       6.894   5.390  19.174  0.00  0.00    +0.000 NA
ATOM     27  N   UNL     1       6.572   6.098  18.077  0.00  0.00    +0.000 N 
ATOM     28  C   UNL     1       7.593   6.884  17.426  0.00  0.00    +0.000 C 
ATOM     29  C   UNL     1       5.249   5.995  17.727  0.00  0.00    +0.000 A 
ATOM     30  C   UNL     1       4.646   6.626  16.528  0.00  0.00    +0.000 C 
ENDBRANCH  23  24
ENDBRANCH   6  19
TORSDOF 3
ENDMDL
MODEL 8
REMARK VINA RESULT:      -7.3      4.062      6.144
REMARK  Name = 
REMARK  6 active torsions:
REMARK  status: ('A' for Active; 'I' for Inactive)
REMARK    1  A    between atoms: C_1  and  C_2
REMARK    2  A    between atoms: C_6  and  C_8
REMARK    3  A    between atoms: C_12  and  C_13
REMARK    4  A    between atoms: N_16  and  C_17
REMARK    5  A    between atoms: C_18  and  C_19
REMARK    6  A    between atoms: C_21  and  C_22
REMARK                            x       y       z     vdW  Elec       q    Type
REMARK                         _______ _______ _______ _____ _____    ______ ____
ROOT
ATOM      1  C   UNL     1      -2.483  11.486  17.583  0.00  0.00    +0.000 C 
ATOM      2  C   UNL     1      -1.537  11.161  18.695  0.00  0.00    +0.000 A 
ATOM      3  N   UNL     1      -1.646  11.850  19.835  0.00  0.00    +0.000 NA
ATOM      4  C   UNL     1      -0.804  11.558  20.832  0.00  0.00    +0.000 A 
ATOM      5  N   UNL     1      -0.865  12.297  22.031  0.00  0.00    +0.000 N 
ATOM      6  C   UNL     1      -1.533  13.505  22.115  0.00  0.00    +0.000 C 
ATOM      7  O   UNL     1      -1.923  14.165  21.159  0.00  0.00    +0.000 OA
ATOM      8  C   UNL     1       0.121  10.542  20.728  0.00  0.00    +0.000 A 
ATOM      9  C   UNL     1       0.196   9.890  19.507  0.00  0.00    +0.000 A 
ATOM     10  N   UNL     1      -0.632  10.195  18.486  0.00  0.00    +0.000 NA
ATOM     11  H   UNL     1      -0.350  11.960  22.829  0.00  0.00    +0.000 HD
ENDROOT
BRANCH   9  12
ATOM     12  C   UNL     1       1.205   8.852  19.205  0.00  0.00    +0.000 A 
ATOM     13  C   UNL     1       1.525   7.830  20.119  0.00  0.00    +0.000 A 
ATOM     14  C   UNL     1       2.500   6.872  19.820  0.00  0.00    +0.000 A 
ATOM     15  C   UNL     1       3.160   6.918  18.600  0.00  0.00    +0.000 A 
ATOM     16  F   UNL     1       4.093   6.000  18.320  0.00  0.00    +0.000 F 
ATOM     17  C   UNL     1       2.863   7.901  17.669  0.00  0.00    +0.000 A 
ATOM     18  C   UNL     1       1.891   8.859  17.971  0.00  0.00    +0.000 A 
ENDBRANCH   9  12
BRANCH   6  19
ATOM     19  C   UNL     1      -1.706  14.032  23.528  0.00  0.00    +0.000 C 
ATOM     20  C   UNL     1      -0.737  15.142  23.874  0.00  0.00    +0.000 C 
ATOM     21  C   UNL     1      -1.493  15.951  24.910  0.00  0.00    +0.000 C 
ATOM     22  O   UNL     1      -2.888  15.715  24.716  0.00  0.00    +0.000 OA
ATOM     23  C   UNL     1      -3.049  14.751  23.653  0.00  0.00    +0.000 C 
BRANCH  23  24
ATOM     24  C   UNL     1      -4.183  13.812  23.896  0.00  0.00    +0.000 A 
ATOM     25  C   UNL     1      -4.115  12.591  24.607  0.00  0.00    +0.000 A 
ATOM     26  N   UNL     1      -5.287  11.960  24.657  0.00  0.00    +0.000 NA
ATOM     27  N   UNL     1      -6.109  12.754  23.947  0.00  0.00    +0.000 N 
ATOM     28  C   UNL     1      -7.460  12.315  23.693  0.00  0.00    +0.000 C 
ATOM     29  C   UNL     1      -5.513  13.913  23.517  0.00  0.00    +0.000 A 
ATOM     30  C   UNL     1      -6.210  14.986  22.767  0.00  0.00    +0.000 C 
ENDBRANCH  23  24
ENDBRANCH   6  19
TORSDOF 3
ENDMDL
MODEL 9
REMARK VINA RESULT:      -7.3      4.205      9.444
REMARK  Name = 
REMARK  6 active torsions:
REMARK  status: ('A' for Active; 'I' for Inactive)
REMARK    1  A    between atoms: C_1  and  C_2
REMARK    2  A    between atoms: C_6  and  C_8
REMARK    3  A    between atoms: C_12  and  C_13
REMARK    4  A    between atoms: N_16  and  C_17
REMARK    5  A    between atoms: C_18  and  C_19
REMARK    6  A    between atoms: C_21  and  C_22
REMARK                            x       y       z     vdW  Elec       q    Type
REMARK                         _______ _______ _______ _____ _____    ______ ____
ROOT
ATOM      1  C   UNL     1       1.642  12.924  18.520  0.00  0.00    +0.000 C 
ATOM      2  C   UNL     1       0.929  11.961  19.415  0.00  0.00    +0.000 A 
ATOM      3  N   UNL     1       1.383  10.705  19.476  0.00  0.00    +0.000 NA
ATOM      4  C   UNL     1       0.749   9.844  20.278  0.00  0.00    +0.000 A 
ATOM      5  N   UNL     1       1.176   8.501  20.331  0.00  0.00    +0.000 N 
ATOM      6  C   UNL     1       2.010   7.958  19.370  0.00  0.00    +0.000 C 
ATOM      7  O   UNL     1       2.268   8.471  18.288  0.00  0.00    +0.000 OA
ATOM      8  C   UNL     1      -0.311  10.232  21.069  0.00  0.00    +0.000 A 
ATOM      9  C   UNL     1      -0.745  11.541  20.932  0.00  0.00    +0.000 A 
ATOM     10  N   UNL     1      -0.127  12.411  20.105  0.00  0.00    +0.000 NA
ATOM     11  H   UNL     1       0.807   7.908  21.058  0.00  0.00    +0.000 HD
ENDROOT
BRANCH   9  12
ATOM     12  C   UNL     1      -1.932  12.077  21.632  0.00  0.00    +0.000 A 
ATOM     13  C   UNL     1      -2.924  12.818  20.962  0.00  0.00    +0.000 A 
ATOM     14  C   UNL     1      -4.028  13.334  21.650  0.00  0.00    +0.000 A 
ATOM     15  C   UNL     1      -4.159  13.108  23.013  0.00  0.00    +0.000 A 
ATOM     16  F   UNL     1      -5.216  13.606  23.665  0.00  0.00    +0.000 F 
ATOM     17  C   UNL     1      -3.210  12.371  23.704  0.00  0.00    +0.000 A 
ATOM     18  C   UNL     1      -2.106  11.859  23.016  0.00  0.00    +0.000 A 
ENDBRANCH   9  12
BRANCH   6  19
ATOM     19  C   UNL     1       2.563   6.588  19.719  0.00  0.00    +0.000 C 
ATOM     20  C   UNL     1       1.579   5.723  20.478  0.00  0.00    +0.000 C 
ATOM     21  C   UNL     1       1.987   4.315  20.092  0.00  0.00    +0.000 C 
ATOM     22  O   UNL     1       2.667   4.385  18.838  0.00  0.00    +0.000 OA
ATOM     23  C   UNL     1       2.765   5.771  18.443  0.00  0.00    +0.000 C 
BRANCH  23  24
ATOM     24  C   UNL     1       4.053   6.083  17.758  0.00  0.00    +0.000 A 
ATOM     25  C   UNL     1       4.195   6.758  16.522  0.00  0.00    +0.000 A 
ATOM     26  N   UNL     1       5.468   6.889  16.153  0.00  0.00    +0.000 NA
ATOM     27  N   UNL     1       6.151   6.268  17.132  0.00  0.00    +0.000 N 
ATOM     28  C   UNL     1       7.580   6.116  17.001  0.00  0.00    +0.000 C 
ATOM     29  C   UNL     1       5.355   5.818  18.154  0.00  0.00    +0.000 A 
ATOM     30  C   UNL     1       5.859   5.154  19.381  0.00  0.00    +0.000 C 
ENDBRANCH  23  24
ENDBRANCH   6  19
TORSDOF 3
ENDMDL
