MODEL 1
REMARK VINA RESULT:      -9.5      0.000      0.000
REMARK  Name = 
REMARK  4 active torsions:
REMARK  status: ('A' for Active; 'I' for Inactive)
REMARK    1  A    between atoms: C_1  and  C_2
REMARK    2  A    between atoms: C_4  and  C_5
REMARK    3  A    between atoms: N_7  and  C_8
REMARK    4  A    between atoms: C_13  and  N_14
REMARK                            x       y       z     vdW  Elec       q    Type
REMARK                         _______ _______ _______ _____ _____    ______ ____
ROOT
ATOM      1  C   UNL     1       3.988   6.046  17.441  0.00  0.00    +0.000 C 
ATOM      2  O   UNL     1       4.070   7.165  16.943  0.00  0.00    +0.000 OA
ATOM      3  N   UNL     1       4.643   4.912  16.984  0.00  0.00    +0.000 N 
ATOM      4  H   UNL     1       4.424   4.018  17.428  0.00  0.00    +0.000 HD
ENDROOT
BRANCH   1   8
ATOM      5  C   UNL     1       1.349   8.068  21.174  0.00  0.00    +0.000 C 
ATOM      6  C   UNL     1       1.820   6.892  20.374  0.00  0.00    +0.000 A 
ATOM      7  C   UNL     1       2.743   7.030  19.351  0.00  0.00    +0.000 A 
ATOM      8  C   UNL     1       3.112   5.887  18.636  0.00  0.00    +0.000 A 
ATOM      9  C   UNL     1       2.550   4.619  18.961  0.00  0.00    +0.000 A 
ATOM     10  C   UNL     1       2.857   3.387  18.322  0.00  0.00    +0.000 A 
ATOM     11  C   UNL     1       2.229   2.195  18.687  0.00  0.00    +0.000 A 
ATOM     12  C   UNL     1       1.291   2.205  19.705  0.00  0.00    +0.000 A 
ATOM     13  C   UNL     1       0.997   3.404  20.355  0.00  0.00    +0.000 A 
ATOM     14  C   UNL     1       1.613   4.603  20.010  0.00  0.00    +0.000 A 
ATOM     15  N   UNL     1       1.266   5.703  20.695  0.00  0.00    +0.000 NA
ENDBRANCH   1   8
BRANCH   3  16
ATOM     16  C   UNL     1       5.494   4.824  15.841  0.00  0.00    +0.000 A 
ATOM     17  C   UNL     1       5.097   4.154  14.675  0.00  0.00    +0.000 A 
ATOM     18  C   UNL     1       5.956   4.029  13.585  0.00  0.00    +0.000 A 
ATOM     19  C   UNL     1       7.202   4.609  13.662  0.00  0.00    +0.000 A 
ATOM     20  N   UNL     1       7.632   5.290  14.741  0.00  0.00    +0.000 NA
ATOM     21  C   UNL     1       6.787   5.384  15.817  0.00  0.00    +0.000 A 
BRANCH  21  22
ATOM     22  N   UNL     1       7.327   6.055  16.950  0.00  0.00    +0.000 N 
ATOM     23  C   UNL     1       7.646   5.480  18.157  0.00  0.00    +0.000 A 
ATOM     24  N   UNL     1       8.050   6.394  19.010  0.00  0.00    +0.000 NA
ATOM     25  C   UNL     1       7.976   7.539  18.279  0.00  0.00    +0.000 A 
ATOM     26  N   UNL     1       7.576   7.398  17.012  0.00  0.00    +0.000 NA
ENDBRANCH  21  22
ENDBRANCH   3  16
TORSDOF 3
ENDMDL
MODEL 2
REMARK VINA RESULT:      -9.4      1.310      2.811
REMARK  Name = 
REMARK  4 active torsions:
REMARK  status: ('A' for Active; 'I' for Inactive)
REMARK    1  A    between atoms: C_1  and  C_2
REMARK    2  A    between atoms: C_4  and  C_5
REMARK    3  A    between atoms: N_7  and  C_8
REMARK    4  A    between atoms: C_13  and  N_14
REMARK                            x       y       z     vdW  Elec       q    Type
REMARK                         _______ _______ _______ _____ _____    ______ ____
ROOT
ATOM      1  C   UNL     1       3.935   3.846  17.638  0.00  0.00    +0.000 C 
ATOM      2  O   UNL     1       4.134   2.660  17.393  0.00  0.00    +0.000 OA
ATOM      3  N   UNL     1       4.487   4.915  16.947  0.00  0.00    +0.000 N 
ATOM      4  H   UNL     1       4.317   5.858  17.302  0.00  0.00    +0.000 HD
ENDROOT
BRANCH   1   8
ATOM      5  C   UNL     1       1.579   2.474  21.827  0.00  0.00    +0.000 C 
ATOM      6  C   UNL     1       1.960   3.495  20.799  0.00  0.00    +0.000 A 
ATOM      7  C   UNL     1       2.690   3.156  19.672  0.00  0.00    +0.000 A 
ATOM      8  C   UNL     1       3.026   4.171  18.772  0.00  0.00    +0.000 A 
ATOM      9  C   UNL     1       2.620   5.515  19.016  0.00  0.00    +0.000 A 
ATOM     10  C   UNL     1       2.884   6.627  18.172  0.00  0.00    +0.000 A 
ATOM     11  C   UNL     1       2.475   7.919  18.510  0.00  0.00    +0.000 A 
ATOM     12  C   UNL     1       1.783   8.124  19.692  0.00  0.00    +0.000 A 
ATOM     13  C   UNL     1       1.499   7.037  20.519  0.00  0.00    +0.000 A 
ATOM     14  C   UNL     1       1.894   5.742  20.200  0.00  0.00    +0.000 A 
ATOM     15  N   UNL     1       1.572   4.762  21.057  0.00  0.00    +0.000 NA
ENDBRANCH   1   8
BRANCH   3  16
ATOM     16  C   UNL     1       5.409   4.839  15.859  0.00  0.00    +0.000 A 
ATOM     17  C   UNL     1       5.034   4.334  14.606  0.00  0.00    +0.000 A 
ATOM     18  C   UNL     1       5.955   4.217  13.568  0.00  0.00    +0.000 A 
ATOM     19  C   UNL     1       7.247   4.639  13.786  0.00  0.00    +0.000 A 
ATOM     20  N   UNL     1       7.663   5.160  14.956  0.00  0.00    +0.000 NA
ATOM     21  C   UNL     1       6.753   5.247  15.978  0.00  0.00    +0.000 A 
BRANCH  21  22
ATOM     22  N   UNL     1       7.273   5.741  17.207  0.00  0.00    +0.000 N 
ATOM     23  C   UNL     1       7.628   7.043  17.472  0.00  0.00    +0.000 A 
ATOM     24  N   UNL     1       8.144   7.143  18.677  0.00  0.00    +0.000 NA
ATOM     25  C   UNL     1       8.081   5.864  19.137  0.00  0.00    +0.000 A 
ATOM     26  N   UNL     1       7.533   4.971  18.307  0.00  0.00    +0.000 NA
ENDBRANCH  21  22
ENDBRANCH   3  16
TORSDOF 3
ENDMDL
MODEL 3
REMARK VINA RESULT:      -9.0      0.884      2.687
REMARK  Name = 
REMARK  4 active torsions:
REMARK  status: ('A' for Active; 'I' for Inactive)
REMARK    1  A    between atoms: C_1  and  C_2
REMARK    2  A    between atoms: C_4  and  C_5
REMARK    3  A    between atoms: N_7  and  C_8
REMARK    4  A    between atoms: C_13  and  N_14
REMARK                            x       y       z     vdW  Elec       q    Type
REMARK                         _______ _______ _______ _____ _____    ______ ____
ROOT
ATOM      1  C   UNL     1       4.016   5.816  17.458  0.00  0.00    +0.000 C 
ATOM      2  O   UNL     1       4.045   6.945  16.979  0.00  0.00    +0.000 OA
ATOM      3  N   UNL     1       4.707   4.716  16.971  0.00  0.00    +0.000 N 
ATOM      4  H   UNL     1       4.532   3.807  17.404  0.00  0.00    +0.000 HD
ENDROOT
BRANCH   1   8
ATOM      5  C   UNL     1       2.554   2.925  21.265  0.00  0.00    +0.000 C 
ATOM      6  C   UNL     1       2.536   4.214  20.502  0.00  0.00    +0.000 A 
ATOM      7  C   UNL     1       3.216   4.360  19.304  0.00  0.00    +0.000 A 
ATOM      8  C   UNL     1       3.170   5.603  18.666  0.00  0.00    +0.000 A 
ATOM      9  C   UNL     1       2.438   6.682  19.239  0.00  0.00    +0.000 A 
ATOM     10  C   UNL     1       2.301   7.981  18.679  0.00  0.00    +0.000 A 
ATOM     11  C   UNL     1       1.589   8.990  19.332  0.00  0.00    +0.000 A 
ATOM     12  C   UNL     1       0.988   8.719  20.550  0.00  0.00    +0.000 A 
ATOM     13  C   UNL     1       1.096   7.441  21.098  0.00  0.00    +0.000 A 
ATOM     14  C   UNL     1       1.798   6.420  20.464  0.00  0.00    +0.000 A 
ATOM     15  N   UNL     1       1.843   5.224  21.070  0.00  0.00    +0.000 NA
ENDBRANCH   1   8
BRANCH   3  16
ATOM     16  C   UNL     1       5.540   4.680  15.812  0.00  0.00    +0.000 A 
ATOM     17  C   UNL     1       5.160   3.995  14.650  0.00  0.00    +0.000 A 
ATOM     18  C   UNL     1       6.003   3.923  13.543  0.00  0.00    +0.000 A 
ATOM     19  C   UNL     1       7.217   4.571  13.600  0.00  0.00    +0.000 A 
ATOM     20  N   UNL     1       7.628   5.271  14.675  0.00  0.00    +0.000 NA
ATOM     21  C   UNL     1       6.799   5.312  15.767  0.00  0.00    +0.000 A 
BRANCH  21  22
ATOM     22  N   UNL     1       7.322   6.008  16.892  0.00  0.00    +0.000 N 
ATOM     23  C   UNL     1       7.663   5.452  18.103  0.00  0.00    +0.000 A 
ATOM     24  N   UNL     1       8.042   6.384  18.948  0.00  0.00    +0.000 NA
ATOM     25  C   UNL     1       7.930   7.521  18.209  0.00  0.00    +0.000 A 
ATOM     26  N   UNL     1       7.530   7.359  16.944  0.00  0.00    +0.000 NA
ENDBRANCH  21  22
ENDBRANCH   3  16
TORSDOF 3
ENDMDL
MODEL 4
REMARK VINA RESULT:      -8.0      1.175      1.227
REMARK  Name = 
REMARK  4 active torsions:
REMARK  status: ('A' for Active; 'I' for Inactive)
REMARK    1  A    between atoms: C_1  and  C_2
REMARK    2  A    between atoms: C_4  and  C_5
REMARK    3  A    between atoms: N_7  and  C_8
REMARK    4  A    between atoms: C_13  and  N_14
REMARK                            x       y       z     vdW  Elec       q    Type
REMARK                         _______ _______ _______ _____ _____    ______ ____
ROOT
ATOM      1  C   UNL     1       4.577   4.665  18.015  0.00  0.00    +0.000 C 
ATOM      2  O   UNL     1       5.277   3.702  18.313  0.00  0.00    +0.000 OA
ATOM      3  N   UNL     1       4.636   5.365  16.820  0.00  0.00    +0.000 N 
ATOM      4  H   UNL     1       4.063   6.206  16.725  0.00  0.00    +0.000 HD
ENDROOT
BRANCH   1   8
ATOM      5  C   UNL     1       1.686   8.279  19.905  0.00  0.00    +0.000 C 
ATOM      6  C   UNL     1       2.172   6.862  19.862  0.00  0.00    +0.000 A 
ATOM      7  C   UNL     1       3.200   6.471  19.020  0.00  0.00    +0.000 A 
ATOM      8  C   UNL     1       3.578   5.125  19.021  0.00  0.00    +0.000 A 
ATOM      9  C   UNL     1       2.920   4.191  19.871  0.00  0.00    +0.000 A 
ATOM     10  C   UNL     1       3.224   2.806  19.975  0.00  0.00    +0.000 A 
ATOM     11  C   UNL     1       2.499   1.957  20.814  0.00  0.00    +0.000 A 
ATOM     12  C   UNL     1       1.465   2.475  21.576  0.00  0.00    +0.000 A 
ATOM     13  C   UNL     1       1.172   3.836  21.499  0.00  0.00    +0.000 A 
ATOM     14  C   UNL     1       1.882   4.701  20.673  0.00  0.00    +0.000 A 
ATOM     15  N   UNL     1       1.527   5.994  20.670  0.00  0.00    +0.000 NA
ENDBRANCH   1   8
BRANCH   3  16
ATOM     16  C   UNL     1       5.536   5.126  15.738  0.00  0.00    +0.000 A 
ATOM     17  C   UNL     1       5.157   4.384  14.610  0.00  0.00    +0.000 A 
ATOM     18  C   UNL     1       6.060   4.113  13.584  0.00  0.00    +0.000 A 
ATOM     19  C   UNL     1       7.337   4.619  13.684  0.00  0.00    +0.000 A 
ATOM     20  N   UNL     1       7.755   5.362  14.727  0.00  0.00    +0.000 NA
ATOM     21  C   UNL     1       6.864   5.600  15.741  0.00  0.00    +0.000 A 
BRANCH  21  22
ATOM     22  N   UNL     1       7.389   6.332  16.843  0.00  0.00    +0.000 N 
ATOM     23  C   UNL     1       7.795   5.804  18.047  0.00  0.00    +0.000 A 
ATOM     24  N   UNL     1       8.155   6.762  18.871  0.00  0.00    +0.000 NA
ATOM     25  C   UNL     1       7.964   7.885  18.127  0.00  0.00    +0.000 A 
ATOM     26  N   UNL     1       7.532   7.691  16.877  0.00  0.00    +0.000 NA
ENDBRANCH  21  22
ENDBRANCH   3  16
TORSDOF 3
ENDMDL
MODEL 5
REMARK VINA RESULT:      -8.0      3.021      6.094
REMARK  Name = 
REMARK  4 active torsions:
REMARK  status: ('A' for Active; 'I' for Inactive)
REMARK    1  A    between atoms: C_1  and  C_2
REMARK    2  A    between atoms: C_4  and  C_5
REMARK    3  A    between atoms: N_7  and  C_8
REMARK    4  A    between atoms: C_13  and  N_14
REMARK                            x       y       z     vdW  Elec       q    Type
REMARK                         _______ _______ _______ _____ _____    ______ ____
ROOT
ATOM      1  C   UNL     1       2.052   8.620  18.361  0.00  0.00    +0.000 C 
ATOM      2  O   UNL     1       1.780   8.864  17.190  0.00  0.00    +0.000 OA
ATOM      3  N   UNL     1       2.904   7.617  18.799  0.00  0.00    +0.000 N 
ATOM      4  H   UNL     1       2.980   7.455  19.805  0.00  0.00    +0.000 HD
ENDROOT
BRANCH   1   8
ATOM      5  C   UNL     1      -0.221   9.064  22.791  0.00  0.00    +0.000 C 
ATOM      6  C   UNL     1       0.380   9.649  21.550  0.00  0.00    +0.000 A 
ATOM      7  C   UNL     1       0.845   8.849  20.519  0.00  0.00    +0.000 A 
ATOM      8  C   UNL     1       1.416   9.471  19.406  0.00  0.00    +0.000 A 
ATOM      9  C   UNL     1       1.509  10.892  19.341  0.00  0.00    +0.000 A 
ATOM     10  C   UNL     1       2.049  11.639  18.260  0.00  0.00    +0.000 A 
ATOM     11  C   UNL     1       2.131  13.033  18.301  0.00  0.00    +0.000 A 
ATOM     12  C   UNL     1       1.663  13.709  19.414  0.00  0.00    +0.000 A 
ATOM     13  C   UNL     1       1.110  12.988  20.473  0.00  0.00    +0.000 A 
ATOM     14  C   UNL     1       1.016  11.600  20.453  0.00  0.00    +0.000 A 
ATOM     15  N   UNL     1       0.466  10.996  21.517  0.00  0.00    +0.000 NA
ENDBRANCH   1   8
BRANCH   3  16
ATOM     16  C   UNL     1       3.586   6.665  17.983  0.00  0.00    +0.000 A 
ATOM     17  C   UNL     1       4.480   7.059  16.978  0.00  0.00    +0.000 A 
ATOM     18  C   UNL     1       5.101   6.123  16.153  0.00  0.00    +0.000 A 
ATOM     19  C   UNL     1       4.842   4.788  16.365  0.00  0.00    +0.000 A 
ATOM     20  N   UNL     1       4.016   4.343  17.332  0.00  0.00    +0.000 NA
ATOM     21  C   UNL     1       3.392   5.275  18.120  0.00  0.00    +0.000 A 
BRANCH  21  22
ATOM     22  N   UNL     1       2.480   4.743  19.075  0.00  0.00    +0.000 N 
ATOM     23  C   UNL     1       1.439   3.884  18.810  0.00  0.00    +0.000 A 
ATOM     24  N   UNL     1       0.748   3.649  19.902  0.00  0.00    +0.000 NA
ATOM     25  C   UNL     1       1.408   4.383  20.839  0.00  0.00    +0.000 A 
ATOM     26  N   UNL     1       2.487   5.044  20.408  0.00  0.00    +0.000 NA
ENDBRANCH  21  22
ENDBRANCH   3  16
TORSDOF 3
ENDMDL
MODEL 6
REMARK VINA RESULT:      -8.0      2.983      5.865
REMARK  Name = 
REMARK  4 active torsions:
REMARK  status: ('A' for Active; 'I' for Inactive)
REMARK    1  A    between atoms: C_1  and  C_2
REMARK    2  A    between atoms: C_4  and  C_5
REMARK    3  A    between atoms: N_7  and  C_8
REMARK    4  A    between atoms: C_13  and  N_14
REMARK                            x       y       z     vdW  Elec       q    Type
REMARK                         _______ _______ _______ _____ _____    ______ ____
ROOT
ATOM      1  C   UNL     1       1.870   8.538  18.498  0.00  0.00    +0.000 C 
ATOM      2  O   UNL     1       2.077   9.168  17.465  0.00  0.00    +0.000 OA
ATOM      3  N   UNL     1       2.434   7.313  18.821  0.00  0.00    +0.000 N 
ATOM      4  H   UNL     1       2.114   6.844  19.671  0.00  0.00    +0.000 HD
ENDROOT
BRANCH   1   8
ATOM      5  C   UNL     1       0.625   9.487  23.245  0.00  0.00    +0.000 C 
ATOM      6  C   UNL     1       0.402   9.615  21.769  0.00  0.00    +0.000 A 
ATOM      7  C   UNL     1       1.192   8.943  20.852  0.00  0.00    +0.000 A 
ATOM      8  C   UNL     1       0.935   9.136  19.492  0.00  0.00    +0.000 A 
ATOM      9  C   UNL     1      -0.117  10.000  19.071  0.00  0.00    +0.000 A 
ATOM     10  C   UNL     1      -0.486  10.263  17.724  0.00  0.00    +0.000 A 
ATOM     11  C   UNL     1      -1.512  11.154  17.406  0.00  0.00    +0.000 A 
ATOM     12  C   UNL     1      -2.199  11.792  18.424  0.00  0.00    +0.000 A 
ATOM     13  C   UNL     1      -1.861  11.526  19.751  0.00  0.00    +0.000 A 
ATOM     14  C   UNL     1      -0.844  10.639  20.092  0.00  0.00    +0.000 A 
ATOM     15  N   UNL     1      -0.595  10.447  21.396  0.00  0.00    +0.000 NA
ENDBRANCH   1   8
BRANCH   3  16
ATOM     16  C   UNL     1       3.319   6.543  18.007  0.00  0.00    +0.000 A 
ATOM     17  C   UNL     1       4.278   7.147  17.181  0.00  0.00    +0.000 A 
ATOM     18  C   UNL     1       5.101   6.388  16.352  0.00  0.00    +0.000 A 
ATOM     19  C   UNL     1       4.977   5.018  16.382  0.00  0.00    +0.000 A 
ATOM     20  N   UNL     1       4.097   4.375  17.173  0.00  0.00    +0.000 NA
ATOM     21  C   UNL     1       3.275   5.135  17.965  0.00  0.00    +0.000 A 
BRANCH  21  22
ATOM     22  N   UNL     1       2.322   4.398  18.724  0.00  0.00    +0.000 N 
ATOM     23  C   UNL     1       1.551   3.356  18.264  0.00  0.00    +0.000 A 
ATOM     24  N   UNL     1       0.722   2.950  19.199  0.00  0.00    +0.000 NA
ATOM     25  C   UNL     1       1.021   3.771  20.242  0.00  0.00    +0.000 A 
ATOM     26  N   UNL     1       2.006   4.650  20.030  0.00  0.00    +0.000 NA
ENDBRANCH  21  22
ENDBRANCH   3  16
TORSDOF 3
ENDMDL
MODEL 7
REMARK VINA RESULT:      -7.9      2.682      5.533
REMARK  Name = 
REMARK  4 active torsions:
REMARK  status: ('A' for Active; 'I' for Inactive)
REMARK    1  A    between atoms: C_1  and  C_2
REMARK    2  A    between atoms: C_4  and  C_5
REMARK    3  A    between atoms: N_7  and  C_8
REMARK    4  A    between atoms: C_13  and  N_14
REMARK                            x       y       z     vdW  Elec       q    Type
REMARK                         _______ _______ _______ _____ _____    ______ ____
ROOT
ATOM      1  C   UNL     1       2.244   8.610  18.092  0.00  0.00    +0.000 C 
ATOM      2  O   UNL     1       3.062   9.279  17.468  0.00  0.00    +0.000 OA
ATOM      3  N   UNL     1       2.331   7.247  18.330  0.00  0.00    +0.000 N 
ATOM      4  H   UNL     1       1.541   6.785  18.785  0.00  0.00    +0.000 HD
ENDROOT
BRANCH   1   8
ATOM      5  C   UNL     1      -2.170  10.848  17.390  0.00  0.00    +0.000 C 
ATOM      6  C   UNL     1      -1.076  10.333  18.273  0.00  0.00    +0.000 A 
ATOM      7  C   UNL     1       0.092   9.801  17.751  0.00  0.00    +0.000 A 
ATOM      8  C   UNL     1       1.054   9.318  18.642  0.00  0.00    +0.000 A 
ATOM      9  C   UNL     1       0.831   9.379  20.048  0.00  0.00    +0.000 A 
ATOM     10  C   UNL     1       1.737   8.940  21.051  0.00  0.00    +0.000 A 
ATOM     11  C   UNL     1       1.417   9.008  22.409  0.00  0.00    +0.000 A 
ATOM     12  C   UNL     1       0.193   9.528  22.794  0.00  0.00    +0.000 A 
ATOM     13  C   UNL     1      -0.695   9.984  21.819  0.00  0.00    +0.000 A 
ATOM     14  C   UNL     1      -0.397   9.928  20.461  0.00  0.00    +0.000 A 
ATOM     15  N   UNL     1      -1.314  10.393  19.601  0.00  0.00    +0.000 NA
ENDBRANCH   1   8
BRANCH   3  16
ATOM     16  C   UNL     1       3.356   6.367  17.866  0.00  0.00    +0.000 A 
ATOM     17  C   UNL     1       4.387   6.810  17.027  0.00  0.00    +0.000 A 
ATOM     18  C   UNL     1       5.352   5.932  16.539  0.00  0.00    +0.000 A 
ATOM     19  C   UNL     1       5.293   4.612  16.926  0.00  0.00    +0.000 A 
ATOM     20  N   UNL     1       4.346   4.129  17.753  0.00  0.00    +0.000 NA
ATOM     21  C   UNL     1       3.387   4.999  18.206  0.00  0.00    +0.000 A 
BRANCH  21  22
ATOM     22  N   UNL     1       2.378   4.411  19.019  0.00  0.00    +0.000 N 
ATOM     23  C   UNL     1       1.542   3.381  18.655  0.00  0.00    +0.000 A 
ATOM     24  N   UNL     1       0.677   3.132  19.612  0.00  0.00    +0.000 NA
ATOM     25  C   UNL     1       1.020   4.035  20.570  0.00  0.00    +0.000 A 
ATOM     26  N   UNL     1       2.064   4.819  20.286  0.00  0.00    +0.000 NA
ENDBRANCH  21  22
ENDBRANCH   3  16
TORSDOF 3
ENDMDL
MODEL 8
REMARK VINA RESULT:      -7.8      1.500      6.507
REMARK  Name = 
REMARK  4 active torsions:
REMARK  status: ('A' for Active; 'I' for Inactive)
REMARK    1  A    between atoms: C_1  and  C_2
REMARK    2  A    between atoms: C_4  and  C_5
REMARK    3  A    between atoms: N_7  and  C_8
REMARK    4  A    between atoms: C_13  and  N_14
REMARK                            x       y       z     vdW  Elec       q    Type
REMARK                         _______ _______ _______ _____ _____    ______ ____
ROOT
ATOM      1  C   UNL     1       4.286   4.545  17.491  0.00  0.00    +0.000 C 
ATOM      2  O   UNL     1       3.513   3.947  16.749  0.00  0.00    +0.000 OA
ATOM      3  N   UNL     1       4.187   4.610  18.873  0.00  0.00    +0.000 N 
ATOM      4  H   UNL     1       4.841   5.214  19.375  0.00  0.00    +0.000 HD
ENDROOT
BRANCH   1   8
ATOM      5  C   UNL     1       8.085   7.776  17.827  0.00  0.00    +0.000 C 
ATOM      6  C   UNL     1       7.265   6.774  17.074  0.00  0.00    +0.000 A 
ATOM      7  C   UNL     1       6.122   6.212  17.617  0.00  0.00    +0.000 A 
ATOM      8  C   UNL     1       5.427   5.265  16.860  0.00  0.00    +0.000 A 
ATOM      9  C   UNL     1       5.889   4.899  15.563  0.00  0.00    +0.000 A 
ATOM     10  C   UNL     1       5.262   3.967  14.692  0.00  0.00    +0.000 A 
ATOM     11  C   UNL     1       5.808   3.644  13.448  0.00  0.00    +0.000 A 
ATOM     12  C   UNL     1       6.982   4.254  13.042  0.00  0.00    +0.000 A 
ATOM     13  C   UNL     1       7.595   5.188  13.878  0.00  0.00    +0.000 A 
ATOM     14  C   UNL     1       7.068   5.527  15.120  0.00  0.00    +0.000 A 
ATOM     15  N   UNL     1       7.728   6.437  15.851  0.00  0.00    +0.000 NA
ENDBRANCH   1   8
BRANCH   3  16
ATOM     16  C   UNL     1       3.160   4.033  19.680  0.00  0.00    +0.000 A 
ATOM     17  C   UNL     1       3.119   2.659  19.952  0.00  0.00    +0.000 A 
ATOM     18  C   UNL     1       2.083   2.099  20.698  0.00  0.00    +0.000 A 
ATOM     19  C   UNL     1       1.107   2.934  21.195  0.00  0.00    +0.000 A 
ATOM     20  N   UNL     1       1.106   4.266  20.994  0.00  0.00    +0.000 NA
ATOM     21  C   UNL     1       2.117   4.800  20.237  0.00  0.00    +0.000 A 
BRANCH  21  22
ATOM     22  N   UNL     1       2.019   6.201  20.005  0.00  0.00    +0.000 N 
ATOM     23  C   UNL     1       1.588   7.144  20.908  0.00  0.00    +0.000 A 
ATOM     24  N   UNL     1       1.547   8.332  20.349  0.00  0.00    +0.000 NA
ATOM     25  C   UNL     1       1.974   8.081  19.082  0.00  0.00    +0.000 A 
ATOM     26  N   UNL     1       2.308   6.814  18.818  0.00  0.00    +0.000 NA
ENDBRANCH  21  22
ENDBRANCH   3  16
TORSDOF 3
ENDMDL
MODEL 9
REMARK VINA RESULT:      -7.8      1.529      6.409
REMARK  Name = 
REMARK  4 active torsions:
REMARK  status: ('A' for Active; 'I' for Inactive)
REMARK    1  A    between atoms: C_1  and  C_2
REMARK    2  A    between atoms: C_4  and  C_5
REMARK    3  A    between atoms: N_7  and  C_8
REMARK    4  A    between atoms: C_13  and  N_14
REMARK                            x       y       z     vdW  Elec       q    Type
REMARK                         _______ _______ _______ _____ _____    ______ ____
ROOT
ATOM      1  C   UNL     1       4.999   4.602  18.462  0.00  0.00    +0.000 C 
ATOM      2  O   UNL     1       5.528   3.897  19.316  0.00  0.00    +0.000 OA
ATOM      3  N   UNL     1       3.634   4.707  18.238  0.00  0.00    +0.000 N 
ATOM      4  H   UNL     1       3.318   5.259  17.438  0.00  0.00    +0.000 HD
ENDROOT
BRANCH   1   8
ATOM      5  C   UNL     1       8.280   8.331  17.902  0.00  0.00    +0.000 C 
ATOM      6  C   UNL     1       7.496   7.169  17.372  0.00  0.00    +0.000 A 
ATOM      7  C   UNL     1       6.563   6.505  18.150  0.00  0.00    +0.000 A 
ATOM      8  C   UNL     1       5.892   5.415  17.589  0.00  0.00    +0.000 A 
ATOM      9  C   UNL     1       6.166   5.008  16.251  0.00  0.00    +0.000 A 
ATOM     10  C   UNL     1       5.539   3.932  15.566  0.00  0.00    +0.000 A 
ATOM     11  C   UNL     1       5.898   3.585  14.262  0.00  0.00    +0.000 A 
ATOM     12  C   UNL     1       6.879   4.312  13.611  0.00  0.00    +0.000 A 
ATOM     13  C   UNL     1       7.486   5.385  14.265  0.00  0.00    +0.000 A 
ATOM     14  C   UNL     1       7.143   5.751  15.562  0.00  0.00    +0.000 A 
ATOM     15  N   UNL     1       7.780   6.798  16.105  0.00  0.00    +0.000 NA
ENDBRANCH   1   8
BRANCH   3  16
ATOM     16  C   UNL     1       2.603   3.996  18.923  0.00  0.00    +0.000 A 
ATOM     17  C   UNL     1       2.419   2.617  18.754  0.00  0.00    +0.000 A 
ATOM     18  C   UNL     1       1.377   1.942  19.388  0.00  0.00    +0.000 A 
ATOM     19  C   UNL     1       0.541   2.656  20.216  0.00  0.00    +0.000 A 
ATOM     20  N   UNL     1       0.681   3.976  20.443  0.00  0.00    +0.000 NA
ATOM     21  C   UNL     1       1.695   4.633  19.794  0.00  0.00    +0.000 A 
BRANCH  21  22
ATOM     22  N   UNL     1       1.746   6.037  20.022  0.00  0.00    +0.000 N 
ATOM     23  C   UNL     1       1.289   6.693  21.141  0.00  0.00    +0.000 A 
ATOM     24  N   UNL     1       1.417   7.993  20.998  0.00  0.00    +0.000 NA
ATOM     25  C   UNL     1       1.976   8.103  19.762  0.00  0.00    +0.000 A 
ATOM     26  N   UNL     1       2.231   6.953  19.131  0.00  0.00    +0.000 NA
ENDBRANCH  21  22
ENDBRANCH   3  16
TORSDOF 3
ENDMDL
