MODEL 1
REMARK VINA RESULT:      -8.8      0.000      0.000
REMARK  Name = 
REMARK  7 active torsions:
REMARK  status: ('A' for Active; 'I' for Inactive)
REMARK    1  A    between atoms: C_1  and  C_2
REMARK    2  A    between atoms: N_6  and  C_7
REMARK    3  A    between atoms: C_10  and  C_11
REMARK    4  A    between atoms: C_11  and  N_12
REMARK    5  A    between atoms: N_15  and  C_16
REMARK    6  A    between atoms: C_16  and  C_17
REMARK    7  A    between atoms: C_20  and  C_21
REMARK                            x       y       z     vdW  Elec       q    Type
REMARK                         _______ _______ _______ _____ _____    ______ ____
ROOT
ATOM      1  N   UNL     1       7.412   7.703  16.902  0.00  0.00    +0.000 N 
ATOM      2  C   UNL     1       8.110   8.056  18.028  0.00  0.00    +0.000 C 
ATOM      3  O   UNL     1       8.530   7.258  18.855  0.00  0.00    +0.000 OA
ATOM      4  N   UNL     1       8.281   9.415  18.112  0.00  0.00    +0.000 N 
ATOM      5  H   UNL     1       7.435   8.360  16.139  0.00  0.00    +0.000 HD
ATOM      6  H   UNL     1       7.545   9.968  17.700  0.00  0.00    +0.000 HD
ENDROOT
BRANCH   1   7
ATOM      7  C   UNL     1       7.160   6.315  16.579  0.00  0.00    +0.000 C 
BRANCH   7  11
ATOM      8  C   UNL     1       3.863   4.648  18.858  0.00  0.00    +0.000 A 
ATOM      9  C   UNL     1       5.159   4.140  18.997  0.00  0.00    +0.000 A 
ATOM     10  C   UNL     1       6.217   4.682  18.257  0.00  0.00    +0.000 A 
ATOM     11  C   UNL     1       6.006   5.745  17.367  0.00  0.00    +0.000 A 
ATOM     12  C   UNL     1       4.707   6.239  17.217  0.00  0.00    +0.000 A 
ATOM     13  C   UNL     1       3.650   5.692  17.952  0.00  0.00    +0.000 A 
ATOM     14  F   UNL     1       2.440   6.250  17.798  0.00  0.00    +0.000 F 
BRANCH   8  20
ATOM     15  C   UNL     1       2.034   2.197  18.018  0.00  0.00    +0.000 C 
ATOM     16  C   UNL     1       1.889   3.076  19.210  0.00  0.00    +0.000 A 
ATOM     17  N   UNL     1       0.951   2.896  20.124  0.00  0.00    +0.000 NA
ATOM     18  C   UNL     1       1.249   3.747  21.142  0.00  0.00    +0.000 A 
ATOM     19  C   UNL     1       2.380   4.467  20.854  0.00  0.00    +0.000 A 
ATOM     20  N   UNL     1       2.777   4.083  19.587  0.00  0.00    +0.000 N 
ENDBRANCH   8  20
ENDBRANCH   7  11
ENDBRANCH   1   7
BRANCH   4  21
ATOM     21  C   UNL     1       8.918   9.981  19.283  0.00  0.00    +0.000 C 
BRANCH  21  22
ATOM     22  C   UNL     1       9.503  11.344  19.013  0.00  0.00    +0.000 A 
ATOM     23  C   UNL     1      10.013  11.674  17.751  0.00  0.00    +0.000 A 
ATOM     24  C   UNL     1      10.485  12.966  17.487  0.00  0.00    +0.000 A 
ATOM     25  C   UNL     1      10.465  13.957  18.477  0.00  0.00    +0.000 A 
ATOM     26  C   UNL     1       9.954  13.625  19.739  0.00  0.00    +0.000 A 
ATOM     27  C   UNL     1       9.478  12.334  20.003  0.00  0.00    +0.000 A 
BRANCH  25  28
ATOM     28  C   UNL     1      10.955  15.305  18.188  0.00  0.00    +0.000 A 
ATOM     29  C   UNL     1      10.530  16.270  17.295  0.00  0.00    +0.000 A 
ATOM     30  C   UNL     1      11.402  17.362  17.474  0.00  0.00    +0.000 A 
ATOM     31  N   UNL     1      12.328  17.118  18.401  0.00  0.00    +0.000 NA
ATOM     32  N   UNL     1      12.042  15.872  18.812  0.00  0.00    +0.000 N 
ATOM     33  H   UNL     1      12.638  15.454  19.517  0.00  0.00    +0.000 HD
ENDBRANCH  25  28
ENDBRANCH  21  22
ENDBRANCH   4  21
TORSDOF 6
ENDMDL
MODEL 2
REMARK VINA RESULT:      -8.6      2.281     11.512
REMARK  Name = 
REMARK  7 active torsions:
REMARK  status: ('A' for Active; 'I' for Inactive)
REMARK    1  A    between atoms: C_1  and  C_2
REMARK    2  A    between atoms: N_6  and  C_7
REMARK    3  A    between atoms: C_10  and  C_11
REMARK    4  A    between atoms: C_11  and  N_12
REMARK    5  A    between atoms: N_15  and  C_16
REMARK    6  A    between atoms: C_16  and  C_17
REMARK    7  A    between atoms: C_20  and  C_21
REMARK                            x       y       z     vdW  Elec       q    Type
REMARK                         _______ _______ _______ _____ _____    ______ ____
ROOT
ATOM      1  N   UNL     1       8.098   8.964  18.064  0.00  0.00    +0.000 N 
ATOM      2  C   UNL     1       7.766   7.654  17.831  0.00  0.00    +0.000 C 
ATOM      3  O   UNL     1       8.217   6.709  18.464  0.00  0.00    +0.000 OA
ATOM      4  N   UNL     1       6.866   7.534  16.803  0.00  0.00    +0.000 N 
ATOM      5  H   UNL     1       7.430   9.654  17.758  0.00  0.00    +0.000 HD
ATOM      6  H   UNL     1       6.934   8.242  16.087  0.00  0.00    +0.000 HD
ENDROOT
BRANCH   1   7
ATOM      7  C   UNL     1       8.992   9.333  19.139  0.00  0.00    +0.000 C 
BRANCH   7  11
ATOM      8  C   UNL     1      10.199  13.498  18.947  0.00  0.00    +0.000 A 
ATOM      9  C   UNL     1       9.753  12.936  20.148  0.00  0.00    +0.000 A 
ATOM     10  C   UNL     1       9.364  11.592  20.201  0.00  0.00    +0.000 A 
ATOM     11  C   UNL     1       9.416  10.779  19.061  0.00  0.00    +0.000 A 
ATOM     12  C   UNL     1       9.847  11.348  17.858  0.00  0.00    +0.000 A 
ATOM     13  C   UNL     1      10.229  12.692  17.805  0.00  0.00    +0.000 A 
ATOM     14  F   UNL     1      10.681  13.156  16.631  0.00  0.00    +0.000 F 
BRANCH   8  20
ATOM     15  C   UNL     1       8.407  15.945  18.020  0.00  0.00    +0.000 C 
ATOM     16  C   UNL     1       9.849  15.958  18.385  0.00  0.00    +0.000 A 
ATOM     17  N   UNL     1      10.575  17.064  18.402  0.00  0.00    +0.000 NA
ATOM     18  C   UNL     1      11.765  16.724  18.964  0.00  0.00    +0.000 A 
ATOM     19  C   UNL     1      11.782  15.393  19.293  0.00  0.00    +0.000 A 
ATOM     20  N   UNL     1      10.571  14.872  18.879  0.00  0.00    +0.000 N 
ENDBRANCH   8  20
ENDBRANCH   7  11
ENDBRANCH   1   7
BRANCH   4  21
ATOM     21  C   UNL     1       6.469   6.216  16.355  0.00  0.00    +0.000 C 
BRANCH  21  22
ATOM     22  C   UNL     1       5.513   5.551  17.312  0.00  0.00    +0.000 A 
ATOM     23  C   UNL     1       5.913   4.459  18.092  0.00  0.00    +0.000 A 
ATOM     24  C   UNL     1       5.043   3.896  19.033  0.00  0.00    +0.000 A 
ATOM     25  C   UNL     1       3.750   4.404  19.215  0.00  0.00    +0.000 A 
ATOM     26  C   UNL     1       3.351   5.498  18.435  0.00  0.00    +0.000 A 
ATOM     27  C   UNL     1       4.222   6.064  17.495  0.00  0.00    +0.000 A 
BRANCH  25  28
ATOM     28  C   UNL     1       2.852   3.811  20.206  0.00  0.00    +0.000 A 
ATOM     29  C   UNL     1       1.593   4.175  20.646  0.00  0.00    +0.000 A 
ATOM     30  C   UNL     1       1.241   3.217  21.616  0.00  0.00    +0.000 A 
ATOM     31  N   UNL     1       2.200   2.310  21.800  0.00  0.00    +0.000 NA
ATOM     32  N   UNL     1       3.162   2.692  20.943  0.00  0.00    +0.000 N 
ATOM     33  H   UNL     1       4.020   2.153  20.917  0.00  0.00    +0.000 HD
ENDBRANCH  25  28
ENDBRANCH  21  22
ENDBRANCH   4  21
TORSDOF 6
ENDMDL
MODEL 3
REMARK VINA RESULT:      -8.5      2.284     11.720
REMARK  Name = 
REMARK  7 active torsions:
REMARK  status: ('A' for Active; 'I' for Inactive)
REMARK    1  A    between atoms: C_1  and  C_2
REMARK    2  A    between atoms: N_6  and  C_7
REMARK    3  A    between atoms: C_10  and  C_11
REMARK    4  A    between atoms: C_11  and  N_12
REMARK    5  A    between atoms: N_15  and  C_16
REMARK    6  A    between atoms: C_16  and  C_17
REMARK    7  A    between atoms: C_20  and  C_21
REMARK                            x       y       z     vdW  Elec       q    Type
REMARK                         _______ _______ _______ _____ _____    ______ ____
ROOT
ATOM      1  N   UNL     1       8.290   9.416  18.105  0.00  0.00    +0.000 N 
ATOM      2  C   UNL     1       8.090   8.063  17.998  0.00  0.00    +0.000 C 
ATOM      3  O   UNL     1       8.619   7.231  18.721  0.00  0.00    +0.000 OA
ATOM      4  N   UNL     1       7.222   7.760  16.980  0.00  0.00    +0.000 N 
ATOM      5  H   UNL     1       7.565  10.005  17.730  0.00  0.00    +0.000 HD
ATOM      6  H   UNL     1       7.233   8.399  16.199  0.00  0.00    +0.000 HD
ENDROOT
BRANCH   1   7
ATOM      7  C   UNL     1       9.128   9.971  19.146  0.00  0.00    +0.000 C 
BRANCH   7  11
ATOM      8  C   UNL     1      10.330  14.057  18.309  0.00  0.00    +0.000 A 
ATOM      9  C   UNL     1       9.670  13.734  19.500  0.00  0.00    +0.000 A 
ATOM     10  C   UNL     1       9.284  12.413  19.762  0.00  0.00    +0.000 A 
ATOM     11  C   UNL     1       9.552  11.387  18.845  0.00  0.00    +0.000 A 
ATOM     12  C   UNL     1      10.196  11.717  17.648  0.00  0.00    +0.000 A 
ATOM     13  C   UNL     1      10.575  13.036  17.385  0.00  0.00    +0.000 A 
ATOM     14  F   UNL     1      11.236  13.271  16.242  0.00  0.00    +0.000 F 
BRANCH   8  20
ATOM     15  C   UNL     1       8.414  16.558  17.945  0.00  0.00    +0.000 C 
ATOM     16  C   UNL     1       9.889  16.505  17.759  0.00  0.00    +0.000 A 
ATOM     17  N   UNL     1      10.611  17.567  17.441  0.00  0.00    +0.000 NA
ATOM     18  C   UNL     1      11.910  17.185  17.552  0.00  0.00    +0.000 A 
ATOM     19  C   UNL     1      11.998  15.872  17.936  0.00  0.00    +0.000 A 
ATOM     20  N   UNL     1      10.700  15.403  18.024  0.00  0.00    +0.000 N 
ENDBRANCH   8  20
ENDBRANCH   7  11
ENDBRANCH   1   7
BRANCH   4  21
ATOM     21  C   UNL     1       6.961   6.372  16.658  0.00  0.00    +0.000 C 
BRANCH  21  22
ATOM     22  C   UNL     1       5.836   5.796  17.481  0.00  0.00    +0.000 A 
ATOM     23  C   UNL     1       4.559   5.620  16.937  0.00  0.00    +0.000 A 
ATOM     24  C   UNL     1       3.541   5.014  17.684  0.00  0.00    +0.000 A 
ATOM     25  C   UNL     1       3.771   4.577  18.995  0.00  0.00    +0.000 A 
ATOM     26  C   UNL     1       5.051   4.754  19.538  0.00  0.00    +0.000 A 
ATOM     27  C   UNL     1       6.071   5.356  18.791  0.00  0.00    +0.000 A 
BRANCH  25  28
ATOM     28  C   UNL     1       2.701   3.940  19.764  0.00  0.00    +0.000 A 
ATOM     29  C   UNL     1       1.338   4.160  19.806  0.00  0.00    +0.000 A 
ATOM     30  C   UNL     1       0.835   3.236  20.741  0.00  0.00    +0.000 A 
ATOM     31  N   UNL     1       1.798   2.484  21.274  0.00  0.00    +0.000 NA
ATOM     32  N   UNL     1       2.914   2.931  20.674  0.00  0.00    +0.000 N 
ATOM     33  H   UNL     1       3.798   2.513  20.939  0.00  0.00    +0.000 HD
ENDBRANCH  25  28
ENDBRANCH  21  22
ENDBRANCH   4  21
TORSDOF 6
ENDMDL
MODEL 4
REMARK VINA RESULT:      -8.5      7.366     10.914
REMARK  Name = 
REMARK  7 active torsions:
REMARK  status: ('A' for Active; 'I' for Inactive)
REMARK    1  A    between atoms: C_1  and  C_2
REMARK    2  A    between atoms: N_6  and  C_7
REMARK    3  A    between atoms: C_10  and  C_11
REMARK    4  A    between atoms: C_11  and  N_12
REMARK    5  A    between atoms: N_15  and  C_16
REMARK    6  A    between atoms: C_16  and  C_17
REMARK    7  A    between atoms: C_20  and  C_21
REMARK                            x       y       z     vdW  Elec       q    Type
REMARK                         _______ _______ _______ _____ _____    ______ ____
ROOT
ATOM      1  N   UNL     1       0.933   8.706  20.239  0.00  0.00    +0.000 N 
ATOM      2  C   UNL     1       0.933   9.743  21.136  0.00  0.00    +0.000 C 
ATOM      3  O   UNL     1       1.323   9.651  22.292  0.00  0.00    +0.000 OA
ATOM      4  N   UNL     1       0.443  10.896  20.577  0.00  0.00    +0.000 N 
ATOM      5  H   UNL     1       0.943   8.960  19.264  0.00  0.00    +0.000 HD
ATOM      6  H   UNL     1      -0.251  10.764  19.857  0.00  0.00    +0.000 HD
ENDROOT
BRANCH   1   7
ATOM      7  C   UNL     1       1.457   7.405  20.594  0.00  0.00    +0.000 C 
BRANCH   7  11
ATOM      8  C   UNL     1       4.476   6.056  17.782  0.00  0.00    +0.000 A 
ATOM      9  C   UNL     1       3.686   7.176  17.503  0.00  0.00    +0.000 A 
ATOM     10  C   UNL     1       2.714   7.604  18.415  0.00  0.00    +0.000 A 
ATOM     11  C   UNL     1       2.510   6.927  19.625  0.00  0.00    +0.000 A 
ATOM     12  C   UNL     1       3.289   5.797  19.894  0.00  0.00    +0.000 A 
ATOM     13  C   UNL     1       4.256   5.367  18.980  0.00  0.00    +0.000 A 
ATOM     14  F   UNL     1       5.001   4.308  19.326  0.00  0.00    +0.000 F 
BRANCH   8  20
ATOM     15  C   UNL     1       7.481   7.022  17.486  0.00  0.00    +0.000 C 
ATOM     16  C   UNL     1       6.743   6.065  16.620  0.00  0.00    +0.000 A 
ATOM     17  N   UNL     1       7.302   5.446  15.594  0.00  0.00    +0.000 NA
ATOM     18  C   UNL     1       6.399   4.521  15.174  0.00  0.00    +0.000 A 
ATOM     19  C   UNL     1       5.263   4.571  15.940  0.00  0.00    +0.000 A 
ATOM     20  N   UNL     1       5.448   5.598  16.847  0.00  0.00    +0.000 N 
ENDBRANCH   8  20
ENDBRANCH   7  11
ENDBRANCH   1   7
BRANCH   4  21
ATOM     21  C   UNL     1       0.283  12.074  21.403  0.00  0.00    +0.000 C 
BRANCH  21  22
ATOM     22  C   UNL     1      -1.159  12.322  21.771  0.00  0.00    +0.000 A 
ATOM     23  C   UNL     1      -2.106  12.659  20.796  0.00  0.00    +0.000 A 
ATOM     24  C   UNL     1      -3.455  12.813  21.134  0.00  0.00    +0.000 A 
ATOM     25  C   UNL     1      -3.892  12.641  22.454  0.00  0.00    +0.000 A 
ATOM     26  C   UNL     1      -2.944  12.302  23.428  0.00  0.00    +0.000 A 
ATOM     27  C   UNL     1      -1.593  12.145  23.091  0.00  0.00    +0.000 A 
BRANCH  25  28
ATOM     28  C   UNL     1      -5.307  12.798  22.795  0.00  0.00    +0.000 A 
ATOM     29  C   UNL     1      -6.335  13.483  22.175  0.00  0.00    +0.000 A 
ATOM     30  C   UNL     1      -7.471  13.266  22.978  0.00  0.00    +0.000 A 
ATOM     31  N   UNL     1      -7.198  12.511  24.042  0.00  0.00    +0.000 NA
ATOM     32  N   UNL     1      -5.887  12.246  23.913  0.00  0.00    +0.000 N 
ATOM     33  H   UNL     1      -5.440  11.690  24.632  0.00  0.00    +0.000 HD
ENDBRANCH  25  28
ENDBRANCH  21  22
ENDBRANCH   4  21
TORSDOF 6
ENDMDL
MODEL 5
REMARK VINA RESULT:      -8.5      7.424     11.013
REMARK  Name = 
REMARK  7 active torsions:
REMARK  status: ('A' for Active; 'I' for Inactive)
REMARK    1  A    between atoms: C_1  and  C_2
REMARK    2  A    between atoms: N_6  and  C_7
REMARK    3  A    between atoms: C_10  and  C_11
REMARK    4  A    between atoms: C_11  and  N_12
REMARK    5  A    between atoms: N_15  and  C_16
REMARK    6  A    between atoms: C_16  and  C_17
REMARK    7  A    between atoms: C_20  and  C_21
REMARK                            x       y       z     vdW  Elec       q    Type
REMARK                         _______ _______ _______ _____ _____    ______ ____
ROOT
ATOM      1  N   UNL     1       0.978   8.933  20.135  0.00  0.00    +0.000 N 
ATOM      2  C   UNL     1       0.845   9.929  21.068  0.00  0.00    +0.000 C 
ATOM      3  O   UNL     1       1.048   9.782  22.265  0.00  0.00    +0.000 OA
ATOM      4  N   UNL     1       0.458  11.113  20.492  0.00  0.00    +0.000 N 
ATOM      5  H   UNL     1       1.143   9.229  19.187  0.00  0.00    +0.000 HD
ATOM      6  H   UNL     1      -0.115  11.023  19.667  0.00  0.00    +0.000 HD
ENDROOT
BRANCH   1   7
ATOM      7  C   UNL     1       1.430   7.610  20.509  0.00  0.00    +0.000 C 
BRANCH   7  11
ATOM      8  C   UNL     1       4.444   6.100  17.775  0.00  0.00    +0.000 A 
ATOM      9  C   UNL     1       3.706   7.247  17.465  0.00  0.00    +0.000 A 
ATOM     10  C   UNL     1       2.735   7.727  18.352  0.00  0.00    +0.000 A 
ATOM     11  C   UNL     1       2.482   7.077  19.567  0.00  0.00    +0.000 A 
ATOM     12  C   UNL     1       3.209   5.920  19.867  0.00  0.00    +0.000 A 
ATOM     13  C   UNL     1       4.174   5.439  18.978  0.00  0.00    +0.000 A 
ATOM     14  F   UNL     1       4.870   4.355  19.353  0.00  0.00    +0.000 F 
BRANCH   8  20
ATOM     15  C   UNL     1       7.487   6.954  17.511  0.00  0.00    +0.000 C 
ATOM     16  C   UNL     1       6.729   6.006  16.651  0.00  0.00    +0.000 A 
ATOM     17  N   UNL     1       7.283   5.348  15.647  0.00  0.00    +0.000 NA
ATOM     18  C   UNL     1       6.354   4.447  15.229  0.00  0.00    +0.000 A 
ATOM     19  C   UNL     1       5.209   4.552  15.976  0.00  0.00    +0.000 A 
ATOM     20  N   UNL     1       5.415   5.590  16.866  0.00  0.00    +0.000 N 
ENDBRANCH   8  20
ENDBRANCH   7  11
ENDBRANCH   1   7
BRANCH   4  21
ATOM     21  C   UNL     1       0.179  12.256  21.335  0.00  0.00    +0.000 C 
BRANCH  21  22
ATOM     22  C   UNL     1      -1.276  12.341  21.720  0.00  0.00    +0.000 A 
ATOM     23  C   UNL     1      -1.693  12.089  23.033  0.00  0.00    +0.000 A 
ATOM     24  C   UNL     1      -3.035  12.244  23.399  0.00  0.00    +0.000 A 
ATOM     25  C   UNL     1      -3.996  12.647  22.462  0.00  0.00    +0.000 A 
ATOM     26  C   UNL     1      -3.578  12.899  21.149  0.00  0.00    +0.000 A 
ATOM     27  C   UNL     1      -2.234  12.748  20.782  0.00  0.00    +0.000 A 
BRANCH  25  28
ATOM     28  C   UNL     1      -5.395  12.811  22.858  0.00  0.00    +0.000 A 
ATOM     29  C   UNL     1      -5.987  13.524  23.883  0.00  0.00    +0.000 A 
ATOM     30  C   UNL     1      -7.370  13.292  23.756  0.00  0.00    +0.000 A 
ATOM     31  N   UNL     1      -7.652  12.482  22.736  0.00  0.00    +0.000 NA
ATOM     32  N   UNL     1      -6.446  12.201  22.214  0.00  0.00    +0.000 N 
ATOM     33  H   UNL     1      -6.404  11.572  21.421  0.00  0.00    +0.000 HD
ENDBRANCH  25  28
ENDBRANCH  21  22
ENDBRANCH   4  21
TORSDOF 6
ENDMDL
MODEL 6
REMARK VINA RESULT:      -8.4      1.538      1.824
REMARK  Name = 
REMARK  7 active torsions:
REMARK  status: ('A' for Active; 'I' for Inactive)
REMARK    1  A    between atoms: C_1  and  C_2
REMARK    2  A    between atoms: N_6  and  C_7
REMARK    3  A    between atoms: C_10  and  C_11
REMARK    4  A    between atoms: C_11  and  N_12
REMARK    5  A    between atoms: N_15  and  C_16
REMARK    6  A    between atoms: C_16  and  C_17
REMARK    7  A    between atoms: C_20  and  C_21
REMARK                            x       y       z     vdW  Elec       q    Type
REMARK                         _______ _______ _______ _____ _____    ______ ____
ROOT
ATOM      1  N   UNL     1       6.493   7.158  16.475  0.00  0.00    +0.000 N 
ATOM      2  C   UNL     1       7.465   7.360  17.421  0.00  0.00    +0.000 C 
ATOM      3  O   UNL     1       8.005   6.462  18.055  0.00  0.00    +0.000 OA
ATOM      4  N   UNL     1       7.760   8.691  17.569  0.00  0.00    +0.000 N 
ATOM      5  H   UNL     1       6.386   7.884  15.785  0.00  0.00    +0.000 HD
ATOM      6  H   UNL     1       6.994   9.324  17.394  0.00  0.00    +0.000 HD
ENDROOT
BRANCH   1   7
ATOM      7  C   UNL     1       6.061   5.825  16.115  0.00  0.00    +0.000 C 
BRANCH   7  11
ATOM      8  C   UNL     1       3.357   4.139  19.063  0.00  0.00    +0.000 A 
ATOM      9  C   UNL     1       3.017   5.299  18.359  0.00  0.00    +0.000 A 
ATOM     10  C   UNL     1       3.895   5.838  17.410  0.00  0.00    +0.000 A 
ATOM     11  C   UNL     1       5.128   5.229  17.141  0.00  0.00    +0.000 A 
ATOM     12  C   UNL     1       5.474   4.079  17.858  0.00  0.00    +0.000 A 
ATOM     13  C   UNL     1       4.599   3.546  18.809  0.00  0.00    +0.000 A 
ATOM     14  F   UNL     1       4.972   2.413  19.421  0.00  0.00    +0.000 F 
BRANCH   8  20
ATOM     15  C   UNL     1       0.855   2.246  18.603  0.00  0.00    +0.000 C 
ATOM     16  C   UNL     1       1.317   2.851  19.881  0.00  0.00    +0.000 A 
ATOM     17  N   UNL     1       0.724   2.621  21.040  0.00  0.00    +0.000 NA
ATOM     18  C   UNL     1       1.527   3.169  21.990  0.00  0.00    +0.000 A 
ATOM     19  C   UNL     1       2.626   3.753  21.415  0.00  0.00    +0.000 A 
ATOM     20  N   UNL     1       2.481   3.601  20.048  0.00  0.00    +0.000 N 
ENDBRANCH   8  20
ENDBRANCH   7  11
ENDBRANCH   1   7
BRANCH   4  21
ATOM     21  C   UNL     1       8.700   9.103  18.590  0.00  0.00    +0.000 C 
BRANCH  21  22
ATOM     22  C   UNL     1       9.092  10.553  18.455  0.00  0.00    +0.000 A 
ATOM     23  C   UNL     1       8.382  11.418  17.613  0.00  0.00    +0.000 A 
ATOM     24  C   UNL     1       8.705  12.779  17.551  0.00  0.00    +0.000 A 
ATOM     25  C   UNL     1       9.748  13.309  18.322  0.00  0.00    +0.000 A 
ATOM     26  C   UNL     1      10.457  12.442  19.165  0.00  0.00    +0.000 A 
ATOM     27  C   UNL     1      10.133  11.081  19.230  0.00  0.00    +0.000 A 
BRANCH  25  28
ATOM     28  C   UNL     1      10.072  14.734  18.254  0.00  0.00    +0.000 A 
ATOM     29  C   UNL     1      10.996  15.505  18.934  0.00  0.00    +0.000 A 
ATOM     30  C   UNL     1      10.835  16.813  18.438  0.00  0.00    +0.000 A 
ATOM     31  N   UNL     1       9.874  16.887  17.518  0.00  0.00    +0.000 NA
ATOM     32  N   UNL     1       9.425  15.624  17.428  0.00  0.00    +0.000 N 
ATOM     33  H   UNL     1       8.662  15.433  16.790  0.00  0.00    +0.000 HD
ENDBRANCH  25  28
ENDBRANCH  21  22
ENDBRANCH   4  21
TORSDOF 6
ENDMDL
MODEL 7
REMARK VINA RESULT:      -8.3      1.369      1.779
REMARK  Name = 
REMARK  7 active torsions:
REMARK  status: ('A' for Active; 'I' for Inactive)
REMARK    1  A    between atoms: C_1  and  C_2
REMARK    2  A    between atoms: N_6  and  C_7
REMARK    3  A    between atoms: C_10  and  C_11
REMARK    4  A    between atoms: C_11  and  N_12
REMARK    5  A    between atoms: N_15  and  C_16
REMARK    6  A    between atoms: C_16  and  C_17
REMARK    7  A    between atoms: C_20  and  C_21
REMARK                            x       y       z     vdW  Elec       q    Type
REMARK                         _______ _______ _______ _____ _____    ______ ____
ROOT
ATOM      1  N   UNL     1       6.544   7.434  16.637  0.00  0.00    +0.000 N 
ATOM      2  C   UNL     1       7.511   7.501  17.607  0.00  0.00    +0.000 C 
ATOM      3  O   UNL     1       7.985   6.526  18.173  0.00  0.00    +0.000 OA
ATOM      4  N   UNL     1       7.881   8.797  17.863  0.00  0.00    +0.000 N 
ATOM      5  H   UNL     1       6.491   8.216  16.005  0.00  0.00    +0.000 HD
ATOM      6  H   UNL     1       7.157   9.486  17.731  0.00  0.00    +0.000 HD
ENDROOT
BRANCH   1   7
ATOM      7  C   UNL     1       6.039   6.162  16.166  0.00  0.00    +0.000 C 
BRANCH   7  11
ATOM      8  C   UNL     1       3.386   4.305  19.057  0.00  0.00    +0.000 A 
ATOM      9  C   UNL     1       3.356   5.687  18.840  0.00  0.00    +0.000 A 
ATOM     10  C   UNL     1       4.215   6.278  17.907  0.00  0.00    +0.000 A 
ATOM     11  C   UNL     1       5.120   5.505  17.167  0.00  0.00    +0.000 A 
ATOM     12  C   UNL     1       5.162   4.126  17.399  0.00  0.00    +0.000 A 
ATOM     13  C   UNL     1       4.306   3.538  18.335  0.00  0.00    +0.000 A 
ATOM     14  F   UNL     1       4.363   2.205  18.467  0.00  0.00    +0.000 F 
BRANCH   8  20
ATOM     15  C   UNL     1       0.760   2.607  18.531  0.00  0.00    +0.000 C 
ATOM     16  C   UNL     1       1.322   3.034  19.841  0.00  0.00    +0.000 A 
ATOM     17  N   UNL     1       0.778   2.700  20.999  0.00  0.00    +0.000 NA
ATOM     18  C   UNL     1       1.660   3.092  21.956  0.00  0.00    +0.000 A 
ATOM     19  C   UNL     1       2.759   3.683  21.389  0.00  0.00    +0.000 A 
ATOM     20  N   UNL     1       2.534   3.700  20.025  0.00  0.00    +0.000 N 
ENDBRANCH   8  20
ENDBRANCH   7  11
ENDBRANCH   1   7
BRANCH   4  21
ATOM     21  C   UNL     1       8.828   9.069  18.924  0.00  0.00    +0.000 C 
BRANCH  21  22
ATOM     22  C   UNL     1       9.290  10.505  18.923  0.00  0.00    +0.000 A 
ATOM     23  C   UNL     1      10.120  10.998  19.937  0.00  0.00    +0.000 A 
ATOM     24  C   UNL     1      10.606  12.309  19.888  0.00  0.00    +0.000 A 
ATOM     25  C   UNL     1      10.271  13.164  18.829  0.00  0.00    +0.000 A 
ATOM     26  C   UNL     1       9.442  12.669  17.814  0.00  0.00    +0.000 A 
ATOM     27  C   UNL     1       8.957  11.355  17.861  0.00  0.00    +0.000 A 
BRANCH  25  28
ATOM     28  C   UNL     1      10.791  14.531  18.786  0.00  0.00    +0.000 A 
ATOM     29  C   UNL     1      10.906  15.506  19.758  0.00  0.00    +0.000 A 
ATOM     30  C   UNL     1      11.479  16.618  19.111  0.00  0.00    +0.000 A 
ATOM     31  N   UNL     1      11.705  16.387  17.818  0.00  0.00    +0.000 NA
ATOM     32  N   UNL     1      11.277  15.125  17.645  0.00  0.00    +0.000 N 
ATOM     33  H   UNL     1      11.332  14.726  16.715  0.00  0.00    +0.000 HD
ENDBRANCH  25  28
ENDBRANCH  21  22
ENDBRANCH   4  21
TORSDOF 6
ENDMDL
MODEL 8
REMARK VINA RESULT:      -8.3      0.774      1.574
REMARK  Name = 
REMARK  7 active torsions:
REMARK  status: ('A' for Active; 'I' for Inactive)
REMARK    1  A    between atoms: C_1  and  C_2
REMARK    2  A    between atoms: N_6  and  C_7
REMARK    3  A    between atoms: C_10  and  C_11
REMARK    4  A    between atoms: C_11  and  N_12
REMARK    5  A    between atoms: N_15  and  C_16
REMARK    6  A    between atoms: C_16  and  C_17
REMARK    7  A    between atoms: C_20  and  C_21
REMARK                            x       y       z     vdW  Elec       q    Type
REMARK                         _______ _______ _______ _____ _____    ______ ____
ROOT
ATOM      1  N   UNL     1       7.262   7.890  16.976  0.00  0.00    +0.000 N 
ATOM      2  C   UNL     1       8.077   8.214  18.029  0.00  0.00    +0.000 C 
ATOM      3  O   UNL     1       8.636   7.394  18.744  0.00  0.00    +0.000 OA
ATOM      4  N   UNL     1       8.191   9.573  18.182  0.00  0.00    +0.000 N 
ATOM      5  H   UNL     1       7.156   8.592  16.262  0.00  0.00    +0.000 HD
ATOM      6  H   UNL     1       7.383  10.107  17.900  0.00  0.00    +0.000 HD
ENDROOT
BRANCH   1   7
ATOM      7  C   UNL     1       7.039   6.512  16.596  0.00  0.00    +0.000 C 
BRANCH   7  11
ATOM      8  C   UNL     1       3.600   4.765  18.588  0.00  0.00    +0.000 A 
ATOM      9  C   UNL     1       4.869   4.191  18.713  0.00  0.00    +0.000 A 
ATOM     10  C   UNL     1       5.973   4.759  18.066  0.00  0.00    +0.000 A 
ATOM     11  C   UNL     1       5.836   5.915  17.285  0.00  0.00    +0.000 A 
ATOM     12  C   UNL     1       4.564   6.477  17.147  0.00  0.00    +0.000 A 
ATOM     13  C   UNL     1       3.461   5.905  17.789  0.00  0.00    +0.000 A 
ATOM     14  F   UNL     1       2.281   6.527  17.656  0.00  0.00    +0.000 F 
BRANCH   8  20
ATOM     15  C   UNL     1       1.812   6.002  20.896  0.00  0.00    +0.000 C 
ATOM     16  C   UNL     1       1.719   4.642  20.302  0.00  0.00    +0.000 A 
ATOM     17  N   UNL     1       0.802   3.761  20.664  0.00  0.00    +0.000 NA
ATOM     18  C   UNL     1       0.901   2.730  19.784  0.00  0.00    +0.000 A 
ATOM     19  C   UNL     1       1.894   2.969  18.869  0.00  0.00    +0.000 A 
ATOM     20  N   UNL     1       2.468   4.177  19.221  0.00  0.00    +0.000 N 
ENDBRANCH   8  20
ENDBRANCH   7  11
ENDBRANCH   1   7
BRANCH   4  21
ATOM     21  C   UNL     1       8.941  10.103  19.301  0.00  0.00    +0.000 C 
BRANCH  21  22
ATOM     22  C   UNL     1       9.487  11.481  19.022  0.00  0.00    +0.000 A 
ATOM     23  C   UNL     1       9.263  12.541  19.909  0.00  0.00    +0.000 A 
ATOM     24  C   UNL     1       9.837  13.797  19.681  0.00  0.00    +0.000 A 
ATOM     25  C   UNL     1      10.643  14.029  18.558  0.00  0.00    +0.000 A 
ATOM     26  C   UNL     1      10.868  12.967  17.672  0.00  0.00    +0.000 A 
ATOM     27  C   UNL     1      10.297  11.708  17.901  0.00  0.00    +0.000 A 
BRANCH  25  28
ATOM     28  C   UNL     1      11.243  15.344  18.334  0.00  0.00    +0.000 A 
ATOM     29  C   UNL     1      12.126  16.097  19.085  0.00  0.00    +0.000 A 
ATOM     30  C   UNL     1      12.333  17.280  18.350  0.00  0.00    +0.000 A 
ATOM     31  N   UNL     1      11.630  17.300  17.218  0.00  0.00    +0.000 NA
ATOM     32  N   UNL     1      10.977  16.125  17.234  0.00  0.00    +0.000 N 
ATOM     33  H   UNL     1      10.349  15.918  16.465  0.00  0.00    +0.000 HD
ENDBRANCH  25  28
ENDBRANCH  21  22
ENDBRANCH   4  21
TORSDOF 6
ENDMDL
MODEL 9
REMARK VINA RESULT:      -8.3      7.365     10.833
REMARK  Name = 
REMARK  7 active torsions:
REMARK  status: ('A' for Active; 'I' for Inactive)
REMARK    1  A    between atoms: C_1  and  C_2
REMARK    2  A    between atoms: N_6  and  C_7
REMARK    3  A    between atoms: C_10  and  C_11
REMARK    4  A    between atoms: C_11  and  N_12
REMARK    5  A    between atoms: N_15  and  C_16
REMARK    6  A    between atoms: C_16  and  C_17
REMARK    7  A    between atoms: C_20  and  C_21
REMARK                            x       y       z     vdW  Elec       q    Type
REMARK                         _______ _______ _______ _____ _____    ______ ____
ROOT
ATOM      1  N   UNL     1       1.015   8.701  20.219  0.00  0.00    +0.000 N 
ATOM      2  C   UNL     1       0.944   9.753  21.095  0.00  0.00    +0.000 C 
ATOM      3  O   UNL     1       1.227   9.678  22.283  0.00  0.00    +0.000 OA
ATOM      4  N   UNL     1       0.518  10.900  20.475  0.00  0.00    +0.000 N 
ATOM      5  H   UNL     1       1.116   8.938  19.245  0.00  0.00    +0.000 HD
ATOM      6  H   UNL     1      -0.110  10.762  19.698  0.00  0.00    +0.000 HD
ENDROOT
BRANCH   1   7
ATOM      7  C   UNL     1       1.493   7.402  20.642  0.00  0.00    +0.000 C 
BRANCH   7  11
ATOM      8  C   UNL     1       4.426   5.723  17.918  0.00  0.00    +0.000 A 
ATOM      9  C   UNL     1       4.138   5.098  19.136  0.00  0.00    +0.000 A 
ATOM     10  C   UNL     1       3.192   5.646  20.009  0.00  0.00    +0.000 A 
ATOM     11  C   UNL     1       2.509   6.827  19.686  0.00  0.00    +0.000 A 
ATOM     12  C   UNL     1       2.811   7.460  18.476  0.00  0.00    +0.000 A 
ATOM     13  C   UNL     1       3.761   6.914  17.607  0.00  0.00    +0.000 A 
ATOM     14  F   UNL     1       3.962   7.545  16.441  0.00  0.00    +0.000 F 
BRANCH   8  20
ATOM     15  C   UNL     1       7.454   6.616  17.615  0.00  0.00    +0.000 C 
ATOM     16  C   UNL     1       6.714   5.613  16.802  0.00  0.00    +0.000 A 
ATOM     17  N   UNL     1       7.281   4.914  15.833  0.00  0.00    +0.000 NA
ATOM     18  C   UNL     1       6.369   3.978  15.460  0.00  0.00    +0.000 A 
ATOM     19  C   UNL     1       5.220   4.101  16.199  0.00  0.00    +0.000 A 
ATOM     20  N   UNL     1       5.407   5.185  17.036  0.00  0.00    +0.000 N 
ENDBRANCH   8  20
ENDBRANCH   7  11
ENDBRANCH   1   7
BRANCH   4  21
ATOM     21  C   UNL     1       0.295  12.094  21.264  0.00  0.00    +0.000 C 
BRANCH  21  22
ATOM     22  C   UNL     1      -1.151  12.252  21.665  0.00  0.00    +0.000 A 
ATOM     23  C   UNL     1      -1.578  11.950  22.963  0.00  0.00    +0.000 A 
ATOM     24  C   UNL     1      -2.905  12.172  23.349  0.00  0.00    +0.000 A 
ATOM     25  C   UNL     1      -3.841  12.694  22.446  0.00  0.00    +0.000 A 
ATOM     26  C   UNL     1      -3.412  12.997  21.147  0.00  0.00    +0.000 A 
ATOM     27  C   UNL     1      -2.083  12.778  20.761  0.00  0.00    +0.000 A 
BRANCH  25  28
ATOM     28  C   UNL     1      -5.224  12.927  22.862  0.00  0.00    +0.000 A 
ATOM     29  C   UNL     1      -5.788  13.860  23.711  0.00  0.00    +0.000 A 
ATOM     30  C   UNL     1      -7.168  13.581  23.716  0.00  0.00    +0.000 A 
ATOM     31  N   UNL     1      -7.474  12.540  22.942  0.00  0.00    +0.000 NA
ATOM     32  N   UNL     1      -6.286  12.160  22.442  0.00  0.00    +0.000 N 
ATOM     33  H   UNL     1      -6.262  11.356  21.826  0.00  0.00    +0.000 HD
ENDBRANCH  25  28
ENDBRANCH  21  22
ENDBRANCH   4  21
TORSDOF 6
ENDMDL
