MODEL 1
REMARK VINA RESULT:      -8.5      0.000      0.000
REMARK  Name = 
REMARK  6 active torsions:
REMARK  status: ('A' for Active; 'I' for Inactive)
REMARK    1  A    between atoms: C_1  and  C_2
REMARK    2  A    between atoms: C_6  and  C_7
REMARK    3  A    between atoms: N_9  and  C_10
REMARK    4  A    between atoms: C_10  and  C_11
REMARK    5  A    between atoms: N_20  and  C_21
REMARK    6  A    between atoms: C_26  and  C_27
REMARK                            x       y       z     vdW  Elec       q    Type
REMARK                         _______ _______ _______ _____ _____    ______ ____
ROOT
ATOM      1  C   UNL     1       4.857   3.687  19.305  0.00  0.00    +0.000 C 
ATOM      2  C   UNL     1       4.017   4.907  18.999  0.00  0.00    +0.000 A 
ATOM      3  C   UNL     1       3.244   5.344  20.006  0.00  0.00    +0.000 A 
ATOM      4  C   UNL     1       2.477   6.564  19.780  0.00  0.00    +0.000 A 
ATOM      5  O   UNL     1       1.733   7.035  20.634  0.00  0.00    +0.000 OA
ATOM      6  C   UNL     1       2.599   7.222  18.443  0.00  0.00    +0.000 A 
ATOM      7  N   UNL     1       3.313   6.693  17.487  0.00  0.00    +0.000 NA
ATOM      8  N   UNL     1       4.077   5.580  17.754  0.00  0.00    +0.000 N 
ENDROOT
BRANCH   8   9
ATOM      9  C   UNL     1       5.026   5.293  16.706  0.00  0.00    +0.000 A 
ATOM     10  C   UNL     1       4.672   4.395  15.672  0.00  0.00    +0.000 A 
ATOM     11  C   UNL     1       5.559   4.008  14.663  0.00  0.00    +0.000 A 
ATOM     12  C   UNL     1       6.817   4.578  14.602  0.00  0.00    +0.000 A 
ATOM     13  C   UNL     1       7.176   5.523  15.552  0.00  0.00    +0.000 A 
ATOM     14  C   UNL     1       6.316   5.882  16.626  0.00  0.00    +0.000 A 
BRANCH  14  15
ATOM     15  C   UNL     1       6.911   6.892  17.589  0.00  0.00    +0.000 C 
ATOM     16  F   UNL     1       8.096   7.462  17.251  0.00  0.00    +0.000 F 
ATOM     17  F   UNL     1       6.073   7.971  17.737  0.00  0.00    +0.000 F 
ATOM     18  F   UNL     1       7.046   6.388  18.849  0.00  0.00    +0.000 F 
ENDBRANCH  14  15
ENDBRANCH   8   9
BRANCH   6  19
ATOM     19  C   UNL     1       1.952   8.573  18.177  0.00  0.00    +0.000 C 
ATOM     20  O   UNL     1       2.223   9.190  17.160  0.00  0.00    +0.000 OA
ATOM     21  N   UNL     1       1.129   9.060  19.174  0.00  0.00    +0.000 N 
ATOM     22  H   UNL     1       1.147   8.581  20.074  0.00  0.00    +0.000 HD
BRANCH  21  23
ATOM     23  C   UNL     1       0.425  10.362  19.085  0.00  0.00    +0.000 C 
ATOM     24  C   UNL     1      -0.709  10.521  20.143  0.00  0.00    +0.000 C 
ATOM     25  C   UNL     1      -1.624  11.082  19.044  0.00  0.00    +0.000 C 
ATOM     26  C   UNL     1      -0.713  10.402  18.014  0.00  0.00    +0.000 C 
BRANCH  23  27
ATOM     27  C   UNL     1       1.387  11.550  18.992  0.00  0.00    +0.000 A 
ATOM     28  N   UNL     1       1.741  12.315  20.004  0.00  0.00    +0.000 NA
ATOM     29  N   UNL     1       2.631  13.255  19.536  0.00  0.00    +0.000 NA
ATOM     30  C   UNL     1       2.774  13.055  18.247  0.00  0.00    +0.000 A 
ATOM     31  N   UNL     1       2.009  11.998  17.862  0.00  0.00    +0.000 N 
ATOM     32  H   UNL     1       1.885  11.640  16.927  0.00  0.00    +0.000 HD
ENDBRANCH  23  27
ENDBRANCH  21  23
ENDBRANCH   6  19
TORSDOF 5
ENDMDL
MODEL 2
REMARK VINA RESULT:      -8.4      1.273      2.108
REMARK  Name = 
REMARK  6 active torsions:
REMARK  status: ('A' for Active; 'I' for Inactive)
REMARK    1  A    between atoms: C_1  and  C_2
REMARK    2  A    between atoms: C_6  and  C_7
REMARK    3  A    between atoms: N_9  and  C_10
REMARK    4  A    between atoms: C_10  and  C_11
REMARK    5  A    between atoms: N_20  and  C_21
REMARK    6  A    between atoms: C_26  and  C_27
REMARK                            x       y       z     vdW  Elec       q    Type
REMARK                         _______ _______ _______ _____ _____    ______ ____
ROOT
ATOM      1  C   UNL     1       4.745   3.511  19.247  0.00  0.00    +0.000 C 
ATOM      2  C   UNL     1       3.955   4.768  18.961  0.00  0.00    +0.000 A 
ATOM      3  C   UNL     1       3.170   5.198  19.962  0.00  0.00    +0.000 A 
ATOM      4  C   UNL     1       2.451   6.451  19.758  0.00  0.00    +0.000 A 
ATOM      5  O   UNL     1       1.700   6.918  20.608  0.00  0.00    +0.000 OA
ATOM      6  C   UNL     1       2.633   7.149  18.448  0.00  0.00    +0.000 A 
ATOM      7  N   UNL     1       3.354   6.628  17.494  0.00  0.00    +0.000 NA
ATOM      8  N   UNL     1       4.073   5.480  17.742  0.00  0.00    +0.000 N 
ENDROOT
BRANCH   8   9
ATOM      9  C   UNL     1       5.040   5.196  16.711  0.00  0.00    +0.000 A 
ATOM     10  C   UNL     1       4.694   4.324  15.652  0.00  0.00    +0.000 A 
ATOM     11  C   UNL     1       5.597   3.940  14.656  0.00  0.00    +0.000 A 
ATOM     12  C   UNL     1       6.866   4.488  14.634  0.00  0.00    +0.000 A 
ATOM     13  C   UNL     1       7.219   5.409  15.609  0.00  0.00    +0.000 A 
ATOM     14  C   UNL     1       6.342   5.763  16.671  0.00  0.00    +0.000 A 
BRANCH  14  15
ATOM     15  C   UNL     1       6.932   6.745  17.665  0.00  0.00    +0.000 C 
ATOM     16  F   UNL     1       8.175   7.228  17.411  0.00  0.00    +0.000 F 
ATOM     17  F   UNL     1       6.161   7.880  17.740  0.00  0.00    +0.000 F 
ATOM     18  F   UNL     1       6.939   6.251  18.937  0.00  0.00    +0.000 F 
ENDBRANCH  14  15
ENDBRANCH   8   9
BRANCH   6  19
ATOM     19  C   UNL     1       2.039   8.529  18.212  0.00  0.00    +0.000 C 
ATOM     20  O   UNL     1       2.160   9.068  17.124  0.00  0.00    +0.000 OA
ATOM     21  N   UNL     1       1.447   9.132  19.305  0.00  0.00    +0.000 N 
ATOM     22  H   UNL     1       1.597   8.702  20.217  0.00  0.00    +0.000 HD
BRANCH  21  23
ATOM     23  C   UNL     1       0.826  10.478  19.256  0.00  0.00    +0.000 C 
ATOM     24  C   UNL     1       1.793  11.582  18.732  0.00  0.00    +0.000 C 
ATOM     25  C   UNL     1       1.322  12.501  19.870  0.00  0.00    +0.000 C 
ATOM     26  C   UNL     1       0.855  11.246  20.617  0.00  0.00    +0.000 C 
BRANCH  23  27
ATOM     27  C   UNL     1      -0.556  10.468  18.594  0.00  0.00    +0.000 A 
ATOM     28  N   UNL     1      -1.668  10.881  19.165  0.00  0.00    +0.000 NA
ATOM     29  N   UNL     1      -2.691  10.739  18.254  0.00  0.00    +0.000 NA
ATOM     30  C   UNL     1      -2.179  10.218  17.164  0.00  0.00    +0.000 A 
ATOM     31  N   UNL     1      -0.843  10.027  17.333  0.00  0.00    +0.000 N 
ATOM     32  H   UNL     1      -0.198   9.605  16.684  0.00  0.00    +0.000 HD
ENDBRANCH  23  27
ENDBRANCH  21  23
ENDBRANCH   6  19
TORSDOF 5
ENDMDL
MODEL 3
REMARK VINA RESULT:      -8.1      1.599      2.372
REMARK  Name = 
REMARK  6 active torsions:
REMARK  status: ('A' for Active; 'I' for Inactive)
REMARK    1  A    between atoms: C_1  and  C_2
REMARK    2  A    between atoms: C_6  and  C_7
REMARK    3  A    between atoms: N_9  and  C_10
REMARK    4  A    between atoms: C_10  and  C_11
REMARK    5  A    between atoms: N_20  and  C_21
REMARK    6  A    between atoms: C_26  and  C_27
REMARK                            x       y       z     vdW  Elec       q    Type
REMARK                         _______ _______ _______ _____ _____    ______ ____
ROOT
ATOM      1  C   UNL     1       4.532   2.970  19.253  0.00  0.00    +0.000 C 
ATOM      2  C   UNL     1       3.802   4.285  19.093  0.00  0.00    +0.000 A 
ATOM      3  C   UNL     1       2.958   4.602  20.088  0.00  0.00    +0.000 A 
ATOM      4  C   UNL     1       2.292   5.897  20.015  0.00  0.00    +0.000 A 
ATOM      5  O   UNL     1       1.494   6.271  20.868  0.00  0.00    +0.000 OA
ATOM      6  C   UNL     1       2.590   6.763  18.832  0.00  0.00    +0.000 A 
ATOM      7  N   UNL     1       3.365   6.353  17.867  0.00  0.00    +0.000 NA
ATOM      8  N   UNL     1       4.030   5.155  17.999  0.00  0.00    +0.000 N 
ENDROOT
BRANCH   8   9
ATOM      9  C   UNL     1       5.062   4.980  17.007  0.00  0.00    +0.000 A 
ATOM     10  C   UNL     1       4.718   4.509  15.718  0.00  0.00    +0.000 A 
ATOM     11  C   UNL     1       5.667   4.243  14.726  0.00  0.00    +0.000 A 
ATOM     12  C   UNL     1       7.000   4.523  14.962  0.00  0.00    +0.000 A 
ATOM     13  C   UNL     1       7.370   5.061  16.186  0.00  0.00    +0.000 A 
ATOM     14  C   UNL     1       6.433   5.276  17.233  0.00  0.00    +0.000 A 
BRANCH  14  15
ATOM     15  C   UNL     1       7.042   5.820  18.511  0.00  0.00    +0.000 C 
ATOM     16  F   UNL     1       6.293   5.756  19.642  0.00  0.00    +0.000 F 
ATOM     17  F   UNL     1       8.176   5.119  18.844  0.00  0.00    +0.000 F 
ATOM     18  F   UNL     1       7.465   7.110  18.375  0.00  0.00    +0.000 F 
ENDBRANCH  14  15
ENDBRANCH   8   9
BRANCH   6  19
ATOM     19  C   UNL     1       2.055   8.185  18.754  0.00  0.00    +0.000 C 
ATOM     20  O   UNL     1       2.374   8.907  17.823  0.00  0.00    +0.000 OA
ATOM     21  N   UNL     1       1.276   8.601  19.816  0.00  0.00    +0.000 N 
ATOM     22  H   UNL     1       1.256   8.008  20.645  0.00  0.00    +0.000 HD
BRANCH  21  23
ATOM     23  C   UNL     1       0.680   9.957  19.907  0.00  0.00    +0.000 C 
ATOM     24  C   UNL     1      -0.295  10.279  18.735  0.00  0.00    +0.000 C 
ATOM     25  C   UNL     1       0.359  11.663  18.602  0.00  0.00    +0.000 C 
ATOM     26  C   UNL     1       1.584  11.093  19.328  0.00  0.00    +0.000 C 
BRANCH  23  27
ATOM     27  C   UNL     1       0.132  10.269  21.303  0.00  0.00    +0.000 A 
ATOM     28  N   UNL     1       0.618   9.790  22.428  0.00  0.00    +0.000 NA
ATOM     29  N   UNL     1      -0.120  10.312  23.467  0.00  0.00    +0.000 NA
ATOM     30  C   UNL     1      -1.053  11.073  22.944  0.00  0.00    +0.000 A 
ATOM     31  N   UNL     1      -0.936  11.072  21.589  0.00  0.00    +0.000 N 
ATOM     32  H   UNL     1      -1.537  11.531  20.923  0.00  0.00    +0.000 HD
ENDBRANCH  23  27
ENDBRANCH  21  23
ENDBRANCH   6  19
TORSDOF 5
ENDMDL
MODEL 4
REMARK VINA RESULT:      -7.9      1.805      2.475
REMARK  Name = 
REMARK  6 active torsions:
REMARK  status: ('A' for Active; 'I' for Inactive)
REMARK    1  A    between atoms: C_1  and  C_2
REMARK    2  A    between atoms: C_6  and  C_7
REMARK    3  A    between atoms: N_9  and  C_10
REMARK    4  A    between atoms: C_10  and  C_11
REMARK    5  A    between atoms: N_20  and  C_21
REMARK    6  A    between atoms: C_26  and  C_27
REMARK                            x       y       z     vdW  Elec       q    Type
REMARK                         _______ _______ _______ _____ _____    ______ ____
ROOT
ATOM      1  C   UNL     1       3.863   2.013  18.009  0.00  0.00    +0.000 C 
ATOM      2  C   UNL     1       3.306   3.380  18.340  0.00  0.00    +0.000 A 
ATOM      3  C   UNL     1       2.408   3.411  19.338  0.00  0.00    +0.000 A 
ATOM      4  C   UNL     1       1.903   4.718  19.744  0.00  0.00    +0.000 A 
ATOM      5  O   UNL     1       1.071   4.849  20.636  0.00  0.00    +0.000 OA
ATOM      6  C   UNL     1       2.413   5.916  19.008  0.00  0.00    +0.000 A 
ATOM      7  N   UNL     1       3.229   5.798  17.998  0.00  0.00    +0.000 NA
ATOM      8  N   UNL     1       3.738   4.558  17.684  0.00  0.00    +0.000 N 
ENDROOT
BRANCH   8   9
ATOM      9  C   UNL     1       4.837   4.628  16.753  0.00  0.00    +0.000 A 
ATOM     10  C   UNL     1       4.606   4.371  15.381  0.00  0.00    +0.000 A 
ATOM     11  C   UNL     1       5.630   4.346  14.428  0.00  0.00    +0.000 A 
ATOM     12  C   UNL     1       6.922   4.665  14.803  0.00  0.00    +0.000 A 
ATOM     13  C   UNL     1       7.177   5.001  16.125  0.00  0.00    +0.000 A 
ATOM     14  C   UNL     1       6.166   4.967  17.124  0.00  0.00    +0.000 A 
BRANCH  14  15
ATOM     15  C   UNL     1       6.655   5.314  18.517  0.00  0.00    +0.000 C 
ATOM     16  F   UNL     1       5.963   4.810  19.571  0.00  0.00    +0.000 F 
ATOM     17  F   UNL     1       7.927   4.834  18.717  0.00  0.00    +0.000 F 
ATOM     18  F   UNL     1       6.763   6.661  18.707  0.00  0.00    +0.000 F 
ENDBRANCH  14  15
ENDBRANCH   8   9
BRANCH   6  19
ATOM     19  C   UNL     1       2.053   7.322  19.465  0.00  0.00    +0.000 C 
ATOM     20  O   UNL     1       2.590   8.288  18.949  0.00  0.00    +0.000 OA
ATOM     21  N   UNL     1       1.166   7.410  20.520  0.00  0.00    +0.000 N 
ATOM     22  H   UNL     1       0.952   6.551  21.028  0.00  0.00    +0.000 HD
BRANCH  21  23
ATOM     23  C   UNL     1       0.712   8.698  21.098  0.00  0.00    +0.000 C 
ATOM     24  C   UNL     1       1.578   9.171  22.303  0.00  0.00    +0.000 C 
ATOM     25  C   UNL     1       0.289   9.520  23.063  0.00  0.00    +0.000 C 
ATOM     26  C   UNL     1      -0.457   8.562  22.126  0.00  0.00    +0.000 C 
BRANCH  23  27
ATOM     27  C   UNL     1       0.459   9.768  20.030  0.00  0.00    +0.000 A 
ATOM     28  N   UNL     1      -0.574   9.790  19.215  0.00  0.00    +0.000 NA
ATOM     29  N   UNL     1      -0.465  10.910  18.421  0.00  0.00    +0.000 NA
ATOM     30  C   UNL     1       0.646  11.524  18.755  0.00  0.00    +0.000 A 
ATOM     31  N   UNL     1       1.260  10.842  19.758  0.00  0.00    +0.000 N 
ATOM     32  H   UNL     1       2.147  11.052  20.188  0.00  0.00    +0.000 HD
ENDBRANCH  23  27
ENDBRANCH  21  23
ENDBRANCH   6  19
TORSDOF 5
ENDMDL
MODEL 5
REMARK VINA RESULT:      -7.7      3.138      8.067
REMARK  Name = 
REMARK  6 active torsions:
REMARK  status: ('A' for Active; 'I' for Inactive)
REMARK    1  A    between atoms: C_1  and  C_2
REMARK    2  A    between atoms: C_6  and  C_7
REMARK    3  A    between atoms: N_9  and  C_10
REMARK    4  A    between atoms: C_10  and  C_11
REMARK    5  A    between atoms: N_20  and  C_21
REMARK    6  A    between atoms: C_26  and  C_27
REMARK                            x       y       z     vdW  Elec       q    Type
REMARK                         _______ _______ _______ _____ _____    ______ ____
ROOT
ATOM      1  C   UNL     1      -0.580  10.429  22.240  0.00  0.00    +0.000 C 
ATOM      2  C   UNL     1       0.320   9.616  21.338  0.00  0.00    +0.000 A 
ATOM      3  C   UNL     1       0.470   8.326  21.682  0.00  0.00    +0.000 A 
ATOM      4  C   UNL     1       1.265   7.485  20.795  0.00  0.00    +0.000 A 
ATOM      5  O   UNL     1       1.470   6.298  21.030  0.00  0.00    +0.000 OA
ATOM      6  C   UNL     1       1.863   8.126  19.583  0.00  0.00    +0.000 A 
ATOM      7  N   UNL     1       1.736   9.404  19.358  0.00  0.00    +0.000 NA
ATOM      8  N   UNL     1       0.923  10.156  20.176  0.00  0.00    +0.000 N 
ENDROOT
BRANCH   8   9
ATOM      9  C   UNL     1       0.646  11.464  19.635  0.00  0.00    +0.000 A 
ATOM     10  C   UNL     1       1.406  12.574  20.074  0.00  0.00    +0.000 A 
ATOM     11  C   UNL     1       1.151  13.884  19.655  0.00  0.00    +0.000 A 
ATOM     12  C   UNL     1       0.174  14.121  18.706  0.00  0.00    +0.000 A 
ATOM     13  C   UNL     1      -0.540  13.049  18.191  0.00  0.00    +0.000 A 
ATOM     14  C   UNL     1      -0.346  11.718  18.651  0.00  0.00    +0.000 A 
BRANCH  14  15
ATOM     15  C   UNL     1      -1.260  10.696  18.004  0.00  0.00    +0.000 C 
ATOM     16  F   UNL     1      -0.679   9.645  17.367  0.00  0.00    +0.000 F 
ATOM     17  F   UNL     1      -2.055  10.091  18.947  0.00  0.00    +0.000 F 
ATOM     18  F   UNL     1      -2.138  11.266  17.130  0.00  0.00    +0.000 F 
ENDBRANCH  14  15
ENDBRANCH   8   9
BRANCH   6  19
ATOM     19  C   UNL     1       2.579   7.291  18.533  0.00  0.00    +0.000 C 
ATOM     20  O   UNL     1       2.256   7.376  17.360  0.00  0.00    +0.000 OA
ATOM     21  N   UNL     1       3.530   6.407  19.004  0.00  0.00    +0.000 N 
ATOM     22  H   UNL     1       3.567   6.247  20.011  0.00  0.00    +0.000 HD
BRANCH  21  23
ATOM     23  C   UNL     1       4.318   5.511  18.122  0.00  0.00    +0.000 C 
ATOM     24  C   UNL     1       5.838   5.492  18.465  0.00  0.00    +0.000 C 
ATOM     25  C   UNL     1       6.153   5.601  16.965  0.00  0.00    +0.000 C 
ATOM     26  C   UNL     1       4.739   6.159  16.764  0.00  0.00    +0.000 C 
BRANCH  23  27
ATOM     27  C   UNL     1       3.678   4.128  17.962  0.00  0.00    +0.000 A 
ATOM     28  N   UNL     1       2.505   3.899  17.411  0.00  0.00    +0.000 NA
ATOM     29  N   UNL     1       2.285   2.540  17.428  0.00  0.00    +0.000 NA
ATOM     30  C   UNL     1       3.318   1.980  18.013  0.00  0.00    +0.000 A 
ATOM     31  N   UNL     1       4.215   2.939  18.368  0.00  0.00    +0.000 N 
ATOM     32  H   UNL     1       5.080   2.812  18.870  0.00  0.00    +0.000 HD
ENDBRANCH  23  27
ENDBRANCH  21  23
ENDBRANCH   6  19
TORSDOF 5
ENDMDL
MODEL 6
REMARK VINA RESULT:      -7.7      3.190      7.735
REMARK  Name = 
REMARK  6 active torsions:
REMARK  status: ('A' for Active; 'I' for Inactive)
REMARK    1  A    between atoms: C_1  and  C_2
REMARK    2  A    between atoms: C_6  and  C_7
REMARK    3  A    between atoms: N_9  and  C_10
REMARK    4  A    between atoms: C_10  and  C_11
REMARK    5  A    between atoms: N_20  and  C_21
REMARK    6  A    between atoms: C_26  and  C_27
REMARK                            x       y       z     vdW  Elec       q    Type
REMARK                         _______ _______ _______ _____ _____    ______ ____
ROOT
ATOM      1  C   UNL     1      -0.727  10.554  22.259  0.00  0.00    +0.000 C 
ATOM      2  C   UNL     1       0.199   9.714  21.408  0.00  0.00    +0.000 A 
ATOM      3  C   UNL     1       0.309   8.426  21.771  0.00  0.00    +0.000 A 
ATOM      4  C   UNL     1       1.130   7.561  20.932  0.00  0.00    +0.000 A 
ATOM      5  O   UNL     1       1.302   6.374  21.188  0.00  0.00    +0.000 OA
ATOM      6  C   UNL     1       1.795   8.178  19.743  0.00  0.00    +0.000 A 
ATOM      7  N   UNL     1       1.702   9.456  19.498  0.00  0.00    +0.000 NA
ATOM      8  N   UNL     1       0.866  10.231  20.270  0.00  0.00    +0.000 N 
ENDROOT
BRANCH   8   9
ATOM      9  C   UNL     1       0.638  11.538  19.703  0.00  0.00    +0.000 A 
ATOM     10  C   UNL     1       1.417  12.633  20.144  0.00  0.00    +0.000 A 
ATOM     11  C   UNL     1       1.209  13.943  19.700  0.00  0.00    +0.000 A 
ATOM     12  C   UNL     1       0.262  14.192  18.723  0.00  0.00    +0.000 A 
ATOM     13  C   UNL     1      -0.469  13.132  18.206  0.00  0.00    +0.000 A 
ATOM     14  C   UNL     1      -0.323  11.803  18.691  0.00  0.00    +0.000 A 
BRANCH  14  15
ATOM     15  C   UNL     1      -1.248  10.796  18.036  0.00  0.00    +0.000 C 
ATOM     16  F   UNL     1      -0.682   9.714  17.441  0.00  0.00    +0.000 F 
ATOM     17  F   UNL     1      -2.092  10.238  18.966  0.00  0.00    +0.000 F 
ATOM     18  F   UNL     1      -2.079  11.375  17.122  0.00  0.00    +0.000 F 
ENDBRANCH  14  15
ENDBRANCH   8   9
BRANCH   6  19
ATOM     19  C   UNL     1       2.544   7.319  18.736  0.00  0.00    +0.000 C 
ATOM     20  O   UNL     1       2.391   7.505  17.540  0.00  0.00    +0.000 OA
ATOM     21  N   UNL     1       3.317   6.301  19.261  0.00  0.00    +0.000 N 
ATOM     22  H   UNL     1       3.201   6.085  20.251  0.00  0.00    +0.000 HD
BRANCH  21  23
ATOM     23  C   UNL     1       4.107   5.364  18.425  0.00  0.00    +0.000 C 
ATOM     24  C   UNL     1       3.245   4.603  17.373  0.00  0.00    +0.000 C 
ATOM     25  C   UNL     1       3.971   3.303  17.753  0.00  0.00    +0.000 C 
ATOM     26  C   UNL     1       4.347   3.967  19.084  0.00  0.00    +0.000 C 
BRANCH  23  27
ATOM     27  C   UNL     1       5.385   6.001  17.869  0.00  0.00    +0.000 A 
ATOM     28  N   UNL     1       5.474   6.625  16.713  0.00  0.00    +0.000 NA
ATOM     29  N   UNL     1       6.767   7.077  16.573  0.00  0.00    +0.000 NA
ATOM     30  C   UNL     1       7.437   6.692  17.634  0.00  0.00    +0.000 A 
ATOM     31  N   UNL     1       6.610   6.010  18.472  0.00  0.00    +0.000 N 
ATOM     32  H   UNL     1       6.854   5.561  19.341  0.00  0.00    +0.000 HD
ENDBRANCH  23  27
ENDBRANCH  21  23
ENDBRANCH   6  19
TORSDOF 5
ENDMDL
MODEL 7
REMARK VINA RESULT:      -7.4      3.336      8.193
REMARK  Name = 
REMARK  6 active torsions:
REMARK  status: ('A' for Active; 'I' for Inactive)
REMARK    1  A    between atoms: C_1  and  C_2
REMARK    2  A    between atoms: C_6  and  C_7
REMARK    3  A    between atoms: N_9  and  C_10
REMARK    4  A    between atoms: C_10  and  C_11
REMARK    5  A    between atoms: N_20  and  C_21
REMARK    6  A    between atoms: C_26  and  C_27
REMARK                            x       y       z     vdW  Elec       q    Type
REMARK                         _______ _______ _______ _____ _____    ______ ____
ROOT
ATOM      1  C   UNL     1      -0.889  11.185  22.429  0.00  0.00    +0.000 C 
ATOM      2  C   UNL     1      -0.001  10.288  21.598  0.00  0.00    +0.000 A 
ATOM      3  C   UNL     1       0.019   8.995  21.963  0.00  0.00    +0.000 A 
ATOM      4  C   UNL     1       0.801   8.079  21.141  0.00  0.00    +0.000 A 
ATOM      5  O   UNL     1       0.890   6.883  21.400  0.00  0.00    +0.000 OA
ATOM      6  C   UNL     1       1.530   8.652  19.967  0.00  0.00    +0.000 A 
ATOM      7  N   UNL     1       1.524   9.933  19.722  0.00  0.00    +0.000 NA
ATOM      8  N   UNL     1       0.722  10.760  20.476  0.00  0.00    +0.000 N 
ENDROOT
BRANCH   8   9
ATOM      9  C   UNL     1       0.592  12.078  19.905  0.00  0.00    +0.000 A 
ATOM     10  C   UNL     1       1.471  13.107  20.319  0.00  0.00    +0.000 A 
ATOM     11  C   UNL     1       1.362  14.427  19.871  0.00  0.00    +0.000 A 
ATOM     12  C   UNL     1       0.415  14.750  18.916  0.00  0.00    +0.000 A 
ATOM     13  C   UNL     1      -0.414  13.753  18.425  0.00  0.00    +0.000 A 
ATOM     14  C   UNL     1      -0.368  12.419  18.915  0.00  0.00    +0.000 A 
BRANCH  14  15
ATOM     15  C   UNL     1      -1.391  11.490  18.290  0.00  0.00    +0.000 C 
ATOM     16  F   UNL     1      -2.114  11.963  17.241  0.00  0.00    +0.000 F 
ATOM     17  F   UNL     1      -0.779  10.374  17.772  0.00  0.00    +0.000 F 
ATOM     18  F   UNL     1      -2.275  11.001  19.207  0.00  0.00    +0.000 F 
ENDBRANCH  14  15
ENDBRANCH   8   9
BRANCH   6  19
ATOM     19  C   UNL     1       2.244   7.745  18.976  0.00  0.00    +0.000 C 
ATOM     20  O   UNL     1       2.091   7.911  17.777  0.00  0.00    +0.000 OA
ATOM     21  N   UNL     1       2.985   6.714  19.520  0.00  0.00    +0.000 N 
ATOM     22  H   UNL     1       2.866   6.523  20.515  0.00  0.00    +0.000 HD
BRANCH  21  23
ATOM     23  C   UNL     1       3.738   5.732  18.701  0.00  0.00    +0.000 C 
ATOM     24  C   UNL     1       5.175   5.458  19.239  0.00  0.00    +0.000 C 
ATOM     25  C   UNL     1       5.707   5.564  17.801  0.00  0.00    +0.000 C 
ATOM     26  C   UNL     1       4.438   6.349  17.447  0.00  0.00    +0.000 C 
BRANCH  23  27
ATOM     27  C   UNL     1       2.920   4.476  18.384  0.00  0.00    +0.000 A 
ATOM     28  N   UNL     1       1.747   4.471  17.788  0.00  0.00    +0.000 NA
ATOM     29  N   UNL     1       1.341   3.161  17.658  0.00  0.00    +0.000 NA
ATOM     30  C   UNL     1       2.266   2.406  18.203  0.00  0.00    +0.000 A 
ATOM     31  N   UNL     1       3.274   3.189  18.675  0.00  0.00    +0.000 N 
ATOM     32  H   UNL     1       4.095   2.892  19.178  0.00  0.00    +0.000 HD
ENDBRANCH  23  27
ENDBRANCH  21  23
ENDBRANCH   6  19
TORSDOF 5
ENDMDL
MODEL 8
REMARK VINA RESULT:      -7.4      3.255      7.830
REMARK  Name = 
REMARK  6 active torsions:
REMARK  status: ('A' for Active; 'I' for Inactive)
REMARK    1  A    between atoms: C_1  and  C_2
REMARK    2  A    between atoms: C_6  and  C_7
REMARK    3  A    between atoms: N_9  and  C_10
REMARK    4  A    between atoms: C_10  and  C_11
REMARK    5  A    between atoms: N_20  and  C_21
REMARK    6  A    between atoms: C_26  and  C_27
REMARK                            x       y       z     vdW  Elec       q    Type
REMARK                         _______ _______ _______ _____ _____    ______ ____
ROOT
ATOM      1  C   UNL     1      -0.775  11.233  22.406  0.00  0.00    +0.000 C 
ATOM      2  C   UNL     1       0.092  10.288  21.603  0.00  0.00    +0.000 A 
ATOM      3  C   UNL     1       0.064   9.004  21.995  0.00  0.00    +0.000 A 
ATOM      4  C   UNL     1       0.822   8.045  21.201  0.00  0.00    +0.000 A 
ATOM      5  O   UNL     1       0.869   6.852  21.486  0.00  0.00    +0.000 OA
ATOM      6  C   UNL     1       1.582   8.567  20.023  0.00  0.00    +0.000 A 
ATOM      7  N   UNL     1       1.622   9.842  19.750  0.00  0.00    +0.000 NA
ATOM      8  N   UNL     1       0.841  10.712  20.479  0.00  0.00    +0.000 N 
ENDROOT
BRANCH   8   9
ATOM      9  C   UNL     1       0.761  12.021  19.879  0.00  0.00    +0.000 A 
ATOM     10  C   UNL     1       1.696  13.016  20.249  0.00  0.00    +0.000 A 
ATOM     11  C   UNL     1       1.641  14.329  19.771  0.00  0.00    +0.000 A 
ATOM     12  C   UNL     1       0.689  14.674  18.829  0.00  0.00    +0.000 A 
ATOM     13  C   UNL     1      -0.197  13.706  18.379  0.00  0.00    +0.000 A 
ATOM     14  C   UNL     1      -0.204  12.384  18.901  0.00  0.00    +0.000 A 
BRANCH  14  15
ATOM     15  C   UNL     1      -1.283  11.491  18.320  0.00  0.00    +0.000 C 
ATOM     16  F   UNL     1      -2.010  11.976  17.281  0.00  0.00    +0.000 F 
ATOM     17  F   UNL     1      -0.736  10.338  17.810  0.00  0.00    +0.000 F 
ATOM     18  F   UNL     1      -2.164  11.061  19.268  0.00  0.00    +0.000 F 
ENDBRANCH  14  15
ENDBRANCH   8   9
BRANCH   6  19
ATOM     19  C   UNL     1       2.275   7.616  19.059  0.00  0.00    +0.000 C 
ATOM     20  O   UNL     1       2.272   7.851  17.862  0.00  0.00    +0.000 OA
ATOM     21  N   UNL     1       2.816   6.473  19.616  0.00  0.00    +0.000 N 
ATOM     22  H   UNL     1       2.569   6.258  20.582  0.00  0.00    +0.000 HD
BRANCH  21  23
ATOM     23  C   UNL     1       3.519   5.436  18.823  0.00  0.00    +0.000 C 
ATOM     24  C   UNL     1       2.620   4.782  17.730  0.00  0.00    +0.000 C 
ATOM     25  C   UNL     1       3.153   3.403  18.150  0.00  0.00    +0.000 C 
ATOM     26  C   UNL     1       3.545   4.025  19.496  0.00  0.00    +0.000 C 
BRANCH  23  27
ATOM     27  C   UNL     1       4.894   5.899  18.330  0.00  0.00    +0.000 A 
ATOM     28  N   UNL     1       6.041   5.584  18.892  0.00  0.00    +0.000 NA
ATOM     29  N   UNL     1       7.050   6.165  18.156  0.00  0.00    +0.000 NA
ATOM     30  C   UNL     1       6.487   6.840  17.181  0.00  0.00    +0.000 A 
ATOM     31  N   UNL     1       5.136   6.705  17.253  0.00  0.00    +0.000 N 
ATOM     32  H   UNL     1       4.444   7.143  16.665  0.00  0.00    +0.000 HD
ENDBRANCH  23  27
ENDBRANCH  21  23
ENDBRANCH   6  19
TORSDOF 5
ENDMDL
MODEL 9
REMARK VINA RESULT:      -7.2      2.574      3.402
REMARK  Name = 
REMARK  6 active torsions:
REMARK  status: ('A' for Active; 'I' for Inactive)
REMARK    1  A    between atoms: C_1  and  C_2
REMARK    2  A    between atoms: C_6  and  C_7
REMARK    3  A    between atoms: N_9  and  C_10
REMARK    4  A    between atoms: C_10  and  C_11
REMARK    5  A    between atoms: N_20  and  C_21
REMARK    6  A    between atoms: C_26  and  C_27
REMARK                            x       y       z     vdW  Elec       q    Type
REMARK                         _______ _______ _______ _____ _____    ______ ____
ROOT
ATOM      1  C   UNL     1       3.529   4.117  20.512  0.00  0.00    +0.000 C 
ATOM      2  C   UNL     1       2.929   5.412  20.013  0.00  0.00    +0.000 A 
ATOM      3  C   UNL     1       2.126   6.049  20.880  0.00  0.00    +0.000 A 
ATOM      4  C   UNL     1       1.589   7.342  20.471  0.00  0.00    +0.000 A 
ATOM      5  O   UNL     1       0.837   7.994  21.188  0.00  0.00    +0.000 OA
ATOM      6  C   UNL     1       1.962   7.848  19.113  0.00  0.00    +0.000 A 
ATOM      7  N   UNL     1       2.685   7.135  18.296  0.00  0.00    +0.000 NA
ATOM      8  N   UNL     1       3.232   5.951  18.739  0.00  0.00    +0.000 N 
ENDROOT
BRANCH   8   9
ATOM      9  C   UNL     1       4.235   5.433  17.841  0.00  0.00    +0.000 A 
ATOM     10  C   UNL     1       5.475   6.104  17.719  0.00  0.00    +0.000 A 
ATOM     11  C   UNL     1       6.469   5.710  16.818  0.00  0.00    +0.000 A 
ATOM     12  C   UNL     1       6.292   4.567  16.061  0.00  0.00    +0.000 A 
ATOM     13  C   UNL     1       5.123   3.834  16.209  0.00  0.00    +0.000 A 
ATOM     14  C   UNL     1       4.070   4.252  17.068  0.00  0.00    +0.000 A 
BRANCH  14  15
ATOM     15  C   UNL     1       2.854   3.346  17.050  0.00  0.00    +0.000 C 
ATOM     16  F   UNL     1       1.658   3.890  17.394  0.00  0.00    +0.000 F 
ATOM     17  F   UNL     1       2.629   2.863  15.784  0.00  0.00    +0.000 F 
ATOM     18  F   UNL     1       3.030   2.230  17.816  0.00  0.00    +0.000 F 
ENDBRANCH  14  15
ENDBRANCH   8   9
BRANCH   6  19
ATOM     19  C   UNL     1       1.567   9.248  18.669  0.00  0.00    +0.000 C 
ATOM     20  O   UNL     1       1.671   9.569  17.496  0.00  0.00    +0.000 OA
ATOM     21  N   UNL     1       1.173  10.116  19.670  0.00  0.00    +0.000 N 
ATOM     22  H   UNL     1       1.337   9.827  20.634  0.00  0.00    +0.000 HD
BRANCH  21  23
ATOM     23  C   UNL     1       0.763  11.519  19.417  0.00  0.00    +0.000 C 
ATOM     24  C   UNL     1       1.826  12.336  18.624  0.00  0.00    +0.000 C 
ATOM     25  C   UNL     1       1.624  13.504  19.602  0.00  0.00    +0.000 C 
ATOM     26  C   UNL     1       1.052  12.493  20.604  0.00  0.00    +0.000 C 
BRANCH  23  27
ATOM     27  C   UNL     1      -0.666  11.628  18.875  0.00  0.00    +0.000 A 
ATOM     28  N   UNL     1      -1.716  11.983  19.585  0.00  0.00    +0.000 NA
ATOM     29  N   UNL     1      -2.812  11.988  18.751  0.00  0.00    +0.000 NA
ATOM     30  C   UNL     1      -2.404  11.610  17.562  0.00  0.00    +0.000 A 
ATOM     31  N   UNL     1      -1.066  11.370  17.594  0.00  0.00    +0.000 N 
ATOM     32  H   UNL     1      -0.487  11.027  16.843  0.00  0.00    +0.000 HD
ENDBRANCH  23  27
ENDBRANCH  21  23
ENDBRANCH   6  19
TORSDOF 5
ENDMDL
