MODEL 1
REMARK VINA RESULT:      -9.4      0.000      0.000
REMARK  Name = 
REMARK  4 active torsions:
REMARK  status: ('A' for Active; 'I' for Inactive)
REMARK    1  A    between atoms: N_3  and  C_4
REMARK    2  A    between atoms: C_8  and  C_9
REMARK    3  A    between atoms: C_10  and  C_11
REMARK    4  A    between atoms: C_24  and  O_25
REMARK                            x       y       z     vdW  Elec       q    Type
REMARK                         _______ _______ _______ _____ _____    ______ ____
ROOT
ATOM      1  O   UNL     1       4.164   2.313  17.801  0.00  0.00    +0.000 OA
ATOM      2  C   UNL     1       4.095   3.195  18.651  0.00  0.00    +0.000 C 
ATOM      3  N   UNL     1       4.903   4.349  18.727  0.00  0.00    +0.000 N 
ATOM      4  N   UNL     1       3.131   3.178  19.677  0.00  0.00    +0.000 N 
ATOM      5  C   UNL     1       2.099   2.150  20.095  0.00  0.00    +0.000 C 
ATOM      6  C   UNL     1       1.728   2.611  21.543  0.00  0.00    +0.000 C 
ATOM      7  C   UNL     1       2.439   3.945  21.666  0.00  0.00    +0.000 C 
ATOM      8  C   UNL     1       2.613   4.406  20.219  0.00  0.00    +0.000 C 
ATOM      9  C   UNL     1       1.389   4.762  19.327  0.00  0.00    +0.000 C 
ATOM     10  C   UNL     1       0.750   3.578  18.535  0.00  0.00    +0.000 C 
ATOM     11  C   UNL     1       0.762   2.277  19.315  0.00  0.00    +0.000 C 
ATOM     12  H   UNL     1       4.944   4.729  19.656  0.00  0.00    +0.000 HD
ENDROOT
BRANCH   3  13
ATOM     13  C   UNL     1       5.801   4.991  17.834  0.00  0.00    +0.000 A 
ATOM     14  C   UNL     1       6.139   4.496  16.581  0.00  0.00    +0.000 A 
ATOM     15  C   UNL     1       7.054   5.201  15.775  0.00  0.00    +0.000 A 
ATOM     16  C   UNL     1       7.630   6.407  16.207  0.00  0.00    +0.000 A 
ATOM     17  C   UNL     1       7.305   6.950  17.453  0.00  0.00    +0.000 A 
ATOM     18  C   UNL     1       6.378   6.232  18.250  0.00  0.00    +0.000 A 
BRANCH  17  19
ATOM     19  C   UNL     1       7.937   8.187  17.868  0.00  0.00    +0.000 C 
ATOM     20  C   UNL     1       8.530   9.178  18.261  0.00  0.00    +0.000 C 
BRANCH  20  21
ATOM     21  C   UNL     1       9.244  10.313  18.770  0.00  0.00    +0.000 A 
ATOM     22  C   UNL     1       9.935  11.184  17.909  0.00  0.00    +0.000 A 
ATOM     23  C   UNL     1      10.658  12.268  18.419  0.00  0.00    +0.000 A 
ATOM     24  C   UNL     1      10.701  12.504  19.792  0.00  0.00    +0.000 A 
ATOM     25  C   UNL     1      10.010  11.654  20.656  0.00  0.00    +0.000 A 
ATOM     26  C   UNL     1       9.285  10.568  20.145  0.00  0.00    +0.000 A 
ENDBRANCH  20  21
ENDBRANCH  17  19
ENDBRANCH   3  13
BRANCH  10  27
ATOM     27  O   UNL     1       1.416   3.346  17.289  0.00  0.00    +0.000 OA
ATOM     28  H   UNL     1       2.380   3.254  17.453  0.00  0.00    +0.000 HD
ENDBRANCH  10  27
TORSDOF 4
ENDMDL
MODEL 2
REMARK VINA RESULT:      -9.3      0.879      1.058
REMARK  Name = 
REMARK  4 active torsions:
REMARK  status: ('A' for Active; 'I' for Inactive)
REMARK    1  A    between atoms: N_3  and  C_4
REMARK    2  A    between atoms: C_8  and  C_9
REMARK    3  A    between atoms: C_10  and  C_11
REMARK    4  A    between atoms: C_24  and  O_25
REMARK                            x       y       z     vdW  Elec       q    Type
REMARK                         _______ _______ _______ _____ _____    ______ ____
ROOT
ATOM      1  O   UNL     1       5.169   2.886  19.463  0.00  0.00    +0.000 OA
ATOM      2  C   UNL     1       4.381   3.824  19.396  0.00  0.00    +0.000 C 
ATOM      3  N   UNL     1       4.620   5.078  18.795  0.00  0.00    +0.000 N 
ATOM      4  N   UNL     1       3.070   3.741  19.901  0.00  0.00    +0.000 N 
ATOM      5  C   UNL     1       2.345   2.676  20.699  0.00  0.00    +0.000 C 
ATOM      6  C   UNL     1       1.118   3.458  21.273  0.00  0.00    +0.000 C 
ATOM      7  C   UNL     1       1.201   4.792  20.556  0.00  0.00    +0.000 C 
ATOM      8  C   UNL     1       1.998   4.481  19.289  0.00  0.00    +0.000 C 
ATOM      9  C   UNL     1       1.433   3.544  18.184  0.00  0.00    +0.000 C 
ATOM     10  C   UNL     1       1.730   2.021  18.358  0.00  0.00    +0.000 C 
ATOM     11  C   UNL     1       1.699   1.581  19.808  0.00  0.00    +0.000 C 
ATOM     12  H   UNL     1       4.024   5.799  19.160  0.00  0.00    +0.000 HD
ENDROOT
BRANCH   3  13
ATOM     13  C   UNL     1       5.619   5.584  17.922  0.00  0.00    +0.000 A 
ATOM     14  C   UNL     1       5.969   4.996  16.714  0.00  0.00    +0.000 A 
ATOM     15  C   UNL     1       6.987   5.567  15.927  0.00  0.00    +0.000 A 
ATOM     16  C   UNL     1       7.655   6.735  16.333  0.00  0.00    +0.000 A 
ATOM     17  C   UNL     1       7.323   7.370  17.531  0.00  0.00    +0.000 A 
ATOM     18  C   UNL     1       6.293   6.786  18.310  0.00  0.00    +0.000 A 
BRANCH  17  19
ATOM     19  C   UNL     1       8.051   8.562  17.922  0.00  0.00    +0.000 C 
ATOM     20  C   UNL     1       8.720   9.511  18.295  0.00  0.00    +0.000 C 
BRANCH  20  21
ATOM     21  C   UNL     1       9.522  10.597  18.781  0.00  0.00    +0.000 A 
ATOM     22  C   UNL     1      10.262  11.406  17.901  0.00  0.00    +0.000 A 
ATOM     23  C   UNL     1      11.068  12.441  18.389  0.00  0.00    +0.000 A 
ATOM     24  C   UNL     1      11.147  12.687  19.758  0.00  0.00    +0.000 A 
ATOM     25  C   UNL     1      10.409  11.898  20.642  0.00  0.00    +0.000 A 
ATOM     26  C   UNL     1       9.601  10.862  20.153  0.00  0.00    +0.000 A 
ENDBRANCH  20  21
ENDBRANCH  17  19
ENDBRANCH   3  13
BRANCH  10  27
ATOM     27  O   UNL     1       3.007   1.660  17.818  0.00  0.00    +0.000 OA
ATOM     28  H   UNL     1       2.907   1.466  16.861  0.00  0.00    +0.000 HD
ENDBRANCH  10  27
TORSDOF 4
ENDMDL
MODEL 3
REMARK VINA RESULT:      -9.0      5.863      7.733
REMARK  Name = 
REMARK  4 active torsions:
REMARK  status: ('A' for Active; 'I' for Inactive)
REMARK    1  A    between atoms: N_3  and  C_4
REMARK    2  A    between atoms: C_8  and  C_9
REMARK    3  A    between atoms: C_10  and  C_11
REMARK    4  A    between atoms: C_24  and  O_25
REMARK                            x       y       z     vdW  Elec       q    Type
REMARK                         _______ _______ _______ _____ _____    ______ ____
ROOT
ATOM      1  O   UNL     1       3.741   5.628  18.386  0.00  0.00    +0.000 OA
ATOM      2  C   UNL     1       3.032   5.543  19.384  0.00  0.00    +0.000 C 
ATOM      3  N   UNL     1       2.292   6.588  19.977  0.00  0.00    +0.000 N 
ATOM      4  N   UNL     1       2.835   4.327  20.066  0.00  0.00    +0.000 N 
ATOM      5  C   UNL     1       3.448   2.951  19.902  0.00  0.00    +0.000 C 
ATOM      6  C   UNL     1       3.099   2.261  21.261  0.00  0.00    +0.000 C 
ATOM      7  C   UNL     1       2.164   3.258  21.917  0.00  0.00    +0.000 C 
ATOM      8  C   UNL     1       1.596   4.058  20.745  0.00  0.00    +0.000 C 
ATOM      9  C   UNL     1       0.679   3.395  19.678  0.00  0.00    +0.000 C 
ATOM     10  C   UNL     1       1.406   2.741  18.461  0.00  0.00    +0.000 C 
ATOM     11  C   UNL     1       2.714   2.079  18.847  0.00  0.00    +0.000 C 
ATOM     12  H   UNL     1       2.095   6.418  20.947  0.00  0.00    +0.000 HD
ENDROOT
BRANCH   3  13
ATOM     13  C   UNL     1       1.912   7.892  19.563  0.00  0.00    +0.000 A 
ATOM     14  C   UNL     1       2.188   8.422  18.309  0.00  0.00    +0.000 A 
ATOM     15  C   UNL     1       1.782   9.734  18.001  0.00  0.00    +0.000 A 
ATOM     16  C   UNL     1       1.090  10.524  18.935  0.00  0.00    +0.000 A 
ATOM     17  C   UNL     1       0.775  10.024  20.201  0.00  0.00    +0.000 A 
ATOM     18  C   UNL     1       1.185   8.699  20.495  0.00  0.00    +0.000 A 
BRANCH  17  19
ATOM     19  C   UNL     1       0.077  10.879  21.141  0.00  0.00    +0.000 C 
ATOM     20  C   UNL     1      -0.587  11.567  21.898  0.00  0.00    +0.000 C 
BRANCH  20  21
ATOM     21  C   UNL     1      -1.410  12.378  22.748  0.00  0.00    +0.000 A 
ATOM     22  C   UNL     1      -2.669  11.931  23.185  0.00  0.00    +0.000 A 
ATOM     23  C   UNL     1      -3.478  12.745  23.986  0.00  0.00    +0.000 A 
ATOM     24  C   UNL     1      -3.045  14.014  24.366  0.00  0.00    +0.000 A 
ATOM     25  C   UNL     1      -1.792  14.466  23.948  0.00  0.00    +0.000 A 
ATOM     26  C   UNL     1      -0.982  13.650  23.147  0.00  0.00    +0.000 A 
ENDBRANCH  20  21
ENDBRANCH  17  19
ENDBRANCH   3  13
BRANCH  10  27
ATOM     27  O   UNL     1       1.686   3.693  17.429  0.00  0.00    +0.000 OA
ATOM     28  H   UNL     1       1.282   3.383  16.589  0.00  0.00    +0.000 HD
ENDBRANCH  10  27
TORSDOF 4
ENDMDL
MODEL 4
REMARK VINA RESULT:      -8.8      0.391      1.007
REMARK  Name = 
REMARK  4 active torsions:
REMARK  status: ('A' for Active; 'I' for Inactive)
REMARK    1  A    between atoms: N_3  and  C_4
REMARK    2  A    between atoms: C_8  and  C_9
REMARK    3  A    between atoms: C_10  and  C_11
REMARK    4  A    between atoms: C_24  and  O_25
REMARK                            x       y       z     vdW  Elec       q    Type
REMARK                         _______ _______ _______ _____ _____    ______ ____
ROOT
ATOM      1  O   UNL     1       3.948   2.328  17.202  0.00  0.00    +0.000 OA
ATOM      2  C   UNL     1       4.025   3.024  18.210  0.00  0.00    +0.000 C 
ATOM      3  N   UNL     1       4.953   4.062  18.442  0.00  0.00    +0.000 N 
ATOM      4  N   UNL     1       3.130   2.888  19.288  0.00  0.00    +0.000 N 
ATOM      5  C   UNL     1       2.023   1.895  19.581  0.00  0.00    +0.000 C 
ATOM      6  C   UNL     1       1.794   2.087  21.116  0.00  0.00    +0.000 C 
ATOM      7  C   UNL     1       2.646   3.300  21.438  0.00  0.00    +0.000 C 
ATOM      8  C   UNL     1       2.778   4.024  20.098  0.00  0.00    +0.000 C 
ATOM      9  C   UNL     1       1.545   4.661  19.396  0.00  0.00    +0.000 C 
ATOM     10  C   UNL     1       0.737   3.724  18.444  0.00  0.00    +0.000 C 
ATOM     11  C   UNL     1       0.661   2.297  18.953  0.00  0.00    +0.000 C 
ATOM     12  H   UNL     1       5.091   4.242  19.420  0.00  0.00    +0.000 HD
ENDROOT
BRANCH   3  13
ATOM     13  C   UNL     1       5.856   4.786  17.620  0.00  0.00    +0.000 A 
ATOM     14  C   UNL     1       6.264   4.372  16.359  0.00  0.00    +0.000 A 
ATOM     15  C   UNL     1       7.177   5.155  15.628  0.00  0.00    +0.000 A 
ATOM     16  C   UNL     1       7.683   6.360  16.144  0.00  0.00    +0.000 A 
ATOM     17  C   UNL     1       7.286   6.823  17.400  0.00  0.00    +0.000 A 
ATOM     18  C   UNL     1       6.361   6.027  18.122  0.00  0.00    +0.000 A 
BRANCH  17  19
ATOM     19  C   UNL     1       7.847   8.062  17.904  0.00  0.00    +0.000 C 
ATOM     20  C   UNL     1       8.399   9.074  18.301  0.00  0.00    +0.000 C 
BRANCH  20  21
ATOM     21  C   UNL     1       9.097  10.234  18.776  0.00  0.00    +0.000 A 
ATOM     22  C   UNL     1       9.407  10.390  20.139  0.00  0.00    +0.000 A 
ATOM     23  C   UNL     1      10.057  11.542  20.596  0.00  0.00    +0.000 A 
ATOM     24  C   UNL     1      10.411  12.554  19.705  0.00  0.00    +0.000 A 
ATOM     25  C   UNL     1      10.119  12.406  18.348  0.00  0.00    +0.000 A 
ATOM     26  C   UNL     1       9.469  11.252  17.890  0.00  0.00    +0.000 A 
ENDBRANCH  20  21
ENDBRANCH  17  19
ENDBRANCH   3  13
BRANCH  10  27
ATOM     27  O   UNL     1       1.297   3.688  17.126  0.00  0.00    +0.000 OA
ATOM     28  H   UNL     1       0.951   2.900  16.653  0.00  0.00    +0.000 HD
ENDBRANCH  10  27
TORSDOF 4
ENDMDL
MODEL 5
REMARK VINA RESULT:      -8.7      1.496      2.073
REMARK  Name = 
REMARK  4 active torsions:
REMARK  status: ('A' for Active; 'I' for Inactive)
REMARK    1  A    between atoms: N_3  and  C_4
REMARK    2  A    between atoms: C_8  and  C_9
REMARK    3  A    between atoms: C_10  and  C_11
REMARK    4  A    between atoms: C_24  and  O_25
REMARK                            x       y       z     vdW  Elec       q    Type
REMARK                         _______ _______ _______ _____ _____    ______ ____
ROOT
ATOM      1  O   UNL     1       2.642   5.972  17.814  0.00  0.00    +0.000 OA
ATOM      2  C   UNL     1       2.972   4.791  17.792  0.00  0.00    +0.000 C 
ATOM      3  N   UNL     1       4.125   4.254  17.180  0.00  0.00    +0.000 N 
ATOM      4  N   UNL     1       2.224   3.789  18.439  0.00  0.00    +0.000 N 
ATOM      5  C   UNL     1       0.888   3.810  19.155  0.00  0.00    +0.000 C 
ATOM      6  C   UNL     1       0.504   2.294  19.199  0.00  0.00    +0.000 C 
ATOM      7  C   UNL     1       1.761   1.611  18.695  0.00  0.00    +0.000 C 
ATOM      8  C   UNL     1       2.870   2.623  18.980  0.00  0.00    +0.000 C 
ATOM      9  C   UNL     1       3.262   3.010  20.435  0.00  0.00    +0.000 C 
ATOM     10  C   UNL     1       2.463   4.192  21.069  0.00  0.00    +0.000 C 
ATOM     11  C   UNL     1       1.005   4.203  20.652  0.00  0.00    +0.000 C 
ATOM     12  H   UNL     1       4.023   3.281  16.956  0.00  0.00    +0.000 HD
ENDROOT
BRANCH   3  13
ATOM     13  C   UNL     1       5.321   4.814  16.658  0.00  0.00    +0.000 A 
ATOM     14  C   UNL     1       6.054   4.254  15.620  0.00  0.00    +0.000 A 
ATOM     15  C   UNL     1       7.238   4.879  15.184  0.00  0.00    +0.000 A 
ATOM     16  C   UNL     1       7.695   6.070  15.773  0.00  0.00    +0.000 A 
ATOM     17  C   UNL     1       6.979   6.677  16.807  0.00  0.00    +0.000 A 
ATOM     18  C   UNL     1       5.786   6.040  17.231  0.00  0.00    +0.000 A 
BRANCH  17  19
ATOM     19  C   UNL     1       7.496   7.895  17.400  0.00  0.00    +0.000 C 
ATOM     20  C   UNL     1       8.011   8.899  17.865  0.00  0.00    +0.000 C 
BRANCH  20  21
ATOM     21  C   UNL     1       8.667  10.051  18.413  0.00  0.00    +0.000 A 
ATOM     22  C   UNL     1       8.687  11.275  17.721  0.00  0.00    +0.000 A 
ATOM     23  C   UNL     1       9.360  12.383  18.249  0.00  0.00    +0.000 A 
ATOM     24  C   UNL     1      10.019  12.290  19.474  0.00  0.00    +0.000 A 
ATOM     25  C   UNL     1       9.996  11.084  20.176  0.00  0.00    +0.000 A 
ATOM     26  C   UNL     1       9.322   9.975  19.647  0.00  0.00    +0.000 A 
ENDBRANCH  20  21
ENDBRANCH  17  19
ENDBRANCH   3  13
BRANCH  10  27
ATOM     27  O   UNL     1       3.026   5.464  20.725  0.00  0.00    +0.000 OA
ATOM     28  H   UNL     1       3.538   5.804  21.491  0.00  0.00    +0.000 HD
ENDBRANCH  10  27
TORSDOF 4
ENDMDL
MODEL 6
REMARK VINA RESULT:      -8.4      5.659      7.877
REMARK  Name = 
REMARK  4 active torsions:
REMARK  status: ('A' for Active; 'I' for Inactive)
REMARK    1  A    between atoms: N_3  and  C_4
REMARK    2  A    between atoms: C_8  and  C_9
REMARK    3  A    between atoms: C_10  and  C_11
REMARK    4  A    between atoms: C_24  and  O_25
REMARK                            x       y       z     vdW  Elec       q    Type
REMARK                         _______ _______ _______ _____ _____    ______ ____
ROOT
ATOM      1  O   UNL     1       3.702   5.378  18.211  0.00  0.00    +0.000 OA
ATOM      2  C   UNL     1       3.044   5.380  19.246  0.00  0.00    +0.000 C 
ATOM      3  N   UNL     1       2.381   6.489  19.815  0.00  0.00    +0.000 N 
ATOM      4  N   UNL     1       2.830   4.213  20.004  0.00  0.00    +0.000 N 
ATOM      5  C   UNL     1       3.372   2.803  19.887  0.00  0.00    +0.000 C 
ATOM      6  C   UNL     1       3.065   2.204  21.299  0.00  0.00    +0.000 C 
ATOM      7  C   UNL     1       2.209   3.278  21.944  0.00  0.00    +0.000 C 
ATOM      8  C   UNL     1       1.617   4.039  20.758  0.00  0.00    +0.000 C 
ATOM      9  C   UNL     1       0.618   3.363  19.776  0.00  0.00    +0.000 C 
ATOM     10  C   UNL     1       1.250   2.611  18.564  0.00  0.00    +0.000 C 
ATOM     11  C   UNL     1       2.547   1.910  18.921  0.00  0.00    +0.000 C 
ATOM     12  H   UNL     1       2.229   6.380  20.801  0.00  0.00    +0.000 HD
ENDROOT
BRANCH   3  13
ATOM     13  C   UNL     1       2.038   7.785  19.347  0.00  0.00    +0.000 A 
ATOM     14  C   UNL     1       2.548   8.355  18.188  0.00  0.00    +0.000 A 
ATOM     15  C   UNL     1       2.156   9.656  17.819  0.00  0.00    +0.000 A 
ATOM     16  C   UNL     1       1.246  10.393  18.595  0.00  0.00    +0.000 A 
ATOM     17  C   UNL     1       0.695   9.851  19.758  0.00  0.00    +0.000 A 
ATOM     18  C   UNL     1       1.094   8.539  20.114  0.00  0.00    +0.000 A 
BRANCH  17  19
ATOM     19  C   UNL     1      -0.225  10.654  20.541  0.00  0.00    +0.000 C 
ATOM     20  C   UNL     1      -1.062  11.309  21.139  0.00  0.00    +0.000 C 
BRANCH  20  21
ATOM     21  C   UNL     1      -2.074  12.087  21.793  0.00  0.00    +0.000 A 
ATOM     22  C   UNL     1      -2.159  12.141  23.195  0.00  0.00    +0.000 A 
ATOM     23  C   UNL     1      -3.172  12.876  23.822  0.00  0.00    +0.000 A 
ATOM     24  C   UNL     1      -4.113  13.570  23.064  0.00  0.00    +0.000 A 
ATOM     25  C   UNL     1      -4.033  13.534  21.671  0.00  0.00    +0.000 A 
ATOM     26  C   UNL     1      -3.018  12.798  21.043  0.00  0.00    +0.000 A 
ENDBRANCH  20  21
ENDBRANCH  17  19
ENDBRANCH   3  13
BRANCH  10  27
ATOM     27  O   UNL     1       1.518   3.492  17.467  0.00  0.00    +0.000 OA
ATOM     28  H   UNL     1       1.111   3.123  16.653  0.00  0.00    +0.000 HD
ENDBRANCH  10  27
TORSDOF 4
ENDMDL
MODEL 7
REMARK VINA RESULT:      -8.3      6.044      7.783
REMARK  Name = 
REMARK  4 active torsions:
REMARK  status: ('A' for Active; 'I' for Inactive)
REMARK    1  A    between atoms: N_3  and  C_4
REMARK    2  A    between atoms: C_8  and  C_9
REMARK    3  A    between atoms: C_10  and  C_11
REMARK    4  A    between atoms: C_24  and  O_25
REMARK                            x       y       z     vdW  Elec       q    Type
REMARK                         _______ _______ _______ _____ _____    ______ ____
ROOT
ATOM      1  O   UNL     1       4.229   6.125  19.458  0.00  0.00    +0.000 OA
ATOM      2  C   UNL     1       3.102   5.801  19.819  0.00  0.00    +0.000 C 
ATOM      3  N   UNL     1       1.993   6.661  19.971  0.00  0.00    +0.000 N 
ATOM      4  N   UNL     1       2.756   4.466  20.100  0.00  0.00    +0.000 N 
ATOM      5  C   UNL     1       3.571   3.191  20.172  0.00  0.00    +0.000 C 
ATOM      6  C   UNL     1       2.625   2.229  20.963  0.00  0.00    +0.000 C 
ATOM      7  C   UNL     1       1.332   3.016  21.045  0.00  0.00    +0.000 C 
ATOM      8  C   UNL     1       1.418   3.990  19.870  0.00  0.00    +0.000 C 
ATOM      9  C   UNL     1       1.409   3.488  18.397  0.00  0.00    +0.000 C 
ATOM     10  C   UNL     1       2.800   3.131  17.786  0.00  0.00    +0.000 C 
ATOM     11  C   UNL     1       3.736   2.494  18.795  0.00  0.00    +0.000 C 
ATOM     12  H   UNL     1       1.307   6.293  20.605  0.00  0.00    +0.000 HD
ENDROOT
BRANCH   3  13
ATOM     13  C   UNL     1       1.709   7.993  19.569  0.00  0.00    +0.000 A 
ATOM     14  C   UNL     1       2.047   8.522  18.331  0.00  0.00    +0.000 A 
ATOM     15  C   UNL     1       1.735   9.862  18.034  0.00  0.00    +0.000 A 
ATOM     16  C   UNL     1       1.076  10.682  18.965  0.00  0.00    +0.000 A 
ATOM     17  C   UNL     1       0.701  10.186  20.216  0.00  0.00    +0.000 A 
ATOM     18  C   UNL     1       1.017   8.833  20.498  0.00  0.00    +0.000 A 
BRANCH  17  19
ATOM     19  C   UNL     1       0.040  11.071  21.155  0.00  0.00    +0.000 C 
ATOM     20  C   UNL     1      -0.586  11.818  21.888  0.00  0.00    +0.000 C 
BRANCH  20  21
ATOM     21  C   UNL     1      -1.349  12.718  22.705  0.00  0.00    +0.000 A 
ATOM     22  C   UNL     1      -0.821  13.955  23.115  0.00  0.00    +0.000 A 
ATOM     23  C   UNL     1      -1.561  14.809  23.941  0.00  0.00    +0.000 A 
ATOM     24  C   UNL     1      -2.838  14.447  24.366  0.00  0.00    +0.000 A 
ATOM     25  C   UNL     1      -3.378  13.227  23.956  0.00  0.00    +0.000 A 
ATOM     26  C   UNL     1      -2.637  12.372  23.129  0.00  0.00    +0.000 A 
ENDBRANCH  20  21
ENDBRANCH  17  19
ENDBRANCH   3  13
BRANCH  10  27
ATOM     27  O   UNL     1       3.459   4.282  17.245  0.00  0.00    +0.000 OA
ATOM     28  H   UNL     1       2.893   4.674  16.544  0.00  0.00    +0.000 HD
ENDBRANCH  10  27
TORSDOF 4
ENDMDL
MODEL 8
REMARK VINA RESULT:      -8.2      1.414      2.075
REMARK  Name = 
REMARK  4 active torsions:
REMARK  status: ('A' for Active; 'I' for Inactive)
REMARK    1  A    between atoms: N_3  and  C_4
REMARK    2  A    between atoms: C_8  and  C_9
REMARK    3  A    between atoms: C_10  and  C_11
REMARK    4  A    between atoms: C_24  and  O_25
REMARK                            x       y       z     vdW  Elec       q    Type
REMARK                         _______ _______ _______ _____ _____    ______ ____
ROOT
ATOM      1  O   UNL     1       4.209   5.495  20.105  0.00  0.00    +0.000 OA
ATOM      2  C   UNL     1       3.668   4.893  19.183  0.00  0.00    +0.000 C 
ATOM      3  N   UNL     1       4.058   4.916  17.826  0.00  0.00    +0.000 N 
ATOM      4  N   UNL     1       2.567   4.040  19.384  0.00  0.00    +0.000 N 
ATOM      5  C   UNL     1       1.721   3.731  20.602  0.00  0.00    +0.000 C 
ATOM      6  C   UNL     1       0.447   3.078  19.973  0.00  0.00    +0.000 C 
ATOM      7  C   UNL     1       0.833   2.915  18.516  0.00  0.00    +0.000 C 
ATOM      8  C   UNL     1       2.361   2.894  18.540  0.00  0.00    +0.000 C 
ATOM      9  C   UNL     1       3.147   1.737  19.223  0.00  0.00    +0.000 C 
ATOM     10  C   UNL     1       3.446   1.916  20.744  0.00  0.00    +0.000 C 
ATOM     11  C   UNL     1       2.315   2.602  21.487  0.00  0.00    +0.000 C 
ATOM     12  H   UNL     1       3.304   4.680  17.206  0.00  0.00    +0.000 HD
ENDROOT
BRANCH   3  13
ATOM     13  C   UNL     1       5.216   5.358  17.135  0.00  0.00    +0.000 A 
ATOM     14  C   UNL     1       5.711   4.762  15.982  0.00  0.00    +0.000 A 
ATOM     15  C   UNL     1       6.878   5.267  15.380  0.00  0.00    +0.000 A 
ATOM     16  C   UNL     1       7.556   6.376  15.915  0.00  0.00    +0.000 A 
ATOM     17  C   UNL     1       7.083   7.017  17.062  0.00  0.00    +0.000 A 
ATOM     18  C   UNL     1       5.903   6.501  17.654  0.00  0.00    +0.000 A 
BRANCH  17  19
ATOM     19  C   UNL     1       7.823   8.146  17.593  0.00  0.00    +0.000 C 
ATOM     20  C   UNL     1       8.368   9.132  18.060  0.00  0.00    +0.000 C 
BRANCH  20  21
ATOM     21  C   UNL     1       8.961  10.323  18.597  0.00  0.00    +0.000 A 
ATOM     22  C   UNL     1       9.086  11.488  17.820  0.00  0.00    +0.000 A 
ATOM     23  C   UNL     1       9.698  12.633  18.343  0.00  0.00    +0.000 A 
ATOM     24  C   UNL     1      10.190  12.637  19.647  0.00  0.00    +0.000 A 
ATOM     25  C   UNL     1      10.062  11.490  20.433  0.00  0.00    +0.000 A 
ATOM     26  C   UNL     1       9.449  10.344  19.909  0.00  0.00    +0.000 A 
ENDBRANCH  20  21
ENDBRANCH  17  19
ENDBRANCH   3  13
BRANCH  10  27
ATOM     27  O   UNL     1       4.640   2.675  20.969  0.00  0.00    +0.000 OA
ATOM     28  H   UNL     1       4.741   3.333  20.247  0.00  0.00    +0.000 HD
ENDBRANCH  10  27
TORSDOF 4
ENDMDL
MODEL 9
REMARK VINA RESULT:      -8.0      3.614      7.618
REMARK  Name = 
REMARK  4 active torsions:
REMARK  status: ('A' for Active; 'I' for Inactive)
REMARK    1  A    between atoms: N_3  and  C_4
REMARK    2  A    between atoms: C_8  and  C_9
REMARK    3  A    between atoms: C_10  and  C_11
REMARK    4  A    between atoms: C_24  and  O_25
REMARK                            x       y       z     vdW  Elec       q    Type
REMARK                         _______ _______ _______ _____ _____    ______ ____
ROOT
ATOM      1  O   UNL     1       6.095   4.024  18.769  0.00  0.00    +0.000 OA
ATOM      2  C   UNL     1       5.335   4.048  17.806  0.00  0.00    +0.000 C 
ATOM      3  N   UNL     1       3.934   3.883  17.842  0.00  0.00    +0.000 N 
ATOM      4  N   UNL     1       5.788   4.293  16.496  0.00  0.00    +0.000 N 
ATOM      5  C   UNL     1       7.174   4.450  15.904  0.00  0.00    +0.000 C 
ATOM      6  C   UNL     1       6.916   4.241  14.376  0.00  0.00    +0.000 C 
ATOM      7  C   UNL     1       5.402   4.206  14.290  0.00  0.00    +0.000 C 
ATOM      8  C   UNL     1       4.943   4.957  15.539  0.00  0.00    +0.000 C 
ATOM      9  C   UNL     1       5.230   6.475  15.724  0.00  0.00    +0.000 C 
ATOM     10  C   UNL     1       6.591   6.839  16.397  0.00  0.00    +0.000 C 
ATOM     11  C   UNL     1       7.713   5.904  15.991  0.00  0.00    +0.000 C 
ATOM     12  H   UNL     1       3.562   3.571  16.963  0.00  0.00    +0.000 HD
ENDROOT
BRANCH   3  13
ATOM     13  C   UNL     1       2.961   3.892  18.876  0.00  0.00    +0.000 A 
ATOM     14  C   UNL     1       2.392   2.748  19.420  0.00  0.00    +0.000 A 
ATOM     15  C   UNL     1       1.422   2.864  20.433  0.00  0.00    +0.000 A 
ATOM     16  C   UNL     1       1.018   4.119  20.917  0.00  0.00    +0.000 A 
ATOM     17  C   UNL     1       1.577   5.295  20.411  0.00  0.00    +0.000 A 
ATOM     18  C   UNL     1       2.557   5.162  19.396  0.00  0.00    +0.000 A 
BRANCH  17  19
ATOM     19  C   UNL     1       1.117   6.571  20.926  0.00  0.00    +0.000 C 
ATOM     20  C   UNL     1       0.703   7.663  21.276  0.00  0.00    +0.000 C 
BRANCH  20  21
ATOM     21  C   UNL     1       0.226   8.968  21.633  0.00  0.00    +0.000 A 
ATOM     22  C   UNL     1      -0.377   9.206  22.881  0.00  0.00    +0.000 A 
ATOM     23  C   UNL     1      -0.871  10.475  23.206  0.00  0.00    +0.000 A 
ATOM     24  C   UNL     1      -0.768  11.525  22.296  0.00  0.00    +0.000 A 
ATOM     25  C   UNL     1      -0.161  11.306  21.059  0.00  0.00    +0.000 A 
ATOM     26  C   UNL     1       0.334  10.035  20.734  0.00  0.00    +0.000 A 
ENDBRANCH  20  21
ENDBRANCH  17  19
ENDBRANCH   3  13
BRANCH  10  27
ATOM     27  O   UNL     1       6.503   6.822  17.826  0.00  0.00    +0.000 OA
ATOM     28  H   UNL     1       7.374   7.074  18.204  0.00  0.00    +0.000 HD
ENDBRANCH  10  27
TORSDOF 4
ENDMDL
