MODEL 1
REMARK VINA RESULT:      -8.9      0.000      0.000
REMARK  Name = 
REMARK  6 active torsions:
REMARK  status: ('A' for Active; 'I' for Inactive)
REMARK    1  A    between atoms: C_1  and  C_2
REMARK    2  A    between atoms: C_5  and  C_6
REMARK    3  A    between atoms: C_7  and  C_8
REMARK    4  A    between atoms: C_8  and  N_9
REMARK    5  A    between atoms: N_9  and  C_10
REMARK    6  A    between atoms: C_12  and  C_13
REMARK                            x       y       z     vdW  Elec       q    Type
REMARK                         _______ _______ _______ _____ _____    ______ ____
ROOT
ATOM      1  C   UNL     1       3.092   6.165  18.541  0.00  0.00    +0.000 A 
ATOM      2  N   UNL     1       2.502   7.315  18.900  0.00  0.00    +0.000 NA
ATOM      3  C   UNL     1       1.842   7.338  20.070  0.00  0.00    +0.000 A 
ATOM      4  N   UNL     1       1.692   6.279  20.879  0.00  0.00    +0.000 NA
ATOM      5  C   UNL     1       2.268   5.134  20.511  0.00  0.00    +0.000 A 
ATOM      6  C   UNL     1       2.104   4.013  21.317  0.00  0.00    +0.000 A 
ATOM      7  C   UNL     1       2.688   2.783  21.000  0.00  0.00    +0.000 A 
ATOM      8  C   UNL     1       3.467   2.664  19.857  0.00  0.00    +0.000 A 
ATOM      9  C   UNL     1       3.638   3.771  19.030  0.00  0.00    +0.000 A 
ATOM     10  C   UNL     1       3.031   5.015  19.343  0.00  0.00    +0.000 A 
ENDROOT
BRANCH   3  11
ATOM     11  C   UNL     1       1.293   8.626  20.517  0.00  0.00    +0.000 A 
ATOM     12  C   UNL     1       0.804   9.593  19.621  0.00  0.00    +0.000 A 
ATOM     13  C   UNL     1       0.271  10.793  20.089  0.00  0.00    +0.000 A 
ATOM     14  C   UNL     1       0.239  11.006  21.455  0.00  0.00    +0.000 A 
ATOM     15  N   UNL     1       0.694  10.117  22.360  0.00  0.00    +0.000 NA
ATOM     16  C   UNL     1       1.205   8.957  21.869  0.00  0.00    +0.000 A 
ENDBRANCH   3  11
BRANCH   1  17
ATOM     17  N   UNL     1       3.837   6.134  17.346  0.00  0.00    +0.000 N 
ATOM     18  H   UNL     1       3.835   5.181  16.991  0.00  0.00    +0.000 HD
BRANCH  17  19
ATOM     19  C   UNL     1       5.199   6.658  17.448  0.00  0.00    +0.000 C 
BRANCH  19  26
ATOM     20  C   UNL     1       7.672   5.774  19.365  0.00  0.00    +0.000 C 
ATOM     21  C   UNL     1       7.347   5.264  18.009  0.00  0.00    +0.000 A 
ATOM     22  N   UNL     1       8.116   4.326  17.444  0.00  0.00    +0.000 NA
ATOM     23  N   UNL     1       7.548   4.112  16.250  0.00  0.00    +0.000 N 
ATOM     24  C   UNL     1       6.444   4.885  16.019  0.00  0.00    +0.000 A 
ATOM     25  C   UNL     1       5.680   4.804  14.753  0.00  0.00    +0.000 C 
ATOM     26  C   UNL     1       6.271   5.652  17.159  0.00  0.00    +0.000 A 
ATOM     27  H   UNL     1       7.969   3.421  15.638  0.00  0.00    +0.000 HD
ENDBRANCH  19  26
ENDBRANCH  17  19
ENDBRANCH   1  17
TORSDOF 4
ENDMDL
MODEL 2
REMARK VINA RESULT:      -8.8      0.194      1.623
REMARK  Name = 
REMARK  6 active torsions:
REMARK  status: ('A' for Active; 'I' for Inactive)
REMARK    1  A    between atoms: C_1  and  C_2
REMARK    2  A    between atoms: C_5  and  C_6
REMARK    3  A    between atoms: C_7  and  C_8
REMARK    4  A    between atoms: C_8  and  N_9
REMARK    5  A    between atoms: N_9  and  C_10
REMARK    6  A    between atoms: C_12  and  C_13
REMARK                            x       y       z     vdW  Elec       q    Type
REMARK                         _______ _______ _______ _____ _____    ______ ____
ROOT
ATOM      1  C   UNL     1       3.192   6.177  18.513  0.00  0.00    +0.000 A 
ATOM      2  N   UNL     1       2.595   7.324  18.871  0.00  0.00    +0.000 NA
ATOM      3  C   UNL     1       1.916   7.336  20.030  0.00  0.00    +0.000 A 
ATOM      4  N   UNL     1       1.753   6.270  20.827  0.00  0.00    +0.000 NA
ATOM      5  C   UNL     1       2.334   5.128  20.458  0.00  0.00    +0.000 A 
ATOM      6  C   UNL     1       2.157   3.999  21.251  0.00  0.00    +0.000 A 
ATOM      7  C   UNL     1       2.746   2.772  20.933  0.00  0.00    +0.000 A 
ATOM      8  C   UNL     1       3.545   2.664  19.802  0.00  0.00    +0.000 A 
ATOM      9  C   UNL     1       3.730   3.779  18.988  0.00  0.00    +0.000 A 
ATOM     10  C   UNL     1       3.117   5.019  19.302  0.00  0.00    +0.000 A 
ENDROOT
BRANCH   3  11
ATOM     11  C   UNL     1       1.360   8.620  20.480  0.00  0.00    +0.000 A 
ATOM     12  C   UNL     1       0.943   9.620  19.584  0.00  0.00    +0.000 A 
ATOM     13  C   UNL     1       0.400  10.815  20.053  0.00  0.00    +0.000 A 
ATOM     14  C   UNL     1       0.285  10.990  21.420  0.00  0.00    +0.000 A 
ATOM     15  N   UNL     1       0.667  10.067  22.325  0.00  0.00    +0.000 NA
ATOM     16  C   UNL     1       1.191   8.914  21.833  0.00  0.00    +0.000 A 
ENDBRANCH   3  11
BRANCH   1  17
ATOM     17  N   UNL     1       3.958   6.157  17.330  0.00  0.00    +0.000 N 
ATOM     18  H   UNL     1       3.978   5.203  16.977  0.00  0.00    +0.000 HD
BRANCH  17  19
ATOM     19  C   UNL     1       5.308   6.705  17.454  0.00  0.00    +0.000 C 
BRANCH  19  26
ATOM     20  C   UNL     1       6.125   5.020  14.796  0.00  0.00    +0.000 C 
ATOM     21  C   UNL     1       6.759   4.965  16.137  0.00  0.00    +0.000 A 
ATOM     22  N   UNL     1       7.798   4.149  16.353  0.00  0.00    +0.000 NA
ATOM     23  N   UNL     1       8.106   4.345  17.642  0.00  0.00    +0.000 N 
ATOM     24  C   UNL     1       7.298   5.252  18.269  0.00  0.00    +0.000 A 
ATOM     25  C   UNL     1       7.470   5.600  19.698  0.00  0.00    +0.000 C 
ATOM     26  C   UNL     1       6.402   5.692  17.308  0.00  0.00    +0.000 A 
ATOM     27  H   UNL     1       8.883   3.822  18.031  0.00  0.00    +0.000 HD
ENDBRANCH  19  26
ENDBRANCH  17  19
ENDBRANCH   1  17
TORSDOF 4
ENDMDL
MODEL 3
REMARK VINA RESULT:      -8.4      2.731      7.037
REMARK  Name = 
REMARK  6 active torsions:
REMARK  status: ('A' for Active; 'I' for Inactive)
REMARK    1  A    between atoms: C_1  and  C_2
REMARK    2  A    between atoms: C_5  and  C_6
REMARK    3  A    between atoms: C_7  and  C_8
REMARK    4  A    between atoms: C_8  and  N_9
REMARK    5  A    between atoms: N_9  and  C_10
REMARK    6  A    between atoms: C_12  and  C_13
REMARK                            x       y       z     vdW  Elec       q    Type
REMARK                         _______ _______ _______ _____ _____    ______ ____
ROOT
ATOM      1  C   UNL     1       4.674   4.468  18.727  0.00  0.00    +0.000 A 
ATOM      2  N   UNL     1       5.320   4.227  17.576  0.00  0.00    +0.000 NA
ATOM      3  C   UNL     1       5.155   5.106  16.574  0.00  0.00    +0.000 A 
ATOM      4  N   UNL     1       4.352   6.179  16.627  0.00  0.00    +0.000 NA
ATOM      5  C   UNL     1       3.699   6.405  17.768  0.00  0.00    +0.000 A 
ATOM      6  C   UNL     1       2.838   7.494  17.842  0.00  0.00    +0.000 A 
ATOM      7  C   UNL     1       2.131   7.800  19.008  0.00  0.00    +0.000 A 
ATOM      8  C   UNL     1       2.291   7.009  20.138  0.00  0.00    +0.000 A 
ATOM      9  C   UNL     1       3.143   5.909  20.086  0.00  0.00    +0.000 A 
ATOM     10  C   UNL     1       3.847   5.589  18.896  0.00  0.00    +0.000 A 
ENDROOT
BRANCH   3  11
ATOM     11  C   UNL     1       5.951   4.906  15.354  0.00  0.00    +0.000 A 
ATOM     12  C   UNL     1       5.541   4.053  14.315  0.00  0.00    +0.000 A 
ATOM     13  C   UNL     1       6.316   3.909  13.164  0.00  0.00    +0.000 A 
ATOM     14  C   UNL     1       7.495   4.624  13.076  0.00  0.00    +0.000 A 
ATOM     15  N   UNL     1       7.938   5.456  14.040  0.00  0.00    +0.000 NA
ATOM     16  C   UNL     1       7.158   5.574  15.146  0.00  0.00    +0.000 A 
ENDBRANCH   3  11
BRANCH   1  17
ATOM     17  N   UNL     1       4.878   3.591  19.810  0.00  0.00    +0.000 N 
ATOM     18  H   UNL     1       5.879   3.454  19.928  0.00  0.00    +0.000 HD
BRANCH  17  19
ATOM     19  C   UNL     1       4.176   2.312  19.716  0.00  0.00    +0.000 C 
BRANCH  19  26
ATOM     20  C   UNL     1       2.521   2.246  16.919  0.00  0.00    +0.000 C 
ATOM     21  C   UNL     1       1.977   2.392  18.292  0.00  0.00    +0.000 A 
ATOM     22  N   UNL     1       0.658   2.514  18.480  0.00  0.00    +0.000 NA
ATOM     23  N   UNL     1       0.526   2.631  19.808  0.00  0.00    +0.000 N 
ATOM     24  C   UNL     1       1.714   2.598  20.484  0.00  0.00    +0.000 A 
ATOM     25  C   UNL     1       1.781   2.721  21.958  0.00  0.00    +0.000 C 
ATOM     26  C   UNL     1       2.695   2.431  19.522  0.00  0.00    +0.000 A 
ATOM     27  H   UNL     1      -0.409   2.732  20.187  0.00  0.00    +0.000 HD
ENDBRANCH  19  26
ENDBRANCH  17  19
ENDBRANCH   1  17
TORSDOF 4
ENDMDL
MODEL 4
REMARK VINA RESULT:      -8.4      1.956      4.904
REMARK  Name = 
REMARK  6 active torsions:
REMARK  status: ('A' for Active; 'I' for Inactive)
REMARK    1  A    between atoms: C_1  and  C_2
REMARK    2  A    between atoms: C_5  and  C_6
REMARK    3  A    between atoms: C_7  and  C_8
REMARK    4  A    between atoms: C_8  and  N_9
REMARK    5  A    between atoms: N_9  and  C_10
REMARK    6  A    between atoms: C_12  and  C_13
REMARK                            x       y       z     vdW  Elec       q    Type
REMARK                         _______ _______ _______ _____ _____    ______ ____
ROOT
ATOM      1  C   UNL     1       4.658   4.979  18.810  0.00  0.00    +0.000 A 
ATOM      2  N   UNL     1       3.808   5.930  19.226  0.00  0.00    +0.000 NA
ATOM      3  C   UNL     1       3.445   6.872  18.340  0.00  0.00    +0.000 A 
ATOM      4  N   UNL     1       3.911   6.955  17.085  0.00  0.00    +0.000 NA
ATOM      5  C   UNL     1       4.768   6.017  16.681  0.00  0.00    +0.000 A 
ATOM      6  C   UNL     1       5.289   6.095  15.394  0.00  0.00    +0.000 A 
ATOM      7  C   UNL     1       6.182   5.141  14.899  0.00  0.00    +0.000 A 
ATOM      8  C   UNL     1       6.561   4.071  15.699  0.00  0.00    +0.000 A 
ATOM      9  C   UNL     1       6.058   3.976  16.994  0.00  0.00    +0.000 A 
ATOM     10  C   UNL     1       5.165   4.954  17.502  0.00  0.00    +0.000 A 
ENDROOT
BRANCH   3  11
ATOM     11  C   UNL     1       2.427   7.846  18.759  0.00  0.00    +0.000 A 
ATOM     12  C   UNL     1       1.881   8.796  17.878  0.00  0.00    +0.000 A 
ATOM     13  C   UNL     1       0.900   9.688  18.311  0.00  0.00    +0.000 A 
ATOM     14  C   UNL     1       0.483   9.613  19.627  0.00  0.00    +0.000 A 
ATOM     15  N   UNL     1       0.971   8.724  20.515  0.00  0.00    +0.000 NA
ATOM     16  C   UNL     1       1.924   7.869  20.059  0.00  0.00    +0.000 A 
ENDBRANCH   3  11
BRANCH   1  17
ATOM     17  N   UNL     1       5.007   3.949  19.705  0.00  0.00    +0.000 N 
ATOM     18  H   UNL     1       6.017   3.826  19.674  0.00  0.00    +0.000 HD
BRANCH  17  19
ATOM     19  C   UNL     1       4.312   2.680  19.495  0.00  0.00    +0.000 C 
BRANCH  19  26
ATOM     20  C   UNL     1       2.501   2.791  16.798  0.00  0.00    +0.000 C 
ATOM     21  C   UNL     1       2.035   2.839  18.207  0.00  0.00    +0.000 A 
ATOM     22  N   UNL     1       0.729   2.937  18.477  0.00  0.00    +0.000 NA
ATOM     23  N   UNL     1       0.672   2.961  19.815  0.00  0.00    +0.000 N 
ATOM     24  C   UNL     1       1.896   2.892  20.419  0.00  0.00    +0.000 A 
ATOM     25  C   UNL     1       2.047   2.915  21.892  0.00  0.00    +0.000 C 
ATOM     26  C   UNL     1       2.822   2.800  19.393  0.00  0.00    +0.000 A 
ATOM     27  H   UNL     1      -0.241   3.028  20.252  0.00  0.00    +0.000 HD
ENDBRANCH  19  26
ENDBRANCH  17  19
ENDBRANCH   1  17
TORSDOF 4
ENDMDL
MODEL 5
REMARK VINA RESULT:      -8.3      2.039      4.733
REMARK  Name = 
REMARK  6 active torsions:
REMARK  status: ('A' for Active; 'I' for Inactive)
REMARK    1  A    between atoms: C_1  and  C_2
REMARK    2  A    between atoms: C_5  and  C_6
REMARK    3  A    between atoms: C_7  and  C_8
REMARK    4  A    between atoms: C_8  and  N_9
REMARK    5  A    between atoms: N_9  and  C_10
REMARK    6  A    between atoms: C_12  and  C_13
REMARK                            x       y       z     vdW  Elec       q    Type
REMARK                         _______ _______ _______ _____ _____    ______ ____
ROOT
ATOM      1  C   UNL     1       4.755   4.962  18.661  0.00  0.00    +0.000 A 
ATOM      2  N   UNL     1       3.920   5.918  19.095  0.00  0.00    +0.000 NA
ATOM      3  C   UNL     1       3.539   6.858  18.214  0.00  0.00    +0.000 A 
ATOM      4  N   UNL     1       3.974   6.934  16.948  0.00  0.00    +0.000 NA
ATOM      5  C   UNL     1       4.816   5.990  16.526  0.00  0.00    +0.000 A 
ATOM      6  C   UNL     1       5.305   6.061  15.226  0.00  0.00    +0.000 A 
ATOM      7  C   UNL     1       6.181   5.101  14.712  0.00  0.00    +0.000 A 
ATOM      8  C   UNL     1       6.575   4.032  15.507  0.00  0.00    +0.000 A 
ATOM      9  C   UNL     1       6.104   3.944  16.814  0.00  0.00    +0.000 A 
ATOM     10  C   UNL     1       5.229   4.929  17.341  0.00  0.00    +0.000 A 
ENDROOT
BRANCH   3  11
ATOM     11  C   UNL     1       2.537   7.838  18.655  0.00  0.00    +0.000 A 
ATOM     12  C   UNL     1       2.026   8.834  17.804  0.00  0.00    +0.000 A 
ATOM     13  C   UNL     1       1.058   9.730  18.256  0.00  0.00    +0.000 A 
ATOM     14  C   UNL     1       0.619   9.615  19.561  0.00  0.00    +0.000 A 
ATOM     15  N   UNL     1       1.072   8.682  20.422  0.00  0.00    +0.000 NA
ATOM     16  C   UNL     1       2.013   7.823  19.947  0.00  0.00    +0.000 A 
ENDBRANCH   3  11
BRANCH   1  17
ATOM     17  N   UNL     1       5.122   3.933  19.551  0.00  0.00    +0.000 N 
ATOM     18  H   UNL     1       5.576   3.195  19.019  0.00  0.00    +0.000 HD
BRANCH  17  19
ATOM     19  C   UNL     1       4.034   3.402  20.372  0.00  0.00    +0.000 C 
BRANCH  19  26
ATOM     20  C   UNL     1       0.901   4.262  20.496  0.00  0.00    +0.000 C 
ATOM     21  C   UNL     1       1.523   3.219  19.643  0.00  0.00    +0.000 A 
ATOM     22  N   UNL     1       0.768   2.508  18.797  0.00  0.00    +0.000 NA
ATOM     23  N   UNL     1       1.634   1.674  18.207  0.00  0.00    +0.000 N 
ATOM     24  C   UNL     1       2.920   1.813  18.648  0.00  0.00    +0.000 A 
ATOM     25  C   UNL     1       4.025   0.977  18.125  0.00  0.00    +0.000 C 
ATOM     26  C   UNL     1       2.892   2.829  19.589  0.00  0.00    +0.000 A 
ATOM     27  H   UNL     1       1.276   1.030  17.509  0.00  0.00    +0.000 HD
ENDBRANCH  19  26
ENDBRANCH  17  19
ENDBRANCH   1  17
TORSDOF 4
ENDMDL
MODEL 6
REMARK VINA RESULT:      -8.3      2.000      6.462
REMARK  Name = 
REMARK  6 active torsions:
REMARK  status: ('A' for Active; 'I' for Inactive)
REMARK    1  A    between atoms: C_1  and  C_2
REMARK    2  A    between atoms: C_5  and  C_6
REMARK    3  A    between atoms: C_7  and  C_8
REMARK    4  A    between atoms: C_8  and  N_9
REMARK    5  A    between atoms: N_9  and  C_10
REMARK    6  A    between atoms: C_12  and  C_13
REMARK                            x       y       z     vdW  Elec       q    Type
REMARK                         _______ _______ _______ _____ _____    ______ ____
ROOT
ATOM      1  C   UNL     1       2.627   6.540  19.574  0.00  0.00    +0.000 A 
ATOM      2  N   UNL     1       3.534   5.938  18.789  0.00  0.00    +0.000 NA
ATOM      3  C   UNL     1       3.977   6.615  17.717  0.00  0.00    +0.000 A 
ATOM      4  N   UNL     1       3.540   7.829  17.350  0.00  0.00    +0.000 NA
ATOM      5  C   UNL     1       2.627   8.416  18.125  0.00  0.00    +0.000 A 
ATOM      6  C   UNL     1       2.135   9.662  17.752  0.00  0.00    +0.000 A 
ATOM      7  C   UNL     1       1.187  10.343  18.521  0.00  0.00    +0.000 A 
ATOM      8  C   UNL     1       0.721   9.776  19.700  0.00  0.00    +0.000 A 
ATOM      9  C   UNL     1       1.193   8.526  20.089  0.00  0.00    +0.000 A 
ATOM     10  C   UNL     1       2.143   7.828  19.299  0.00  0.00    +0.000 A 
ENDROOT
BRANCH   3  11
ATOM     11  C   UNL     1       5.053   6.004  16.923  0.00  0.00    +0.000 A 
ATOM     12  C   UNL     1       4.873   4.816  16.192  0.00  0.00    +0.000 A 
ATOM     13  C   UNL     1       5.914   4.283  15.433  0.00  0.00    +0.000 A 
ATOM     14  C   UNL     1       7.124   4.952  15.420  0.00  0.00    +0.000 A 
ATOM     15  N   UNL     1       7.353   6.093  16.100  0.00  0.00    +0.000 NA
ATOM     16  C   UNL     1       6.317   6.585  16.828  0.00  0.00    +0.000 A 
ENDBRANCH   3  11
BRANCH   1  17
ATOM     17  N   UNL     1       2.192   5.872  20.735  0.00  0.00    +0.000 N 
ATOM     18  H   UNL     1       2.987   5.386  21.143  0.00  0.00    +0.000 HD
BRANCH  17  19
ATOM     19  C   UNL     1       1.059   4.966  20.545  0.00  0.00    +0.000 C 
BRANCH  19  26
ATOM     20  C   UNL     1       2.042   2.204  21.951  0.00  0.00    +0.000 C 
ATOM     21  C   UNL     1       1.829   2.461  20.504  0.00  0.00    +0.000 A 
ATOM     22  N   UNL     1       2.046   1.488  19.612  0.00  0.00    +0.000 NA
ATOM     23  N   UNL     1       1.770   2.057  18.432  0.00  0.00    +0.000 N 
ATOM     24  C   UNL     1       1.392   3.368  18.528  0.00  0.00    +0.000 A 
ATOM     25  C   UNL     1       1.053   4.176  17.334  0.00  0.00    +0.000 C 
ATOM     26  C   UNL     1       1.408   3.670  19.879  0.00  0.00    +0.000 A 
ATOM     27  H   UNL     1       1.863   1.491  17.596  0.00  0.00    +0.000 HD
ENDBRANCH  19  26
ENDBRANCH  17  19
ENDBRANCH   1  17
TORSDOF 4
ENDMDL
MODEL 7
REMARK VINA RESULT:      -8.3      1.388      2.315
REMARK  Name = 
REMARK  6 active torsions:
REMARK  status: ('A' for Active; 'I' for Inactive)
REMARK    1  A    between atoms: C_1  and  C_2
REMARK    2  A    between atoms: C_5  and  C_6
REMARK    3  A    between atoms: C_7  and  C_8
REMARK    4  A    between atoms: C_8  and  N_9
REMARK    5  A    between atoms: N_9  and  C_10
REMARK    6  A    between atoms: C_12  and  C_13
REMARK                            x       y       z     vdW  Elec       q    Type
REMARK                         _______ _______ _______ _____ _____    ______ ____
ROOT
ATOM      1  C   UNL     1       3.070   4.824  18.006  0.00  0.00    +0.000 A 
ATOM      2  N   UNL     1       2.706   6.113  17.933  0.00  0.00    +0.000 NA
ATOM      3  C   UNL     1       2.220   6.687  19.046  0.00  0.00    +0.000 A 
ATOM      4  N   UNL     1       2.027   6.047  20.209  0.00  0.00    +0.000 NA
ATOM      5  C   UNL     1       2.375   4.761  20.272  0.00  0.00    +0.000 A 
ATOM      6  C   UNL     1       2.159   4.067  21.457  0.00  0.00    +0.000 A 
ATOM      7  C   UNL     1       2.510   2.722  21.600  0.00  0.00    +0.000 A 
ATOM      8  C   UNL     1       3.103   2.048  20.540  0.00  0.00    +0.000 A 
ATOM      9  C   UNL     1       3.322   2.721  19.341  0.00  0.00    +0.000 A 
ATOM     10  C   UNL     1       2.950   4.082  19.191  0.00  0.00    +0.000 A 
ENDROOT
BRANCH   3  11
ATOM     11  C   UNL     1       1.929   8.127  18.999  0.00  0.00    +0.000 A 
ATOM     12  C   UNL     1       2.262   8.930  17.894  0.00  0.00    +0.000 A 
ATOM     13  C   UNL     1       1.947  10.289  17.880  0.00  0.00    +0.000 A 
ATOM     14  C   UNL     1       1.304  10.822  18.982  0.00  0.00    +0.000 A 
ATOM     15  N   UNL     1       0.961  10.101  20.068  0.00  0.00    +0.000 NA
ATOM     16  C   UNL     1       1.281   8.780  20.046  0.00  0.00    +0.000 A 
ENDBRANCH   3  11
BRANCH   1  17
ATOM     17  N   UNL     1       3.636   4.218  16.868  0.00  0.00    +0.000 N 
ATOM     18  H   UNL     1       3.013   3.478  16.555  0.00  0.00    +0.000 HD
BRANCH  17  19
ATOM     19  C   UNL     1       5.002   3.723  17.040  0.00  0.00    +0.000 C 
BRANCH  19  26
ATOM     20  C   UNL     1       5.991   3.870  13.947  0.00  0.00    +0.000 C 
ATOM     21  C   UNL     1       6.480   4.673  15.096  0.00  0.00    +0.000 A 
ATOM     22  N   UNL     1       7.440   5.587  14.913  0.00  0.00    +0.000 NA
ATOM     23  N   UNL     1       7.635   6.105  16.133  0.00  0.00    +0.000 N 
ATOM     24  C   UNL     1       6.843   5.550  17.100  0.00  0.00    +0.000 A 
ATOM     25  C   UNL     1       6.915   5.979  18.515  0.00  0.00    +0.000 C 
ATOM     26  C   UNL     1       6.059   4.608  16.455  0.00  0.00    +0.000 A 
ATOM     27  H   UNL     1       8.331   6.836  16.235  0.00  0.00    +0.000 HD
ENDBRANCH  19  26
ENDBRANCH  17  19
ENDBRANCH   1  17
TORSDOF 4
ENDMDL
MODEL 8
REMARK VINA RESULT:      -8.2      1.408      1.727
REMARK  Name = 
REMARK  6 active torsions:
REMARK  status: ('A' for Active; 'I' for Inactive)
REMARK    1  A    between atoms: C_1  and  C_2
REMARK    2  A    between atoms: C_5  and  C_6
REMARK    3  A    between atoms: C_7  and  C_8
REMARK    4  A    between atoms: C_8  and  N_9
REMARK    5  A    between atoms: N_9  and  C_10
REMARK    6  A    between atoms: C_12  and  C_13
REMARK                            x       y       z     vdW  Elec       q    Type
REMARK                         _______ _______ _______ _____ _____    ______ ____
ROOT
ATOM      1  C   UNL     1       3.020   4.778  17.995  0.00  0.00    +0.000 A 
ATOM      2  N   UNL     1       2.667   6.070  17.920  0.00  0.00    +0.000 NA
ATOM      3  C   UNL     1       2.213   6.657  19.039  0.00  0.00    +0.000 A 
ATOM      4  N   UNL     1       2.041   6.030  20.212  0.00  0.00    +0.000 NA
ATOM      5  C   UNL     1       2.379   4.741  20.277  0.00  0.00    +0.000 A 
ATOM      6  C   UNL     1       2.185   4.058  21.473  0.00  0.00    +0.000 A 
ATOM      7  C   UNL     1       2.527   2.711  21.619  0.00  0.00    +0.000 A 
ATOM      8  C   UNL     1       3.088   2.023  20.551  0.00  0.00    +0.000 A 
ATOM      9  C   UNL     1       3.285   2.684  19.341  0.00  0.00    +0.000 A 
ATOM     10  C   UNL     1       2.922   4.047  19.189  0.00  0.00    +0.000 A 
ENDROOT
BRANCH   3  11
ATOM     11  C   UNL     1       1.934   8.100  18.987  0.00  0.00    +0.000 A 
ATOM     12  C   UNL     1       2.262   8.894  17.873  0.00  0.00    +0.000 A 
ATOM     13  C   UNL     1       1.959  10.255  17.856  0.00  0.00    +0.000 A 
ATOM     14  C   UNL     1       1.333  10.801  18.961  0.00  0.00    +0.000 A 
ATOM     15  N   UNL     1       0.997  10.089  20.055  0.00  0.00    +0.000 NA
ATOM     16  C   UNL     1       1.304   8.765  20.038  0.00  0.00    +0.000 A 
ENDBRANCH   3  11
BRANCH   1  17
ATOM     17  N   UNL     1       3.554   4.158  16.849  0.00  0.00    +0.000 N 
ATOM     18  H   UNL     1       2.929   3.404  16.571  0.00  0.00    +0.000 HD
BRANCH  17  19
ATOM     19  C   UNL     1       4.931   3.682  16.981  0.00  0.00    +0.000 C 
BRANCH  19  26
ATOM     20  C   UNL     1       6.651   5.992  18.489  0.00  0.00    +0.000 C 
ATOM     21  C   UNL     1       6.717   5.599  17.059  0.00  0.00    +0.000 A 
ATOM     22  N   UNL     1       7.562   6.223  16.231  0.00  0.00    +0.000 NA
ATOM     23  N   UNL     1       7.356   5.633  15.047  0.00  0.00    +0.000 N 
ATOM     24  C   UNL     1       6.400   4.656  15.077  0.00  0.00    +0.000 A 
ATOM     25  C   UNL     1       6.020   3.892  13.867  0.00  0.00    +0.000 C 
ATOM     26  C   UNL     1       5.960   4.595  16.389  0.00  0.00    +0.000 A 
ATOM     27  H   UNL     1       7.904   5.950  14.254  0.00  0.00    +0.000 HD
ENDBRANCH  19  26
ENDBRANCH  17  19
ENDBRANCH   1  17
TORSDOF 4
ENDMDL
MODEL 9
REMARK VINA RESULT:      -8.2      1.890      6.324
REMARK  Name = 
REMARK  6 active torsions:
REMARK  status: ('A' for Active; 'I' for Inactive)
REMARK    1  A    between atoms: C_1  and  C_2
REMARK    2  A    between atoms: C_5  and  C_6
REMARK    3  A    between atoms: C_7  and  C_8
REMARK    4  A    between atoms: C_8  and  N_9
REMARK    5  A    between atoms: N_9  and  C_10
REMARK    6  A    between atoms: C_12  and  C_13
REMARK                            x       y       z     vdW  Elec       q    Type
REMARK                         _______ _______ _______ _____ _____    ______ ____
ROOT
ATOM      1  C   UNL     1       3.151   5.953  19.659  0.00  0.00    +0.000 A 
ATOM      2  N   UNL     1       3.991   5.433  18.750  0.00  0.00    +0.000 NA
ATOM      3  C   UNL     1       4.209   6.139  17.629  0.00  0.00    +0.000 A 
ATOM      4  N   UNL     1       3.609   7.302  17.333  0.00  0.00    +0.000 NA
ATOM      5  C   UNL     1       2.763   7.807  18.232  0.00  0.00    +0.000 A 
ATOM      6  C   UNL     1       2.106   8.996  17.939  0.00  0.00    +0.000 A 
ATOM      7  C   UNL     1       1.216   9.590  18.839  0.00  0.00    +0.000 A 
ATOM      8  C   UNL     1       0.980   8.993  20.070  0.00  0.00    +0.000 A 
ATOM      9  C   UNL     1       1.621   7.797  20.382  0.00  0.00    +0.000 A 
ATOM     10  C   UNL     1       2.511   7.186  19.462  0.00  0.00    +0.000 A 
ENDROOT
BRANCH   3  11
ATOM     11  C   UNL     1       5.214   5.627  16.686  0.00  0.00    +0.000 A 
ATOM     12  C   UNL     1       4.991   4.495  15.883  0.00  0.00    +0.000 A 
ATOM     13  C   UNL     1       5.963   4.056  14.984  0.00  0.00    +0.000 A 
ATOM     14  C   UNL     1       7.149   4.762  14.908  0.00  0.00    +0.000 A 
ATOM     15  N   UNL     1       7.418   5.853  15.652  0.00  0.00    +0.000 NA
ATOM     16  C   UNL     1       6.448   6.254  16.515  0.00  0.00    +0.000 A 
ENDBRANCH   3  11
BRANCH   1  17
ATOM     17  N   UNL     1       2.953   5.257  20.867  0.00  0.00    +0.000 N 
ATOM     18  H   UNL     1       3.861   5.091  21.294  0.00  0.00    +0.000 HD
BRANCH  17  19
ATOM     19  C   UNL     1       2.186   4.017  20.753  0.00  0.00    +0.000 C 
BRANCH  19  26
ATOM     20  C   UNL     1       0.987   3.650  17.754  0.00  0.00    +0.000 C 
ATOM     21  C   UNL     1       2.140   2.942  18.363  0.00  0.00    +0.000 A 
ATOM     22  N   UNL     1       2.818   2.032  17.654  0.00  0.00    +0.000 NA
ATOM     23  N   UNL     1       3.765   1.599  18.497  0.00  0.00    +0.000 N 
ATOM     24  C   UNL     1       3.717   2.189  19.729  0.00  0.00    +0.000 A 
ATOM     25  C   UNL     1       4.673   1.840  20.804  0.00  0.00    +0.000 C 
ATOM     26  C   UNL     1       2.666   3.090  19.679  0.00  0.00    +0.000 A 
ATOM     27  H   UNL     1       4.412   0.893  18.164  0.00  0.00    +0.000 HD
ENDBRANCH  19  26
ENDBRANCH  17  19
ENDBRANCH   1  17
TORSDOF 4
ENDMDL
