MODEL 1
REMARK VINA RESULT:      -8.9      0.000      0.000
REMARK  Name = 
REMARK  4 active torsions:
REMARK  status: ('A' for Active; 'I' for Inactive)
REMARK    1  A    between atoms: C_2  and  C_11
REMARK    2  A    between atoms: N_3  and  C_4
REMARK    3  A    between atoms: C_16  and  N_17
REMARK    4  A    between atoms: C_18  and  C_20
REMARK                            x       y       z     vdW  Elec       q    Type
REMARK                         _______ _______ _______ _____ _____    ______ ____
ROOT
ATOM      1  C   UNL     1       2.551   4.302  19.935  0.00  0.00    +0.000 A 
ATOM      2  C   UNL     1       1.885   4.066  21.153  0.00  0.00    +0.000 A 
ATOM      3  C   UNL     1       2.180   2.939  21.918  0.00  0.00    +0.000 A 
ATOM      4  C   UNL     1       3.123   2.026  21.463  0.00  0.00    +0.000 A 
ATOM      5  C   UNL     1       3.735   2.212  20.219  0.00  0.00    +0.000 A 
ATOM      6  C   UNL     1       3.445   3.338  19.433  0.00  0.00    +0.000 A 
ENDROOT
BRANCH   1   8
ATOM      7  O   UNL     1       1.973   5.428  17.955  0.00  0.00    +0.000 OA
ATOM      8  C   UNL     1       2.238   5.531  19.148  0.00  0.00    +0.000 C 
ATOM      9  N   UNL     1       2.352   6.719  19.853  0.00  0.00    +0.000 N 
ATOM     10  H   UNL     1       2.832   6.684  20.741  0.00  0.00    +0.000 HD
BRANCH   9  11
ATOM     11  C   UNL     1       2.012   7.999  19.385  0.00  0.00    +0.000 A 
ATOM     12  C   UNL     1       2.446   8.510  18.158  0.00  0.00    +0.000 A 
ATOM     13  C   UNL     1       2.093   9.803  17.768  0.00  0.00    +0.000 A 
ATOM     14  C   UNL     1       1.303  10.577  18.607  0.00  0.00    +0.000 A 
ATOM     15  F   UNL     1       0.985  11.826  18.246  0.00  0.00    +0.000 F 
ATOM     16  C   UNL     1       0.839  10.077  19.817  0.00  0.00    +0.000 A 
ATOM     17  C   UNL     1       1.183   8.781  20.202  0.00  0.00    +0.000 A 
ENDBRANCH   9  11
ENDBRANCH   1   8
BRANCH   6  18
ATOM     18  N   UNL     1       4.111   3.513  18.195  0.00  0.00    +0.000 N 
ATOM     19  C   UNL     1       5.334   4.157  18.092  0.00  0.00    +0.000 C 
ATOM     20  O   UNL     1       6.041   4.459  19.053  0.00  0.00    +0.000 OA
ATOM     21  H   UNL     1       3.967   2.790  17.490  0.00  0.00    +0.000 HD
BRANCH  19  22
ATOM     22  C   UNL     1       5.745   4.535  16.666  0.00  0.00    +0.000 C 
ATOM     23  C   UNL     1       7.180   5.022  16.423  0.00  0.00    +0.000 C 
ATOM     24  C   UNL     1       7.154   4.866  14.937  0.00  0.00    +0.000 A 
ATOM     25  C   UNL     1       7.862   5.503  13.928  0.00  0.00    +0.000 A 
ATOM     26  C   UNL     1       7.565   5.158  12.600  0.00  0.00    +0.000 A 
ATOM     27  C   UNL     1       6.607   4.173  12.303  0.00  0.00    +0.000 A 
ATOM     28  C   UNL     1       5.913   3.533  13.330  0.00  0.00    +0.000 A 
ATOM     29  C   UNL     1       6.188   3.917  14.620  0.00  0.00    +0.000 A 
ATOM     30  O   UNL     1       5.496   3.468  15.716  0.00  0.00    +0.000 OA
ENDBRANCH  19  22
ENDBRANCH   6  18
TORSDOF 4
ENDMDL
MODEL 2
REMARK VINA RESULT:      -8.2      3.472      5.704
REMARK  Name = 
REMARK  4 active torsions:
REMARK  status: ('A' for Active; 'I' for Inactive)
REMARK    1  A    between atoms: C_2  and  C_11
REMARK    2  A    between atoms: N_3  and  C_4
REMARK    3  A    between atoms: C_16  and  N_17
REMARK    4  A    between atoms: C_18  and  C_20
REMARK                            x       y       z     vdW  Elec       q    Type
REMARK                         _______ _______ _______ _____ _____    ______ ____
ROOT
ATOM      1  C   UNL     1      -0.087   9.990  20.548  0.00  0.00    +0.000 A 
ATOM      2  C   UNL     1      -0.750  10.643  21.604  0.00  0.00    +0.000 A 
ATOM      3  C   UNL     1      -0.389  10.401  22.928  0.00  0.00    +0.000 A 
ATOM      4  C   UNL     1       0.619   9.487  23.211  0.00  0.00    +0.000 A 
ATOM      5  C   UNL     1       1.232   8.778  22.173  0.00  0.00    +0.000 A 
ATOM      6  C   UNL     1       0.876   9.005  20.834  0.00  0.00    +0.000 A 
ENDROOT
BRANCH   1   8
ATOM      7  O   UNL     1       0.392  10.618  18.335  0.00  0.00    +0.000 OA
ATOM      8  C   UNL     1      -0.474  10.287  19.137  0.00  0.00    +0.000 C 
ATOM      9  N   UNL     1      -1.835  10.228  18.882  0.00  0.00    +0.000 N 
ATOM     10  H   UNL     1      -2.454  10.209  19.680  0.00  0.00    +0.000 HD
BRANCH   9  11
ATOM     11  C   UNL     1      -2.452  10.357  17.627  0.00  0.00    +0.000 A 
ATOM     12  C   UNL     1      -3.527  11.217  17.382  0.00  0.00    +0.000 A 
ATOM     13  C   UNL     1      -4.111  11.274  16.116  0.00  0.00    +0.000 A 
ATOM     14  C   UNL     1      -3.613  10.472  15.098  0.00  0.00    +0.000 A 
ATOM     15  F   UNL     1      -4.188  10.506  13.890  0.00  0.00    +0.000 F 
ATOM     16  C   UNL     1      -2.528   9.632  15.314  0.00  0.00    +0.000 A 
ATOM     17  C   UNL     1      -1.937   9.583  16.577  0.00  0.00    +0.000 A 
ENDBRANCH   9  11
ENDBRANCH   1   8
BRANCH   6  18
ATOM     18  N   UNL     1       1.543   8.295  19.806  0.00  0.00    +0.000 N 
ATOM     19  C   UNL     1       1.869   6.952  19.918  0.00  0.00    +0.000 C 
ATOM     20  O   UNL     1       1.452   6.211  20.808  0.00  0.00    +0.000 OA
ATOM     21  H   UNL     1       1.360   8.594  18.848  0.00  0.00    +0.000 HD
BRANCH  19  22
ATOM     22  C   UNL     1       2.856   6.439  18.866  0.00  0.00    +0.000 C 
ATOM     23  C   UNL     1       3.366   7.420  17.802  0.00  0.00    +0.000 C 
ATOM     24  C   UNL     1       4.508   6.576  17.338  0.00  0.00    +0.000 A 
ATOM     25  C   UNL     1       5.179   6.512  16.125  0.00  0.00    +0.000 A 
ATOM     26  C   UNL     1       6.198   5.558  15.988  0.00  0.00    +0.000 A 
ATOM     27  C   UNL     1       6.554   4.717  17.058  0.00  0.00    +0.000 A 
ATOM     28  C   UNL     1       5.878   4.802  18.275  0.00  0.00    +0.000 A 
ATOM     29  C   UNL     1       4.855   5.713  18.373  0.00  0.00    +0.000 A 
ATOM     30  O   UNL     1       4.024   5.818  19.460  0.00  0.00    +0.000 OA
ENDBRANCH  19  22
ENDBRANCH   6  18
TORSDOF 4
ENDMDL
MODEL 3
REMARK VINA RESULT:      -8.2      3.408      5.588
REMARK  Name = 
REMARK  4 active torsions:
REMARK  status: ('A' for Active; 'I' for Inactive)
REMARK    1  A    between atoms: C_2  and  C_11
REMARK    2  A    between atoms: N_3  and  C_4
REMARK    3  A    between atoms: C_16  and  N_17
REMARK    4  A    between atoms: C_18  and  C_20
REMARK                            x       y       z     vdW  Elec       q    Type
REMARK                         _______ _______ _______ _____ _____    ______ ____
ROOT
ATOM      1  C   UNL     1       0.015   9.856  20.508  0.00  0.00    +0.000 A 
ATOM      2  C   UNL     1      -0.711  10.554  21.492  0.00  0.00    +0.000 A 
ATOM      3  C   UNL     1      -0.388  10.423  22.841  0.00  0.00    +0.000 A 
ATOM      4  C   UNL     1       0.645   9.576  23.222  0.00  0.00    +0.000 A 
ATOM      5  C   UNL     1       1.323   8.822  22.259  0.00  0.00    +0.000 A 
ATOM      6  C   UNL     1       1.006   8.936  20.897  0.00  0.00    +0.000 A 
ENDROOT
BRANCH   1   8
ATOM      7  O   UNL     1       0.566  10.101  18.237  0.00  0.00    +0.000 OA
ATOM      8  C   UNL     1      -0.333  10.034  19.068  0.00  0.00    +0.000 C 
ATOM      9  N   UNL     1      -1.687  10.186  18.810  0.00  0.00    +0.000 N 
ATOM     10  H   UNL     1      -2.288  10.379  19.599  0.00  0.00    +0.000 HD
BRANCH   9  11
ATOM     11  C   UNL     1      -2.289  10.260  17.543  0.00  0.00    +0.000 A 
ATOM     12  C   UNL     1      -1.903   9.465  16.460  0.00  0.00    +0.000 A 
ATOM     13  C   UNL     1      -2.525   9.612  15.220  0.00  0.00    +0.000 A 
ATOM     14  C   UNL     1      -3.535  10.552  15.070  0.00  0.00    +0.000 A 
ATOM     15  F   UNL     1      -4.115  10.712  13.874  0.00  0.00    +0.000 F 
ATOM     16  C   UNL     1      -3.952  11.333  16.141  0.00  0.00    +0.000 A 
ATOM     17  C   UNL     1      -3.337  11.178  17.384  0.00  0.00    +0.000 A 
ENDBRANCH   9  11
ENDBRANCH   1   8
BRANCH   6  18
ATOM     18  N   UNL     1       1.738   8.183  19.946  0.00  0.00    +0.000 N 
ATOM     19  C   UNL     1       1.899   6.810  20.048  0.00  0.00    +0.000 C 
ATOM     20  O   UNL     1       1.282   6.097  20.838  0.00  0.00    +0.000 OA
ATOM     21  H   UNL     1       1.729   8.525  18.985  0.00  0.00    +0.000 HD
BRANCH  19  22
ATOM     22  C   UNL     1       2.971   6.218  19.127  0.00  0.00    +0.000 C 
ATOM     23  C   UNL     1       2.717   4.840  18.503  0.00  0.00    +0.000 C 
ATOM     24  C   UNL     1       3.792   4.930  17.469  0.00  0.00    +0.000 A 
ATOM     25  C   UNL     1       4.525   3.954  16.810  0.00  0.00    +0.000 A 
ATOM     26  C   UNL     1       5.518   4.375  15.911  0.00  0.00    +0.000 A 
ATOM     27  C   UNL     1       5.738   5.741  15.660  0.00  0.00    +0.000 A 
ATOM     28  C   UNL     1       4.983   6.709  16.322  0.00  0.00    +0.000 A 
ATOM     29  C   UNL     1       4.047   6.276  17.229  0.00  0.00    +0.000 A 
ATOM     30  O   UNL     1       3.325   7.112  18.042  0.00  0.00    +0.000 OA
ENDBRANCH  19  22
ENDBRANCH   6  18
TORSDOF 4
ENDMDL
MODEL 4
REMARK VINA RESULT:      -8.1      5.293      8.909
REMARK  Name = 
REMARK  4 active torsions:
REMARK  status: ('A' for Active; 'I' for Inactive)
REMARK    1  A    between atoms: C_2  and  C_11
REMARK    2  A    between atoms: N_3  and  C_4
REMARK    3  A    between atoms: C_16  and  N_17
REMARK    4  A    between atoms: C_18  and  C_20
REMARK                            x       y       z     vdW  Elec       q    Type
REMARK                         _______ _______ _______ _____ _____    ______ ____
ROOT
ATOM      1  C   UNL     1      -2.746  12.821  21.130  0.00  0.00    +0.000 A 
ATOM      2  C   UNL     1      -3.729  13.774  21.457  0.00  0.00    +0.000 A 
ATOM      3  C   UNL     1      -4.010  14.079  22.788  0.00  0.00    +0.000 A 
ATOM      4  C   UNL     1      -3.330  13.418  23.803  0.00  0.00    +0.000 A 
ATOM      5  C   UNL     1      -2.405  12.417  23.490  0.00  0.00    +0.000 A 
ATOM      6  C   UNL     1      -2.116  12.093  22.155  0.00  0.00    +0.000 A 
ENDROOT
BRANCH   1   8
ATOM      7  O   UNL     1      -1.522  13.122  19.147  0.00  0.00    +0.000 OA
ATOM      8  C   UNL     1      -2.445  12.533  19.697  0.00  0.00    +0.000 C 
ATOM      9  N   UNL     1      -3.318  11.646  19.086  0.00  0.00    +0.000 N 
ATOM     10  H   UNL     1      -4.182  11.443  19.567  0.00  0.00    +0.000 HD
BRANCH   9  11
ATOM     11  C   UNL     1      -3.199  11.125  17.786  0.00  0.00    +0.000 A 
ATOM     12  C   UNL     1      -2.214  10.205  17.414  0.00  0.00    +0.000 A 
ATOM     13  C   UNL     1      -2.136   9.750  16.097  0.00  0.00    +0.000 A 
ATOM     14  C   UNL     1      -3.048  10.215  15.159  0.00  0.00    +0.000 A 
ATOM     15  F   UNL     1      -2.958   9.799  13.890  0.00  0.00    +0.000 F 
ATOM     16  C   UNL     1      -4.050  11.108  15.516  0.00  0.00    +0.000 A 
ATOM     17  C   UNL     1      -4.136  11.554  16.835  0.00  0.00    +0.000 A 
ENDBRANCH   9  11
ENDBRANCH   1   8
BRANCH   6  18
ATOM     18  N   UNL     1      -1.147  11.097  21.875  0.00  0.00    +0.000 N 
ATOM     19  C   UNL     1       0.177  11.403  21.602  0.00  0.00    +0.000 C 
ATOM     20  O   UNL     1       0.678  12.516  21.763  0.00  0.00    +0.000 OA
ATOM     21  H   UNL     1      -1.275  10.192  22.327  0.00  0.00    +0.000 HD
BRANCH  19  22
ATOM     22  C   UNL     1       0.996  10.250  21.014  0.00  0.00    +0.000 C 
ATOM     23  C   UNL     1       0.746   8.832  21.543  0.00  0.00    +0.000 C 
ATOM     24  C   UNL     1       1.449   8.119  20.433  0.00  0.00    +0.000 A 
ATOM     25  C   UNL     1       2.073   6.882  20.378  0.00  0.00    +0.000 A 
ATOM     26  C   UNL     1       2.696   6.515  19.175  0.00  0.00    +0.000 A 
ATOM     27  C   UNL     1       2.658   7.358  18.051  0.00  0.00    +0.000 A 
ATOM     28  C   UNL     1       2.016   8.594  18.120  0.00  0.00    +0.000 A 
ATOM     29  C   UNL     1       1.450   8.951  19.319  0.00  0.00    +0.000 A 
ATOM     30  O   UNL     1       0.900  10.183  19.569  0.00  0.00    +0.000 OA
ENDBRANCH  19  22
ENDBRANCH   6  18
TORSDOF 4
ENDMDL
MODEL 5
REMARK VINA RESULT:      -8.0      2.537      7.513
REMARK  Name = 
REMARK  4 active torsions:
REMARK  status: ('A' for Active; 'I' for Inactive)
REMARK    1  A    between atoms: C_2  and  C_11
REMARK    2  A    between atoms: N_3  and  C_4
REMARK    3  A    between atoms: C_16  and  N_17
REMARK    4  A    between atoms: C_18  and  C_20
REMARK                            x       y       z     vdW  Elec       q    Type
REMARK                         _______ _______ _______ _____ _____    ______ ____
ROOT
ATOM      1  C   UNL     1       5.230   4.640  16.995  0.00  0.00    +0.000 A 
ATOM      2  C   UNL     1       5.784   3.715  16.088  0.00  0.00    +0.000 A 
ATOM      3  C   UNL     1       6.197   4.123  14.821  0.00  0.00    +0.000 A 
ATOM      4  C   UNL     1       6.037   5.448  14.438  0.00  0.00    +0.000 A 
ATOM      5  C   UNL     1       5.419   6.357  15.303  0.00  0.00    +0.000 A 
ATOM      6  C   UNL     1       4.992   5.962  16.580  0.00  0.00    +0.000 A 
ENDROOT
BRANCH   1   8
ATOM      7  O   UNL     1       5.624   4.261  19.280  0.00  0.00    +0.000 OA
ATOM      8  C   UNL     1       4.822   4.184  18.356  0.00  0.00    +0.000 C 
ATOM      9  N   UNL     1       3.553   3.630  18.429  0.00  0.00    +0.000 N 
ATOM     10  H   UNL     1       3.107   3.383  17.557  0.00  0.00    +0.000 HD
BRANCH   9  11
ATOM     11  C   UNL     1       2.888   3.226  19.599  0.00  0.00    +0.000 A 
ATOM     12  C   UNL     1       3.505   2.499  20.621  0.00  0.00    +0.000 A 
ATOM     13  C   UNL     1       2.776   2.105  21.744  0.00  0.00    +0.000 A 
ATOM     14  C   UNL     1       1.434   2.445  21.841  0.00  0.00    +0.000 A 
ATOM     15  F   UNL     1       0.727   2.045  22.905  0.00  0.00    +0.000 F 
ATOM     16  C   UNL     1       0.811   3.190  20.848  0.00  0.00    +0.000 A 
ATOM     17  C   UNL     1       1.542   3.594  19.731  0.00  0.00    +0.000 A 
ENDBRANCH   9  11
ENDBRANCH   1   8
BRANCH   6  18
ATOM     18  N   UNL     1       4.403   6.918  17.444  0.00  0.00    +0.000 N 
ATOM     19  C   UNL     1       3.051   6.912  17.752  0.00  0.00    +0.000 C 
ATOM     20  O   UNL     1       2.283   5.991  17.475  0.00  0.00    +0.000 OA
ATOM     21  H   UNL     1       4.992   7.286  18.191  0.00  0.00    +0.000 HD
BRANCH  19  22
ATOM     22  C   UNL     1       2.538   8.186  18.429  0.00  0.00    +0.000 C 
ATOM     23  C   UNL     1       1.630   9.126  17.625  0.00  0.00    +0.000 C 
ATOM     24  C   UNL     1       1.138   9.915  18.795  0.00  0.00    +0.000 A 
ATOM     25  C   UNL     1       0.659  11.212  18.900  0.00  0.00    +0.000 A 
ATOM     26  C   UNL     1       0.316  11.684  20.177  0.00  0.00    +0.000 A 
ATOM     27  C   UNL     1       0.420  10.856  21.309  0.00  0.00    +0.000 A 
ATOM     28  C   UNL     1       0.891   9.549  21.183  0.00  0.00    +0.000 A 
ATOM     29  C   UNL     1       1.262   9.123  19.932  0.00  0.00    +0.000 A 
ATOM     30  O   UNL     1       1.860   7.914  19.681  0.00  0.00    +0.000 OA
ENDBRANCH  19  22
ENDBRANCH   6  18
TORSDOF 4
ENDMDL
MODEL 6
REMARK VINA RESULT:      -7.8      1.212      1.307
REMARK  Name = 
REMARK  4 active torsions:
REMARK  status: ('A' for Active; 'I' for Inactive)
REMARK    1  A    between atoms: C_2  and  C_11
REMARK    2  A    between atoms: N_3  and  C_4
REMARK    3  A    between atoms: C_16  and  N_17
REMARK    4  A    between atoms: C_18  and  C_20
REMARK                            x       y       z     vdW  Elec       q    Type
REMARK                         _______ _______ _______ _____ _____    ______ ____
ROOT
ATOM      1  C   UNL     1       2.722   4.637  20.023  0.00  0.00    +0.000 A 
ATOM      2  C   UNL     1       2.163   4.055  21.176  0.00  0.00    +0.000 A 
ATOM      3  C   UNL     1       2.654   2.849  21.673  0.00  0.00    +0.000 A 
ATOM      4  C   UNL     1       3.690   2.202  21.010  0.00  0.00    +0.000 A 
ATOM      5  C   UNL     1       4.201   2.735  19.822  0.00  0.00    +0.000 A 
ATOM      6  C   UNL     1       3.713   3.945  19.304  0.00  0.00    +0.000 A 
ENDROOT
BRANCH   1   8
ATOM      7  O   UNL     1       1.937   6.072  18.336  0.00  0.00    +0.000 OA
ATOM      8  C   UNL     1       2.196   5.943  19.527  0.00  0.00    +0.000 C 
ATOM      9  N   UNL     1       2.119   6.941  20.486  0.00  0.00    +0.000 N 
ATOM     10  H   UNL     1       2.609   6.786  21.354  0.00  0.00    +0.000 HD
BRANCH   9  11
ATOM     11  C   UNL     1       1.562   8.220  20.312  0.00  0.00    +0.000 A 
ATOM     12  C   UNL     1       1.668   8.949  19.124  0.00  0.00    +0.000 A 
ATOM     13  C   UNL     1       1.115  10.227  19.029  0.00  0.00    +0.000 A 
ATOM     14  C   UNL     1       0.455  10.767  20.124  0.00  0.00    +0.000 A 
ATOM     15  F   UNL     1      -0.054  12.003  20.044  0.00  0.00    +0.000 F 
ATOM     16  C   UNL     1       0.316  10.047  21.304  0.00  0.00    +0.000 A 
ATOM     17  C   UNL     1       0.858   8.766  21.395  0.00  0.00    +0.000 A 
ENDBRANCH   9  11
ENDBRANCH   1   8
BRANCH   6  18
ATOM     18  N   UNL     1       4.280   4.473  18.118  0.00  0.00    +0.000 N 
ATOM     19  C   UNL     1       3.933   4.013  16.858  0.00  0.00    +0.000 C 
ATOM     20  O   UNL     1       2.985   3.260  16.632  0.00  0.00    +0.000 OA
ATOM     21  H   UNL     1       4.547   5.458  18.136  0.00  0.00    +0.000 HD
BRANCH  19  22
ATOM     22  C   UNL     1       4.864   4.465  15.728  0.00  0.00    +0.000 C 
ATOM     23  C   UNL     1       6.298   4.877  16.085  0.00  0.00    +0.000 C 
ATOM     24  C   UNL     1       6.831   4.829  14.689  0.00  0.00    +0.000 A 
ATOM     25  C   UNL     1       7.887   5.489  14.079  0.00  0.00    +0.000 A 
ATOM     26  C   UNL     1       8.104   5.258  12.712  0.00  0.00    +0.000 A 
ATOM     27  C   UNL     1       7.299   4.358  11.992  0.00  0.00    +0.000 A 
ATOM     28  C   UNL     1       6.249   3.692  12.623  0.00  0.00    +0.000 A 
ATOM     29  C   UNL     1       6.028   3.966  13.951  0.00  0.00    +0.000 A 
ATOM     30  O   UNL     1       4.959   3.485  14.664  0.00  0.00    +0.000 OA
ENDBRANCH  19  22
ENDBRANCH   6  18
TORSDOF 4
ENDMDL
MODEL 7
REMARK VINA RESULT:      -7.6      5.397      9.050
REMARK  Name = 
REMARK  4 active torsions:
REMARK  status: ('A' for Active; 'I' for Inactive)
REMARK    1  A    between atoms: C_2  and  C_11
REMARK    2  A    between atoms: N_3  and  C_4
REMARK    3  A    between atoms: C_16  and  N_17
REMARK    4  A    between atoms: C_18  and  C_20
REMARK                            x       y       z     vdW  Elec       q    Type
REMARK                         _______ _______ _______ _____ _____    ______ ____
ROOT
ATOM      1  C   UNL     1      -1.302  13.825  22.520  0.00  0.00    +0.000 A 
ATOM      2  C   UNL     1      -2.079  14.771  23.216  0.00  0.00    +0.000 A 
ATOM      3  C   UNL     1      -3.252  14.388  23.865  0.00  0.00    +0.000 A 
ATOM      4  C   UNL     1      -3.671  13.065  23.804  0.00  0.00    +0.000 A 
ATOM      5  C   UNL     1      -2.946  12.134  23.053  0.00  0.00    +0.000 A 
ATOM      6  C   UNL     1      -1.767  12.505  22.388  0.00  0.00    +0.000 A 
ENDROOT
BRANCH   1   8
ATOM      7  O   UNL     1       0.970  14.424  22.537  0.00  0.00    +0.000 OA
ATOM      8  C   UNL     1      -0.036  14.255  21.857  0.00  0.00    +0.000 C 
ATOM      9  N   UNL     1      -0.145  14.501  20.497  0.00  0.00    +0.000 N 
ATOM     10  H   UNL     1      -1.077  14.584  20.117  0.00  0.00    +0.000 HD
BRANCH   9  11
ATOM     11  C   UNL     1       0.909  14.810  19.621  0.00  0.00    +0.000 A 
ATOM     12  C   UNL     1       1.196  16.109  19.191  0.00  0.00    +0.000 A 
ATOM     13  C   UNL     1       2.242  16.341  18.297  0.00  0.00    +0.000 A 
ATOM     14  C   UNL     1       2.998  15.270  17.839  0.00  0.00    +0.000 A 
ATOM     15  F   UNL     1       3.984  15.488  16.960  0.00  0.00    +0.000 F 
ATOM     16  C   UNL     1       2.745  13.976  18.275  0.00  0.00    +0.000 A 
ATOM     17  C   UNL     1       1.707  13.746  19.178  0.00  0.00    +0.000 A 
ENDBRANCH   9  11
ENDBRANCH   1   8
BRANCH   6  18
ATOM     18  N   UNL     1      -1.038  11.527  21.666  0.00  0.00    +0.000 N 
ATOM     19  C   UNL     1      -0.190  10.622  22.286  0.00  0.00    +0.000 C 
ATOM     20  O   UNL     1      -0.133  10.448  23.503  0.00  0.00    +0.000 OA
ATOM     21  H   UNL     1      -1.471  11.168  20.815  0.00  0.00    +0.000 HD
BRANCH  19  22
ATOM     22  C   UNL     1       0.746   9.865  21.339  0.00  0.00    +0.000 C 
ATOM     23  C   UNL     1       0.833   8.338  21.465  0.00  0.00    +0.000 C 
ATOM     24  C   UNL     1       1.508   8.106  20.151  0.00  0.00    +0.000 A 
ATOM     25  C   UNL     1       2.338   7.089  19.705  0.00  0.00    +0.000 A 
ATOM     26  C   UNL     1       2.859   7.189  18.406  0.00  0.00    +0.000 A 
ATOM     27  C   UNL     1       2.522   8.269  17.570  0.00  0.00    +0.000 A 
ATOM     28  C   UNL     1       1.675   9.277  18.030  0.00  0.00    +0.000 A 
ATOM     29  C   UNL     1       1.212   9.180  19.319  0.00  0.00    +0.000 A 
ATOM     30  O   UNL     1       0.479  10.158  19.944  0.00  0.00    +0.000 OA
ENDBRANCH  19  22
ENDBRANCH   6  18
TORSDOF 4
ENDMDL
MODEL 8
REMARK VINA RESULT:      -7.5      4.657      8.332
REMARK  Name = 
REMARK  4 active torsions:
REMARK  status: ('A' for Active; 'I' for Inactive)
REMARK    1  A    between atoms: C_2  and  C_11
REMARK    2  A    between atoms: N_3  and  C_4
REMARK    3  A    between atoms: C_16  and  N_17
REMARK    4  A    between atoms: C_18  and  C_20
REMARK                            x       y       z     vdW  Elec       q    Type
REMARK                         _______ _______ _______ _____ _____    ______ ____
ROOT
ATOM      1  C   UNL     1      -0.314  13.013  18.619  0.00  0.00    +0.000 A 
ATOM      2  C   UNL     1      -0.319  14.407  18.819  0.00  0.00    +0.000 A 
ATOM      3  C   UNL     1       0.877  15.119  18.889  0.00  0.00    +0.000 A 
ATOM      4  C   UNL     1       2.087  14.444  18.785  0.00  0.00    +0.000 A 
ATOM      5  C   UNL     1       2.103  13.051  18.661  0.00  0.00    +0.000 A 
ATOM      6  C   UNL     1       0.908  12.318  18.596  0.00  0.00    +0.000 A 
ENDROOT
BRANCH   1   8
ATOM      7  O   UNL     1      -1.674  11.268  17.828  0.00  0.00    +0.000 OA
ATOM      8  C   UNL     1      -1.609  12.278  18.520  0.00  0.00    +0.000 C 
ATOM      9  N   UNL     1      -2.669  12.872  19.187  0.00  0.00    +0.000 N 
ATOM     10  H   UNL     1      -2.546  13.828  19.490  0.00  0.00    +0.000 HD
BRANCH   9  11
ATOM     11  C   UNL     1      -3.958  12.336  19.344  0.00  0.00    +0.000 A 
ATOM     12  C   UNL     1      -4.622  11.625  18.340  0.00  0.00    +0.000 A 
ATOM     13  C   UNL     1      -5.915  11.144  18.554  0.00  0.00    +0.000 A 
ATOM     14  C   UNL     1      -6.536  11.375  19.774  0.00  0.00    +0.000 A 
ATOM     15  F   UNL     1      -7.786  10.938  19.971  0.00  0.00    +0.000 F 
ATOM     16  C   UNL     1      -5.882  12.056  20.793  0.00  0.00    +0.000 A 
ATOM     17  C   UNL     1      -4.586  12.527  20.584  0.00  0.00    +0.000 A 
ENDBRANCH   9  11
ENDBRANCH   1   8
BRANCH   6  18
ATOM     18  N   UNL     1       0.962  10.911  18.434  0.00  0.00    +0.000 N 
ATOM     19  C   UNL     1       1.079  10.042  19.508  0.00  0.00    +0.000 C 
ATOM     20  O   UNL     1       0.954  10.376  20.686  0.00  0.00    +0.000 OA
ATOM     21  H   UNL     1       0.450  10.521  17.644  0.00  0.00    +0.000 HD
BRANCH  19  22
ATOM     22  C   UNL     1       1.442   8.602  19.134  0.00  0.00    +0.000 C 
ATOM     23  C   UNL     1       2.574   8.373  18.123  0.00  0.00    +0.000 C 
ATOM     24  C   UNL     1       2.763   6.920  18.418  0.00  0.00    +0.000 A 
ATOM     25  C   UNL     1       3.250   5.876  17.647  0.00  0.00    +0.000 A 
ATOM     26  C   UNL     1       3.253   4.590  18.211  0.00  0.00    +0.000 A 
ATOM     27  C   UNL     1       2.810   4.374  19.528  0.00  0.00    +0.000 A 
ATOM     28  C   UNL     1       2.335   5.438  20.294  0.00  0.00    +0.000 A 
ATOM     29  C   UNL     1       2.301   6.679  19.708  0.00  0.00    +0.000 A 
ATOM     30  O   UNL     1       1.743   7.787  20.294  0.00  0.00    +0.000 OA
ENDBRANCH  19  22
ENDBRANCH   6  18
TORSDOF 4
ENDMDL
MODEL 9
REMARK VINA RESULT:      -7.5      2.559      7.174
REMARK  Name = 
REMARK  4 active torsions:
REMARK  status: ('A' for Active; 'I' for Inactive)
REMARK    1  A    between atoms: C_2  and  C_11
REMARK    2  A    between atoms: N_3  and  C_4
REMARK    3  A    between atoms: C_16  and  N_17
REMARK    4  A    between atoms: C_18  and  C_20
REMARK                            x       y       z     vdW  Elec       q    Type
REMARK                         _______ _______ _______ _____ _____    ______ ____
ROOT
ATOM      1  C   UNL     1       3.027   3.869  19.191  0.00  0.00    +0.000 A 
ATOM      2  C   UNL     1       2.944   2.469  19.310  0.00  0.00    +0.000 A 
ATOM      3  C   UNL     1       2.371   1.884  20.438  0.00  0.00    +0.000 A 
ATOM      4  C   UNL     1       1.898   2.690  21.466  0.00  0.00    +0.000 A 
ATOM      5  C   UNL     1       2.043   4.080  21.389  0.00  0.00    +0.000 A 
ATOM      6  C   UNL     1       2.624   4.684  20.264  0.00  0.00    +0.000 A 
ENDROOT
BRANCH   1   8
ATOM      7  O   UNL     1       3.136   5.499  17.501  0.00  0.00    +0.000 OA
ATOM      8  C   UNL     1       3.621   4.471  17.960  0.00  0.00    +0.000 C 
ATOM      9  N   UNL     1       4.655   3.741  17.396  0.00  0.00    +0.000 N 
ATOM     10  H   UNL     1       4.777   2.790  17.715  0.00  0.00    +0.000 HD
BRANCH   9  11
ATOM     11  C   UNL     1       5.452   4.133  16.308  0.00  0.00    +0.000 A 
ATOM     12  C   UNL     1       5.177   3.775  14.985  0.00  0.00    +0.000 A 
ATOM     13  C   UNL     1       6.028   4.177  13.954  0.00  0.00    +0.000 A 
ATOM     14  C   UNL     1       7.150   4.938  14.253  0.00  0.00    +0.000 A 
ATOM     15  F   UNL     1       7.981   5.301  13.268  0.00  0.00    +0.000 F 
ATOM     16  C   UNL     1       7.425   5.326  15.558  0.00  0.00    +0.000 A 
ATOM     17  C   UNL     1       6.569   4.935  16.586  0.00  0.00    +0.000 A 
ENDBRANCH   9  11
ENDBRANCH   1   8
BRANCH   6  18
ATOM     18  N   UNL     1       2.723   6.096  20.205  0.00  0.00    +0.000 N 
ATOM     19  C   UNL     1       1.644   6.929  20.459  0.00  0.00    +0.000 C 
ATOM     20  O   UNL     1       0.575   6.551  20.938  0.00  0.00    +0.000 OA
ATOM     21  H   UNL     1       3.624   6.504  20.454  0.00  0.00    +0.000 HD
BRANCH  19  22
ATOM     22  C   UNL     1       1.845   8.389  20.040  0.00  0.00    +0.000 C 
ATOM     23  C   UNL     1       1.960   8.710  18.544  0.00  0.00    +0.000 C 
ATOM     24  C   UNL     1       1.746  10.183  18.679  0.00  0.00    +0.000 A 
ATOM     25  C   UNL     1       2.145  11.252  17.890  0.00  0.00    +0.000 A 
ATOM     26  C   UNL     1       1.820  12.546  18.325  0.00  0.00    +0.000 A 
ATOM     27  C   UNL     1       1.082  12.752  19.504  0.00  0.00    +0.000 A 
ATOM     28  C   UNL     1       0.677  11.665  20.279  0.00  0.00    +0.000 A 
ATOM     29  C   UNL     1       1.043  10.411  19.857  0.00  0.00    +0.000 A 
ATOM     30  O   UNL     1       0.827   9.266  20.582  0.00  0.00    +0.000 OA
ENDBRANCH  19  22
ENDBRANCH   6  18
TORSDOF 4
ENDMDL
