MODEL 1
REMARK VINA RESULT:      -8.9      0.000      0.000
REMARK  Name = 
REMARK  4 active torsions:
REMARK  status: ('A' for Active; 'I' for Inactive)
REMARK    1  A    between atoms: C_2  and  C_18
REMARK    2  A    between atoms: N_3  and  C_4
REMARK    3  A    between atoms: N_9  and  C_10
REMARK    4  A    between atoms: C_10  and  C_11
REMARK                            x       y       z     vdW  Elec       q    Type
REMARK                         _______ _______ _______ _____ _____    ______ ____
ROOT
ATOM      1  C   UNL     1       2.425   5.407  20.227  0.00  0.00    +0.000 A 
ATOM      2  C   UNL     1       1.800   4.126  20.485  0.00  0.00    +0.000 A 
ATOM      3  C   UNL     1       2.425   2.980  20.181  0.00  0.00    +0.000 A 
ATOM      4  C   UNL     1       3.812   2.994  19.645  0.00  0.00    +0.000 A 
ATOM      5  O   UNL     1       4.379   1.927  19.424  0.00  0.00    +0.000 OA
ATOM      6  N   UNL     1       4.376   4.253  19.459  0.00  0.00    +0.000 N 
ATOM      7  C   UNL     1       3.670   5.421  19.723  0.00  0.00    +0.000 A 
ENDROOT
BRANCH   1  10
ATOM      8  O   UNL     1       2.341   8.003  18.900  0.00  0.00    +0.000 OA
ATOM      9  C   UNL     1       1.768   7.780  19.965  0.00  0.00    +0.000 C 
ATOM     10  N   UNL     1       1.712   6.532  20.569  0.00  0.00    +0.000 N 
ATOM     11  H   UNL     1       1.045   6.456  21.328  0.00  0.00    +0.000 HD
BRANCH   9  12
ATOM     12  C   UNL     1       1.059   8.808  20.693  0.00  0.00    +0.000 A 
ATOM     13  C   UNL     1       0.620   8.851  22.003  0.00  0.00    +0.000 A 
ATOM     14  C   UNL     1      -0.152  10.034  22.142  0.00  0.00    +0.000 A 
ATOM     15  C   UNL     1      -0.906  10.631  23.167  0.00  0.00    +0.000 A 
ATOM     16  C   UNL     1      -1.616  11.805  22.885  0.00  0.00    +0.000 A 
ATOM     17  C   UNL     1      -1.564  12.390  21.616  0.00  0.00    +0.000 A 
ATOM     18  C   UNL     1      -0.791  11.831  20.593  0.00  0.00    +0.000 A 
ATOM     19  C   UNL     1      -0.113  10.656  20.897  0.00  0.00    +0.000 A 
ATOM     20  O   UNL     1       0.656   9.941  20.033  0.00  0.00    +0.000 OA
ENDBRANCH   9  12
ENDBRANCH   1  10
BRANCH   6  21
ATOM     21  C   UNL     1       5.800   4.340  19.129  0.00  0.00    +0.000 C 
BRANCH  21  22
ATOM     22  C   UNL     1       6.000   4.509  17.643  0.00  0.00    +0.000 A 
ATOM     23  C   UNL     1       4.957   4.293  16.737  0.00  0.00    +0.000 A 
ATOM     24  C   UNL     1       5.209   4.332  15.369  0.00  0.00    +0.000 A 
ATOM     25  C   UNL     1       6.502   4.590  14.948  0.00  0.00    +0.000 A 
ATOM     26  N   UNL     1       7.531   4.830  15.788  0.00  0.00    +0.000 NA
ATOM     27  C   UNL     1       7.258   4.784  17.112  0.00  0.00    +0.000 A 
ENDBRANCH  21  22
ENDBRANCH   6  21
TORSDOF 4
ENDMDL
MODEL 2
REMARK VINA RESULT:      -8.8      4.923      7.681
REMARK  Name = 
REMARK  4 active torsions:
REMARK  status: ('A' for Active; 'I' for Inactive)
REMARK    1  A    between atoms: C_2  and  C_18
REMARK    2  A    between atoms: N_3  and  C_4
REMARK    3  A    between atoms: N_9  and  C_10
REMARK    4  A    between atoms: C_10  and  C_11
REMARK                            x       y       z     vdW  Elec       q    Type
REMARK                         _______ _______ _______ _____ _____    ______ ____
ROOT
ATOM      1  C   UNL     1       6.151   6.753  17.236  0.00  0.00    +0.000 A 
ATOM      2  C   UNL     1       6.695   5.638  16.490  0.00  0.00    +0.000 A 
ATOM      3  C   UNL     1       5.968   4.532  16.276  0.00  0.00    +0.000 A 
ATOM      4  C   UNL     1       4.555   4.456  16.731  0.00  0.00    +0.000 A 
ATOM      5  O   UNL     1       3.897   3.451  16.476  0.00  0.00    +0.000 OA
ATOM      6  N   UNL     1       4.075   5.576  17.405  0.00  0.00    +0.000 N 
ATOM      7  C   UNL     1       4.881   6.677  17.667  0.00  0.00    +0.000 A 
ENDROOT
BRANCH   1  10
ATOM      8  O   UNL     1       8.512   7.037  18.926  0.00  0.00    +0.000 OA
ATOM      9  C   UNL     1       8.029   7.973  18.295  0.00  0.00    +0.000 C 
ATOM     10  N   UNL     1       6.967   7.847  17.410  0.00  0.00    +0.000 N 
ATOM     11  H   UNL     1       6.809   8.654  16.817  0.00  0.00    +0.000 HD
BRANCH   9  12
ATOM     12  C   UNL     1       8.547   9.320  18.389  0.00  0.00    +0.000 A 
ATOM     13  C   UNL     1       8.477  10.381  17.506  0.00  0.00    +0.000 A 
ATOM     14  C   UNL     1       9.288  11.417  18.039  0.00  0.00    +0.000 A 
ATOM     15  C   UNL     1       9.683  12.701  17.626  0.00  0.00    +0.000 A 
ATOM     16  C   UNL     1      10.591  13.414  18.420  0.00  0.00    +0.000 A 
ATOM     17  C   UNL     1      11.084  12.874  19.613  0.00  0.00    +0.000 A 
ATOM     18  C   UNL     1      10.675  11.613  20.058  0.00  0.00    +0.000 A 
ATOM     19  C   UNL     1       9.789  10.921  19.240  0.00  0.00    +0.000 A 
ATOM     20  O   UNL     1       9.305   9.671  19.476  0.00  0.00    +0.000 OA
ENDBRANCH   9  12
ENDBRANCH   1  10
BRANCH   6  21
ATOM     21  C   UNL     1       2.643   5.654  17.701  0.00  0.00    +0.000 C 
BRANCH  21  22
ATOM     22  C   UNL     1       2.286   4.770  18.872  0.00  0.00    +0.000 A 
ATOM     23  C   UNL     1       1.363   3.727  18.744  0.00  0.00    +0.000 A 
ATOM     24  C   UNL     1       0.963   3.016  19.871  0.00  0.00    +0.000 A 
ATOM     25  C   UNL     1       1.501   3.370  21.096  0.00  0.00    +0.000 A 
ATOM     26  N   UNL     1       2.414   4.351  21.259  0.00  0.00    +0.000 NA
ATOM     27  C   UNL     1       2.784   5.027  20.146  0.00  0.00    +0.000 A 
ENDBRANCH  21  22
ENDBRANCH   6  21
TORSDOF 4
ENDMDL
MODEL 3
REMARK VINA RESULT:      -8.6      1.255      1.627
REMARK  Name = 
REMARK  4 active torsions:
REMARK  status: ('A' for Active; 'I' for Inactive)
REMARK    1  A    between atoms: C_2  and  C_18
REMARK    2  A    between atoms: N_3  and  C_4
REMARK    3  A    between atoms: N_9  and  C_10
REMARK    4  A    between atoms: C_10  and  C_11
REMARK                            x       y       z     vdW  Elec       q    Type
REMARK                         _______ _______ _______ _____ _____    ______ ____
ROOT
ATOM      1  C   UNL     1       2.278   5.345  20.335  0.00  0.00    +0.000 A 
ATOM      2  C   UNL     1       2.177   4.208  21.226  0.00  0.00    +0.000 A 
ATOM      3  C   UNL     1       2.784   3.049  20.935  0.00  0.00    +0.000 A 
ATOM      4  C   UNL     1       3.644   2.927  19.728  0.00  0.00    +0.000 A 
ATOM      5  O   UNL     1       4.229   1.868  19.514  0.00  0.00    +0.000 OA
ATOM      6  N   UNL     1       3.736   4.066  18.934  0.00  0.00    +0.000 N 
ATOM      7  C   UNL     1       3.038   5.229  19.233  0.00  0.00    +0.000 A 
ENDROOT
BRANCH   1  10
ATOM      8  O   UNL     1       2.285   7.967  19.056  0.00  0.00    +0.000 OA
ATOM      9  C   UNL     1       1.724   7.750  20.128  0.00  0.00    +0.000 C 
ATOM     10  N   UNL     1       1.623   6.495  20.711  0.00  0.00    +0.000 N 
ATOM     11  H   UNL     1       0.968   6.435  21.482  0.00  0.00    +0.000 HD
BRANCH   9  12
ATOM     12  C   UNL     1       1.077   8.795  20.888  0.00  0.00    +0.000 A 
ATOM     13  C   UNL     1       0.287   8.735  22.021  0.00  0.00    +0.000 A 
ATOM     14  C   UNL     1      -0.209  10.045  22.251  0.00  0.00    +0.000 A 
ATOM     15  C   UNL     1      -1.082  10.645  23.174  0.00  0.00    +0.000 A 
ATOM     16  C   UNL     1      -1.395  12.001  23.021  0.00  0.00    +0.000 A 
ATOM     17  C   UNL     1      -0.838  12.757  21.984  0.00  0.00    +0.000 A 
ATOM     18  C   UNL     1       0.061  12.187  21.077  0.00  0.00    +0.000 A 
ATOM     19  C   UNL     1       0.338  10.835  21.243  0.00  0.00    +0.000 A 
ATOM     20  O   UNL     1       1.152  10.091  20.445  0.00  0.00    +0.000 OA
ENDBRANCH   9  12
ENDBRANCH   1  10
BRANCH   6  21
ATOM     21  C   UNL     1       4.719   4.084  17.848  0.00  0.00    +0.000 C 
BRANCH  21  22
ATOM     22  C   UNL     1       5.821   5.074  18.135  0.00  0.00    +0.000 A 
ATOM     23  C   UNL     1       6.094   6.135  17.265  0.00  0.00    +0.000 A 
ATOM     24  C   UNL     1       7.197   6.951  17.494  0.00  0.00    +0.000 A 
ATOM     25  C   UNL     1       7.996   6.682  18.592  0.00  0.00    +0.000 A 
ATOM     26  N   UNL     1       7.752   5.686  19.471  0.00  0.00    +0.000 NA
ATOM     27  C   UNL     1       6.675   4.907  19.222  0.00  0.00    +0.000 A 
ENDBRANCH  21  22
ENDBRANCH   6  21
TORSDOF 4
ENDMDL
MODEL 4
REMARK VINA RESULT:      -8.6      0.680      1.219
REMARK  Name = 
REMARK  4 active torsions:
REMARK  status: ('A' for Active; 'I' for Inactive)
REMARK    1  A    between atoms: C_2  and  C_18
REMARK    2  A    between atoms: N_3  and  C_4
REMARK    3  A    between atoms: N_9  and  C_10
REMARK    4  A    between atoms: C_10  and  C_11
REMARK                            x       y       z     vdW  Elec       q    Type
REMARK                         _______ _______ _______ _____ _____    ______ ____
ROOT
ATOM      1  C   UNL     1       2.490   5.712  20.059  0.00  0.00    +0.000 A 
ATOM      2  C   UNL     1       1.908   4.460  20.495  0.00  0.00    +0.000 A 
ATOM      3  C   UNL     1       2.565   3.303  20.336  0.00  0.00    +0.000 A 
ATOM      4  C   UNL     1       3.944   3.286  19.780  0.00  0.00    +0.000 A 
ATOM      5  O   UNL     1       4.542   2.216  19.693  0.00  0.00    +0.000 OA
ATOM      6  N   UNL     1       4.466   4.525  19.418  0.00  0.00    +0.000 N 
ATOM      7  C   UNL     1       3.727   5.696  19.537  0.00  0.00    +0.000 A 
ENDROOT
BRANCH   1  10
ATOM      8  O   UNL     1       2.458   8.185  18.511  0.00  0.00    +0.000 OA
ATOM      9  C   UNL     1       1.825   8.045  19.555  0.00  0.00    +0.000 C 
ATOM     10  N   UNL     1       1.745   6.851  20.260  0.00  0.00    +0.000 N 
ATOM     11  H   UNL     1       1.035   6.831  20.982  0.00  0.00    +0.000 HD
BRANCH   9  12
ATOM     12  C   UNL     1       1.063   9.120  20.149  0.00  0.00    +0.000 A 
ATOM     13  C   UNL     1       0.956  10.453  19.803  0.00  0.00    +0.000 A 
ATOM     14  C   UNL     1       0.194  11.086  20.821  0.00  0.00    +0.000 A 
ATOM     15  C   UNL     1      -0.223  12.398  21.099  0.00  0.00    +0.000 A 
ATOM     16  C   UNL     1      -0.921  12.645  22.288  0.00  0.00    +0.000 A 
ATOM     17  C   UNL     1      -1.222  11.607  23.176  0.00  0.00    +0.000 A 
ATOM     18  C   UNL     1      -0.847  10.288  22.899  0.00  0.00    +0.000 A 
ATOM     19  C   UNL     1      -0.138  10.077  21.721  0.00  0.00    +0.000 A 
ATOM     20  O   UNL     1       0.347   8.880  21.294  0.00  0.00    +0.000 OA
ENDBRANCH   9  12
ENDBRANCH   1  10
BRANCH   6  21
ATOM     21  C   UNL     1       5.882   4.609  19.057  0.00  0.00    +0.000 C 
BRANCH  21  22
ATOM     22  C   UNL     1       6.048   4.776  17.566  0.00  0.00    +0.000 A 
ATOM     23  C   UNL     1       5.277   4.044  16.658  0.00  0.00    +0.000 A 
ATOM     24  C   UNL     1       5.546   4.129  15.296  0.00  0.00    +0.000 A 
ATOM     25  C   UNL     1       6.581   4.949  14.880  0.00  0.00    +0.000 A 
ATOM     26  N   UNL     1       7.331   5.693  15.721  0.00  0.00    +0.000 NA
ATOM     27  C   UNL     1       7.049   5.589  17.040  0.00  0.00    +0.000 A 
ENDBRANCH  21  22
ENDBRANCH   6  21
TORSDOF 4
ENDMDL
MODEL 5
REMARK VINA RESULT:      -8.6      1.096      1.544
REMARK  Name = 
REMARK  4 active torsions:
REMARK  status: ('A' for Active; 'I' for Inactive)
REMARK    1  A    between atoms: C_2  and  C_18
REMARK    2  A    between atoms: N_3  and  C_4
REMARK    3  A    between atoms: N_9  and  C_10
REMARK    4  A    between atoms: C_10  and  C_11
REMARK                            x       y       z     vdW  Elec       q    Type
REMARK                         _______ _______ _______ _____ _____    ______ ____
ROOT
ATOM      1  C   UNL     1       2.205   5.381  20.157  0.00  0.00    +0.000 A 
ATOM      2  C   UNL     1       2.307   4.312  21.128  0.00  0.00    +0.000 A 
ATOM      3  C   UNL     1       2.901   3.152  20.817  0.00  0.00    +0.000 A 
ATOM      4  C   UNL     1       3.544   2.964  19.489  0.00  0.00    +0.000 A 
ATOM      5  O   UNL     1       4.126   1.909  19.250  0.00  0.00    +0.000 OA
ATOM      6  N   UNL     1       3.450   4.042  18.613  0.00  0.00    +0.000 N 
ATOM      7  C   UNL     1       2.766   5.204  18.949  0.00  0.00    +0.000 A 
ENDROOT
BRANCH   1  10
ATOM      8  O   UNL     1       2.343   8.052  18.992  0.00  0.00    +0.000 OA
ATOM      9  C   UNL     1       1.741   7.811  20.035  0.00  0.00    +0.000 C 
ATOM     10  N   UNL     1       1.577   6.537  20.561  0.00  0.00    +0.000 N 
ATOM     11  H   UNL     1       0.896   6.469  21.307  0.00  0.00    +0.000 HD
BRANCH   9  12
ATOM     12  C   UNL     1       1.105   8.846  20.819  0.00  0.00    +0.000 A 
ATOM     13  C   UNL     1       0.296   8.768  21.936  0.00  0.00    +0.000 A 
ATOM     14  C   UNL     1      -0.174  10.081  22.201  0.00  0.00    +0.000 A 
ATOM     15  C   UNL     1      -1.048  10.671  23.130  0.00  0.00    +0.000 A 
ATOM     16  C   UNL     1      -1.329  12.038  23.016  0.00  0.00    +0.000 A 
ATOM     17  C   UNL     1      -0.738  12.814  22.013  0.00  0.00    +0.000 A 
ATOM     18  C   UNL     1       0.163  12.253  21.102  0.00  0.00    +0.000 A 
ATOM     19  C   UNL     1       0.407  10.890  21.228  0.00  0.00    +0.000 A 
ATOM     20  O   UNL     1       1.216  10.153  20.419  0.00  0.00    +0.000 OA
ENDBRANCH   9  12
ENDBRANCH   1  10
BRANCH   6  21
ATOM     21  C   UNL     1       4.228   4.005  17.374  0.00  0.00    +0.000 C 
BRANCH  21  22
ATOM     22  C   UNL     1       5.394   4.962  17.441  0.00  0.00    +0.000 A 
ATOM     23  C   UNL     1       6.396   4.825  18.406  0.00  0.00    +0.000 A 
ATOM     24  C   UNL     1       7.384   5.798  18.520  0.00  0.00    +0.000 A 
ATOM     25  C   UNL     1       7.341   6.882  17.660  0.00  0.00    +0.000 A 
ATOM     26  N   UNL     1       6.407   7.038  16.697  0.00  0.00    +0.000 NA
ATOM     27  C   UNL     1       5.458   6.078  16.610  0.00  0.00    +0.000 A 
ENDBRANCH  21  22
ENDBRANCH   6  21
TORSDOF 4
ENDMDL
MODEL 6
REMARK VINA RESULT:      -8.4      1.387      1.822
REMARK  Name = 
REMARK  4 active torsions:
REMARK  status: ('A' for Active; 'I' for Inactive)
REMARK    1  A    between atoms: C_2  and  C_18
REMARK    2  A    between atoms: N_3  and  C_4
REMARK    3  A    between atoms: N_9  and  C_10
REMARK    4  A    between atoms: C_10  and  C_11
REMARK                            x       y       z     vdW  Elec       q    Type
REMARK                         _______ _______ _______ _____ _____    ______ ____
ROOT
ATOM      1  C   UNL     1       2.409   5.518  19.280  0.00  0.00    +0.000 A 
ATOM      2  C   UNL     1       1.591   4.424  18.799  0.00  0.00    +0.000 A 
ATOM      3  C   UNL     1       2.148   3.344  18.235  0.00  0.00    +0.000 A 
ATOM      4  C   UNL     1       3.626   3.205  18.162  0.00  0.00    +0.000 A 
ATOM      5  O   UNL     1       4.109   2.181  17.686  0.00  0.00    +0.000 OA
ATOM      6  N   UNL     1       4.360   4.269  18.679  0.00  0.00    +0.000 N 
ATOM      7  C   UNL     1       3.745   5.403  19.195  0.00  0.00    +0.000 A 
ENDROOT
BRANCH   1  10
ATOM      8  O   UNL     1       2.436   8.322  18.474  0.00  0.00    +0.000 OA
ATOM      9  C   UNL     1       1.865   7.925  19.487  0.00  0.00    +0.000 C 
ATOM     10  N   UNL     1       1.754   6.588  19.844  0.00  0.00    +0.000 N 
ATOM     11  H   UNL     1       1.092   6.399  20.587  0.00  0.00    +0.000 HD
BRANCH   9  12
ATOM     12  C   UNL     1       1.214   8.826  20.412  0.00  0.00    +0.000 A 
ATOM     13  C   UNL     1       0.669   8.603  21.662  0.00  0.00    +0.000 A 
ATOM     14  C   UNL     1       0.025   9.805  22.054  0.00  0.00    +0.000 A 
ATOM     15  C   UNL     1      -0.744  10.225  23.153  0.00  0.00    +0.000 A 
ATOM     16  C   UNL     1      -1.291  11.515  23.139  0.00  0.00    +0.000 A 
ATOM     17  C   UNL     1      -1.063  12.383  22.065  0.00  0.00    +0.000 A 
ATOM     18  C   UNL     1      -0.270  11.996  20.980  0.00  0.00    +0.000 A 
ATOM     19  C   UNL     1       0.243  10.704  21.013  0.00  0.00    +0.000 A 
ATOM     20  O   UNL     1       1.000  10.129  20.040  0.00  0.00    +0.000 OA
ENDBRANCH   9  12
ENDBRANCH   1  10
BRANCH   6  21
ATOM     21  C   UNL     1       5.809   4.115  18.826  0.00  0.00    +0.000 C 
BRANCH  21  22
ATOM     22  C   UNL     1       6.536   5.329  18.303  0.00  0.00    +0.000 A 
ATOM     23  C   UNL     1       7.555   5.943  19.038  0.00  0.00    +0.000 A 
ATOM     24  C   UNL     1       8.114   7.134  18.585  0.00  0.00    +0.000 A 
ATOM     25  C   UNL     1       7.636   7.676  17.405  0.00  0.00    +0.000 A 
ATOM     26  N   UNL     1       6.674   7.102  16.652  0.00  0.00    +0.000 NA
ATOM     27  C   UNL     1       6.147   5.946  17.117  0.00  0.00    +0.000 A 
ENDBRANCH  21  22
ENDBRANCH   6  21
TORSDOF 4
ENDMDL
MODEL 7
REMARK VINA RESULT:      -8.4      1.014      1.229
REMARK  Name = 
REMARK  4 active torsions:
REMARK  status: ('A' for Active; 'I' for Inactive)
REMARK    1  A    between atoms: C_2  and  C_18
REMARK    2  A    between atoms: N_3  and  C_4
REMARK    3  A    between atoms: N_9  and  C_10
REMARK    4  A    between atoms: C_10  and  C_11
REMARK                            x       y       z     vdW  Elec       q    Type
REMARK                         _______ _______ _______ _____ _____    ______ ____
ROOT
ATOM      1  C   UNL     1       2.667   5.817  19.712  0.00  0.00    +0.000 A 
ATOM      2  C   UNL     1       2.115   4.618  20.309  0.00  0.00    +0.000 A 
ATOM      3  C   UNL     1       2.799   3.466  20.301  0.00  0.00    +0.000 A 
ATOM      4  C   UNL     1       4.179   3.410  19.750  0.00  0.00    +0.000 A 
ATOM      5  O   UNL     1       4.802   2.352  19.803  0.00  0.00    +0.000 OA
ATOM      6  N   UNL     1       4.671   4.603  19.229  0.00  0.00    +0.000 N 
ATOM      7  C   UNL     1       3.905   5.761  19.194  0.00  0.00    +0.000 A 
ENDROOT
BRANCH   1  10
ATOM      8  O   UNL     1       2.699   8.141  17.949  0.00  0.00    +0.000 OA
ATOM      9  C   UNL     1       2.003   8.082  18.960  0.00  0.00    +0.000 C 
ATOM     10  N   UNL     1       1.895   6.954  19.764  0.00  0.00    +0.000 N 
ATOM     11  H   UNL     1       1.141   6.984  20.439  0.00  0.00    +0.000 HD
BRANCH   9  12
ATOM     12  C   UNL     1       1.190   9.190  19.408  0.00  0.00    +0.000 A 
ATOM     13  C   UNL     1       0.940   9.676  20.677  0.00  0.00    +0.000 A 
ATOM     14  C   UNL     1      -0.052  10.684  20.547  0.00  0.00    +0.000 A 
ATOM     15  C   UNL     1      -0.769  11.511  21.427  0.00  0.00    +0.000 A 
ATOM     16  C   UNL     1      -1.758  12.355  20.903  0.00  0.00    +0.000 A 
ATOM     17  C   UNL     1      -2.017  12.394  19.529  0.00  0.00    +0.000 A 
ATOM     18  C   UNL     1      -1.288  11.605  18.633  0.00  0.00    +0.000 A 
ATOM     19  C   UNL     1      -0.328  10.764  19.184  0.00  0.00    +0.000 A 
ATOM     20  O   UNL     1       0.455   9.895  18.489  0.00  0.00    +0.000 OA
ENDBRANCH   9  12
ENDBRANCH   1  10
BRANCH   6  21
ATOM     21  C   UNL     1       6.086   4.672  18.856  0.00  0.00    +0.000 C 
BRANCH  21  22
ATOM     22  C   UNL     1       6.244   4.789  17.360  0.00  0.00    +0.000 A 
ATOM     23  C   UNL     1       5.588   3.917  16.486  0.00  0.00    +0.000 A 
ATOM     24  C   UNL     1       5.857   3.971  15.122  0.00  0.00    +0.000 A 
ATOM     25  C   UNL     1       6.777   4.902  14.672  0.00  0.00    +0.000 A 
ATOM     26  N   UNL     1       7.412   5.780  15.478  0.00  0.00    +0.000 NA
ATOM     27  C   UNL     1       7.133   5.703  16.799  0.00  0.00    +0.000 A 
ENDBRANCH  21  22
ENDBRANCH   6  21
TORSDOF 4
ENDMDL
MODEL 8
REMARK VINA RESULT:      -8.4      1.411      1.806
REMARK  Name = 
REMARK  4 active torsions:
REMARK  status: ('A' for Active; 'I' for Inactive)
REMARK    1  A    between atoms: C_2  and  C_18
REMARK    2  A    between atoms: N_3  and  C_4
REMARK    3  A    between atoms: N_9  and  C_10
REMARK    4  A    between atoms: C_10  and  C_11
REMARK                            x       y       z     vdW  Elec       q    Type
REMARK                         _______ _______ _______ _____ _____    ______ ____
ROOT
ATOM      1  C   UNL     1       2.542   6.274  19.631  0.00  0.00    +0.000 A 
ATOM      2  C   UNL     1       1.843   5.139  20.196  0.00  0.00    +0.000 A 
ATOM      3  C   UNL     1       2.406   3.923  20.218  0.00  0.00    +0.000 A 
ATOM      4  C   UNL     1       3.799   3.726  19.736  0.00  0.00    +0.000 A 
ATOM      5  O   UNL     1       4.308   2.610  19.815  0.00  0.00    +0.000 OA
ATOM      6  N   UNL     1       4.435   4.862  19.244  0.00  0.00    +0.000 N 
ATOM      7  C   UNL     1       3.793   6.092  19.175  0.00  0.00    +0.000 A 
ENDROOT
BRANCH   1  10
ATOM      8  O   UNL     1       2.259   8.241  17.496  0.00  0.00    +0.000 OA
ATOM      9  C   UNL     1       1.854   8.436  18.639  0.00  0.00    +0.000 C 
ATOM     10  N   UNL     1       1.889   7.484  19.649  0.00  0.00    +0.000 N 
ATOM     11  H   UNL     1       1.344   7.715  20.471  0.00  0.00    +0.000 HD
BRANCH   9  12
ATOM     12  C   UNL     1       1.263   9.691  19.048  0.00  0.00    +0.000 A 
ATOM     13  C   UNL     1       0.222   9.962  19.915  0.00  0.00    +0.000 A 
ATOM     14  C   UNL     1      -0.040  11.354  19.826  0.00  0.00    +0.000 A 
ATOM     15  C   UNL     1      -0.975  12.242  20.385  0.00  0.00    +0.000 A 
ATOM     16  C   UNL     1      -0.959  13.581  19.976  0.00  0.00    +0.000 A 
ATOM     17  C   UNL     1      -0.020  14.040  19.046  0.00  0.00    +0.000 A 
ATOM     18  C   UNL     1       0.941  13.180  18.506  0.00  0.00    +0.000 A 
ATOM     19  C   UNL     1       0.889  11.852  18.916  0.00  0.00    +0.000 A 
ATOM     20  O   UNL     1       1.707  10.857  18.479  0.00  0.00    +0.000 OA
ENDBRANCH   9  12
ENDBRANCH   1  10
BRANCH   6  21
ATOM     21  C   UNL     1       5.866   4.786  18.942  0.00  0.00    +0.000 C 
BRANCH  21  22
ATOM     22  C   UNL     1       6.108   4.856  17.454  0.00  0.00    +0.000 A 
ATOM     23  C   UNL     1       5.411   4.035  16.562  0.00  0.00    +0.000 A 
ATOM     24  C   UNL     1       5.750   4.035  15.213  0.00  0.00    +0.000 A 
ATOM     25  C   UNL     1       6.779   4.861  14.794  0.00  0.00    +0.000 A 
ATOM     26  N   UNL     1       7.458   5.689  15.617  0.00  0.00    +0.000 NA
ATOM     27  C   UNL     1       7.109   5.667  16.924  0.00  0.00    +0.000 A 
ENDBRANCH  21  22
ENDBRANCH   6  21
TORSDOF 4
ENDMDL
MODEL 9
REMARK VINA RESULT:      -8.3      0.863      1.138
REMARK  Name = 
REMARK  4 active torsions:
REMARK  status: ('A' for Active; 'I' for Inactive)
REMARK    1  A    between atoms: C_2  and  C_18
REMARK    2  A    between atoms: N_3  and  C_4
REMARK    3  A    between atoms: N_9  and  C_10
REMARK    4  A    between atoms: C_10  and  C_11
REMARK                            x       y       z     vdW  Elec       q    Type
REMARK                         _______ _______ _______ _____ _____    ______ ____
ROOT
ATOM      1  C   UNL     1       1.935   5.288  20.197  0.00  0.00    +0.000 A 
ATOM      2  C   UNL     1       1.108   4.100  20.245  0.00  0.00    +0.000 A 
ATOM      3  C   UNL     1       1.591   2.908  19.868  0.00  0.00    +0.000 A 
ATOM      4  C   UNL     1       3.015   2.761  19.467  0.00  0.00    +0.000 A 
ATOM      5  O   UNL     1       3.444   1.647  19.176  0.00  0.00    +0.000 OA
ATOM      6  N   UNL     1       3.771   3.930  19.481  0.00  0.00    +0.000 N 
ATOM      7  C   UNL     1       3.216   5.160  19.814  0.00  0.00    +0.000 A 
ENDROOT
BRANCH   1  10
ATOM      8  O   UNL     1       2.273   7.969  19.098  0.00  0.00    +0.000 OA
ATOM      9  C   UNL     1       1.615   7.742  20.111  0.00  0.00    +0.000 C 
ATOM     10  N   UNL     1       1.358   6.469  20.601  0.00  0.00    +0.000 N 
ATOM     11  H   UNL     1       0.643   6.425  21.318  0.00  0.00    +0.000 HD
BRANCH   9  12
ATOM     12  C   UNL     1       1.006   8.796  20.891  0.00  0.00    +0.000 A 
ATOM     13  C   UNL     1       0.164   8.742  21.985  0.00  0.00    +0.000 A 
ATOM     14  C   UNL     1      -0.251  10.073  22.255  0.00  0.00    +0.000 A 
ATOM     15  C   UNL     1      -1.122  10.692  23.167  0.00  0.00    +0.000 A 
ATOM     16  C   UNL     1      -1.335  12.072  23.064  0.00  0.00    +0.000 A 
ATOM     17  C   UNL     1      -0.680  12.832  22.089  0.00  0.00    +0.000 A 
ATOM     18  C   UNL     1       0.218  12.240  21.195  0.00  0.00    +0.000 A 
ATOM     19  C   UNL     1       0.394  10.865  21.309  0.00  0.00    +0.000 A 
ATOM     20  O   UNL     1       1.190  10.101  20.513  0.00  0.00    +0.000 OA
ENDBRANCH   9  12
ENDBRANCH   1  10
BRANCH   6  21
ATOM     21  C   UNL     1       5.220   3.828  19.295  0.00  0.00    +0.000 C 
BRANCH  21  22
ATOM     22  C   UNL     1       5.624   4.324  17.928  0.00  0.00    +0.000 A 
ATOM     23  C   UNL     1       6.641   5.270  17.766  0.00  0.00    +0.000 A 
ATOM     24  C   UNL     1       6.899   5.799  16.505  0.00  0.00    +0.000 A 
ATOM     25  C   UNL     1       6.130   5.363  15.440  0.00  0.00    +0.000 A 
ATOM     26  N   UNL     1       5.158   4.432  15.549  0.00  0.00    +0.000 NA
ATOM     27  C   UNL     1       4.927   3.937  16.787  0.00  0.00    +0.000 A 
ENDBRANCH  21  22
ENDBRANCH   6  21
TORSDOF 4
ENDMDL
