MODEL 1
REMARK VINA RESULT:      -8.3      0.000      0.000
REMARK  Name = 
REMARK  3 active torsions:
REMARK  status: ('A' for Active; 'I' for Inactive)
REMARK    1  A    between atoms: N_3  and  C_4
REMARK    2  A    between atoms: C_4  and  C_5
REMARK    3  A    between atoms: N_14  and  C_15
REMARK                            x       y       z     vdW  Elec       q    Type
REMARK                         _______ _______ _______ _____ _____    ______ ____
ROOT
ATOM      1  O   UNL     1       1.904   7.373  17.777  0.00  0.00    +0.000 OA
ATOM      2  C   UNL     1       2.180   7.006  18.913  0.00  0.00    +0.000 C 
ATOM      3  N   UNL     1       2.100   7.821  20.013  0.00  0.00    +0.000 N 
ATOM      4  N   UNL     1       2.654   5.751  19.212  0.00  0.00    +0.000 N 
ATOM      5  H   UNL     1       2.006   7.387  20.917  0.00  0.00    +0.000 HD
ATOM      6  H   UNL     1       2.759   5.487  20.181  0.00  0.00    +0.000 HD
ENDROOT
BRANCH   4   7
ATOM      7  C   UNL     1       2.804   4.737  18.209  0.00  0.00    +0.000 C 
ATOM      8  C   UNL     1       3.883   3.690  18.328  0.00  0.00    +0.000 C 
ATOM      9  C   UNL     1       5.072   3.853  19.262  0.00  0.00    +0.000 C 
ATOM     10  C   UNL     1       5.838   5.010  18.660  0.00  0.00    +0.000 A 
ATOM     11  C   UNL     1       6.994   5.594  19.150  0.00  0.00    +0.000 A 
ATOM     12  C   UNL     1       7.542   6.651  18.429  0.00  0.00    +0.000 A 
ATOM     13  F   UNL     1       8.652   7.249  18.885  0.00  0.00    +0.000 F 
ATOM     14  C   UNL     1       6.962   7.106  17.242  0.00  0.00    +0.000 A 
ATOM     15  C   UNL     1       5.788   6.518  16.762  0.00  0.00    +0.000 A 
ATOM     16  C   UNL     1       5.217   5.479  17.485  0.00  0.00    +0.000 A 
ATOM     17  C   UNL     1       3.950   4.728  17.218  0.00  0.00    +0.000 C 
ENDBRANCH   4   7
BRANCH   3  18
ATOM     18  C   UNL     1       1.608   9.171  19.865  0.00  0.00    +0.000 C 
BRANCH  18  19
ATOM     19  C   UNL     1       0.949   9.606  21.120  0.00  0.00    +0.000 A 
ATOM     20  C   UNL     1       1.180   9.117  22.424  0.00  0.00    +0.000 A 
ATOM     21  N   UNL     1       0.387   9.667  23.345  0.00  0.00    +0.000 NA
ATOM     22  N   UNL     1      -0.407  10.523  22.652  0.00  0.00    +0.000 N 
ATOM     23  C   UNL     1      -1.432  11.325  23.158  0.00  0.00    +0.000 A 
ATOM     24  C   UNL     1      -2.132  12.124  22.339  0.00  0.00    +0.000 A 
ATOM     25  C   UNL     1      -1.805  12.134  20.923  0.00  0.00    +0.000 A 
ATOM     26  C   UNL     1      -0.821  11.362  20.421  0.00  0.00    +0.000 A 
ATOM     27  C   UNL     1      -0.077  10.516  21.293  0.00  0.00    +0.000 A 
ENDBRANCH  18  19
ENDBRANCH   3  18
TORSDOF 3
ENDMDL
MODEL 2
REMARK VINA RESULT:      -8.1      2.642      3.774
REMARK  Name = 
REMARK  3 active torsions:
REMARK  status: ('A' for Active; 'I' for Inactive)
REMARK    1  A    between atoms: N_3  and  C_4
REMARK    2  A    between atoms: C_4  and  C_5
REMARK    3  A    between atoms: N_14  and  C_15
REMARK                            x       y       z     vdW  Elec       q    Type
REMARK                         _______ _______ _______ _____ _____    ______ ____
ROOT
ATOM      1  O   UNL     1       1.986   8.181  17.576  0.00  0.00    +0.000 OA
ATOM      2  C   UNL     1       2.240   7.846  18.728  0.00  0.00    +0.000 C 
ATOM      3  N   UNL     1       1.845   8.560  19.830  0.00  0.00    +0.000 N 
ATOM      4  N   UNL     1       2.995   6.743  19.050  0.00  0.00    +0.000 N 
ATOM      5  H   UNL     1       1.782   8.076  20.710  0.00  0.00    +0.000 HD
ATOM      6  H   UNL     1       3.073   6.471  20.019  0.00  0.00    +0.000 HD
ENDROOT
BRANCH   4   7
ATOM      7  C   UNL     1       3.500   5.849  18.048  0.00  0.00    +0.000 C 
ATOM      8  C   UNL     1       2.610   4.797  17.437  0.00  0.00    +0.000 C 
ATOM      9  C   UNL     1       1.299   4.371  18.078  0.00  0.00    +0.000 C 
ATOM     10  C   UNL     1       1.734   3.691  19.356  0.00  0.00    +0.000 A 
ATOM     11  C   UNL     1       0.920   3.150  20.337  0.00  0.00    +0.000 A 
ATOM     12  C   UNL     1       1.535   2.561  21.438  0.00  0.00    +0.000 A 
ATOM     13  F   UNL     1       0.775   2.043  22.412  0.00  0.00    +0.000 F 
ATOM     14  C   UNL     1       2.927   2.499  21.553  0.00  0.00    +0.000 A 
ATOM     15  C   UNL     1       3.740   3.059  20.564  0.00  0.00    +0.000 A 
ATOM     16  C   UNL     1       3.140   3.672  19.472  0.00  0.00    +0.000 A 
ATOM     17  C   UNL     1       3.777   4.385  18.321  0.00  0.00    +0.000 C 
ENDBRANCH   4   7
BRANCH   3  18
ATOM     18  C   UNL     1       1.033   9.743  19.658  0.00  0.00    +0.000 C 
BRANCH  18  19
ATOM     19  C   UNL     1       0.421  10.125  20.953  0.00  0.00    +0.000 A 
ATOM     20  C   UNL     1       0.733   9.616  22.232  0.00  0.00    +0.000 A 
ATOM     21  N   UNL     1      -0.033  10.114  23.203  0.00  0.00    +0.000 NA
ATOM     22  N   UNL     1      -0.890  10.957  22.570  0.00  0.00    +0.000 N 
ATOM     23  C   UNL     1      -1.917  11.708  23.145  0.00  0.00    +0.000 A 
ATOM     24  C   UNL     1      -2.685  12.499  22.380  0.00  0.00    +0.000 A 
ATOM     25  C   UNL     1      -2.427  12.554  20.951  0.00  0.00    +0.000 A 
ATOM     26  C   UNL     1      -1.443  11.830  20.384  0.00  0.00    +0.000 A 
ATOM     27  C   UNL     1      -0.627  10.992  21.197  0.00  0.00    +0.000 A 
ENDBRANCH  18  19
ENDBRANCH   3  18
TORSDOF 3
ENDMDL
MODEL 3
REMARK VINA RESULT:      -8.0      5.179      8.158
REMARK  Name = 
REMARK  3 active torsions:
REMARK  status: ('A' for Active; 'I' for Inactive)
REMARK    1  A    between atoms: N_3  and  C_4
REMARK    2  A    between atoms: C_4  and  C_5
REMARK    3  A    between atoms: N_14  and  C_15
REMARK                            x       y       z     vdW  Elec       q    Type
REMARK                         _______ _______ _______ _____ _____    ______ ____
ROOT
ATOM      1  O   UNL     1       8.335   6.741  18.945  0.00  0.00    +0.000 OA
ATOM      2  C   UNL     1       8.056   7.396  17.948  0.00  0.00    +0.000 C 
ATOM      3  N   UNL     1       8.176   8.760  17.879  0.00  0.00    +0.000 N 
ATOM      4  N   UNL     1       7.539   6.848  16.798  0.00  0.00    +0.000 N 
ATOM      5  H   UNL     1       8.263   9.182  16.969  0.00  0.00    +0.000 HD
ATOM      6  H   UNL     1       7.434   7.433  15.982  0.00  0.00    +0.000 HD
ENDROOT
BRANCH   4   7
ATOM      7  C   UNL     1       7.342   5.434  16.653  0.00  0.00    +0.000 C 
ATOM      8  C   UNL     1       6.140   4.897  15.917  0.00  0.00    +0.000 C 
ATOM      9  C   UNL     1       4.916   5.751  15.630  0.00  0.00    +0.000 C 
ATOM     10  C   UNL     1       4.337   6.011  17.003  0.00  0.00    +0.000 A 
ATOM     11  C   UNL     1       3.226   6.779  17.312  0.00  0.00    +0.000 A 
ATOM     12  C   UNL     1       2.860   6.881  18.651  0.00  0.00    +0.000 A 
ATOM     13  F   UNL     1       1.800   7.629  18.985  0.00  0.00    +0.000 F 
ATOM     14  C   UNL     1       3.575   6.223  19.657  0.00  0.00    +0.000 A 
ATOM     15  C   UNL     1       4.701   5.461  19.336  0.00  0.00    +0.000 A 
ATOM     16  C   UNL     1       5.092   5.371  18.007  0.00  0.00    +0.000 A 
ATOM     17  C   UNL     1       6.276   4.673  17.415  0.00  0.00    +0.000 C 
ENDBRANCH   4   7
BRANCH   3  18
ATOM     18  C   UNL     1       8.716   9.485  19.006  0.00  0.00    +0.000 C 
BRANCH  18  19
ATOM     19  C   UNL     1       9.086  10.859  18.589  0.00  0.00    +0.000 A 
ATOM     20  C   UNL     1       8.386  11.704  17.703  0.00  0.00    +0.000 A 
ATOM     21  N   UNL     1       9.002  12.865  17.477  0.00  0.00    +0.000 NA
ATOM     22  N   UNL     1      10.147  12.796  18.204  0.00  0.00    +0.000 N 
ATOM     23  C   UNL     1      11.159  13.755  18.283  0.00  0.00    +0.000 A 
ATOM     24  C   UNL     1      12.238  13.538  19.050  0.00  0.00    +0.000 A 
ATOM     25  C   UNL     1      12.333  12.289  19.787  0.00  0.00    +0.000 A 
ATOM     26  C   UNL     1      11.366  11.353  19.714  0.00  0.00    +0.000 A 
ATOM     27  C   UNL     1      10.219  11.587  18.903  0.00  0.00    +0.000 A 
ENDBRANCH  18  19
ENDBRANCH   3  18
TORSDOF 3
ENDMDL
MODEL 4
REMARK VINA RESULT:      -8.0      1.621      2.067
REMARK  Name = 
REMARK  3 active torsions:
REMARK  status: ('A' for Active; 'I' for Inactive)
REMARK    1  A    between atoms: N_3  and  C_4
REMARK    2  A    between atoms: C_4  and  C_5
REMARK    3  A    between atoms: N_14  and  C_15
REMARK                            x       y       z     vdW  Elec       q    Type
REMARK                         _______ _______ _______ _____ _____    ______ ____
ROOT
ATOM      1  O   UNL     1       1.920   4.973  20.836  0.00  0.00    +0.000 OA
ATOM      2  C   UNL     1       2.035   5.640  19.815  0.00  0.00    +0.000 C 
ATOM      3  N   UNL     1       1.816   6.993  19.765  0.00  0.00    +0.000 N 
ATOM      4  N   UNL     1       2.346   5.105  18.587  0.00  0.00    +0.000 N 
ATOM      5  H   UNL     1       2.246   7.515  19.019  0.00  0.00    +0.000 HD
ATOM      6  H   UNL     1       2.528   5.729  17.815  0.00  0.00    +0.000 HD
ENDROOT
BRANCH   4   7
ATOM      7  C   UNL     1       2.625   3.708  18.417  0.00  0.00    +0.000 C 
ATOM      8  C   UNL     1       3.882   3.100  18.986  0.00  0.00    +0.000 C 
ATOM      9  C   UNL     1       5.069   3.946  19.418  0.00  0.00    +0.000 C 
ATOM     10  C   UNL     1       5.578   4.531  18.119  0.00  0.00    +0.000 A 
ATOM     11  C   UNL     1       6.632   5.414  17.955  0.00  0.00    +0.000 A 
ATOM     12  C   UNL     1       6.938   5.824  16.660  0.00  0.00    +0.000 A 
ATOM     13  F   UNL     1       7.942   6.690  16.467  0.00  0.00    +0.000 F 
ATOM     14  C   UNL     1       6.221   5.355  15.555  0.00  0.00    +0.000 A 
ATOM     15  C   UNL     1       5.151   4.474  15.733  0.00  0.00    +0.000 A 
ATOM     16  C   UNL     1       4.819   4.077  17.021  0.00  0.00    +0.000 A 
ATOM     17  C   UNL     1       3.699   3.196  17.479  0.00  0.00    +0.000 C 
ENDBRANCH   4   7
BRANCH   3  18
ATOM     18  C   UNL     1       1.491   7.707  20.978  0.00  0.00    +0.000 C 
BRANCH  18  19
ATOM     19  C   UNL     1       0.853   9.003  20.643  0.00  0.00    +0.000 A 
ATOM     20  C   UNL     1       0.984   9.739  19.446  0.00  0.00    +0.000 A 
ATOM     21  N   UNL     1       0.332  10.902  19.464  0.00  0.00    +0.000 NA
ATOM     22  N   UNL     1      -0.231  10.965  20.698  0.00  0.00    +0.000 N 
ATOM     23  C   UNL     1      -0.998  12.005  21.227  0.00  0.00    +0.000 A 
ATOM     24  C   UNL     1      -1.487  11.918  22.473  0.00  0.00    +0.000 A 
ATOM     25  C   UNL     1      -1.199  10.728  23.256  0.00  0.00    +0.000 A 
ATOM     26  C   UNL     1      -0.455   9.720  22.760  0.00  0.00    +0.000 A 
ATOM     27  C   UNL     1       0.060   9.812  21.435  0.00  0.00    +0.000 A 
ENDBRANCH  18  19
ENDBRANCH   3  18
TORSDOF 3
ENDMDL
MODEL 5
REMARK VINA RESULT:      -8.0      5.087      8.096
REMARK  Name = 
REMARK  3 active torsions:
REMARK  status: ('A' for Active; 'I' for Inactive)
REMARK    1  A    between atoms: N_3  and  C_4
REMARK    2  A    between atoms: C_4  and  C_5
REMARK    3  A    between atoms: N_14  and  C_15
REMARK                            x       y       z     vdW  Elec       q    Type
REMARK                         _______ _______ _______ _____ _____    ______ ____
ROOT
ATOM      1  O   UNL     1       7.990   7.321  16.563  0.00  0.00    +0.000 OA
ATOM      2  C   UNL     1       7.787   7.415  17.767  0.00  0.00    +0.000 C 
ATOM      3  N   UNL     1       8.124   8.519  18.509  0.00  0.00    +0.000 N 
ATOM      4  N   UNL     1       7.244   6.407  18.528  0.00  0.00    +0.000 N 
ATOM      5  H   UNL     1       7.638   8.671  19.377  0.00  0.00    +0.000 HD
ATOM      6  H   UNL     1       7.008   6.595  19.492  0.00  0.00    +0.000 HD
ENDROOT
BRANCH   4   7
ATOM      7  C   UNL     1       6.810   5.168  17.949  0.00  0.00    +0.000 C 
ATOM      8  C   UNL     1       5.828   5.157  16.805  0.00  0.00    +0.000 C 
ATOM      9  C   UNL     1       4.974   6.365  16.457  0.00  0.00    +0.000 C 
ATOM     10  C   UNL     1       4.049   6.499  17.646  0.00  0.00    +0.000 A 
ATOM     11  C   UNL     1       3.088   7.474  17.854  0.00  0.00    +0.000 A 
ATOM     12  C   UNL     1       2.337   7.405  19.024  0.00  0.00    +0.000 A 
ATOM     13  F   UNL     1       1.410   8.342  19.264  0.00  0.00    +0.000 F 
ATOM     14  C   UNL     1       2.529   6.382  19.958  0.00  0.00    +0.000 A 
ATOM     15  C   UNL     1       3.510   5.410  19.744  0.00  0.00    +0.000 A 
ATOM     16  C   UNL     1       4.284   5.481  18.593  0.00  0.00    +0.000 A 
ATOM     17  C   UNL     1       5.420   4.607  18.163  0.00  0.00    +0.000 C 
ENDBRANCH   4   7
BRANCH   3  18
ATOM     18  C   UNL     1       8.696   9.671  17.851  0.00  0.00    +0.000 C 
BRANCH  18  19
ATOM     19  C   UNL     1       9.401  10.517  18.844  0.00  0.00    +0.000 A 
ATOM     20  C   UNL     1       9.160  10.593  20.232  0.00  0.00    +0.000 A 
ATOM     21  N   UNL     1       9.921  11.493  20.855  0.00  0.00    +0.000 NA
ATOM     22  N   UNL     1      10.674  12.050  19.872  0.00  0.00    +0.000 N 
ATOM     23  C   UNL     1      11.615  13.072  20.003  0.00  0.00    +0.000 A 
ATOM     24  C   UNL     1      12.282  13.519  18.928  0.00  0.00    +0.000 A 
ATOM     25  C   UNL     1      12.001  12.923  17.633  0.00  0.00    +0.000 A 
ATOM     26  C   UNL     1      11.091  11.940  17.492  0.00  0.00    +0.000 A 
ATOM     27  C   UNL     1      10.386  11.464  18.635  0.00  0.00    +0.000 A 
ENDBRANCH  18  19
ENDBRANCH   3  18
TORSDOF 3
ENDMDL
MODEL 6
REMARK VINA RESULT:      -7.9      1.208      1.578
REMARK  Name = 
REMARK  3 active torsions:
REMARK  status: ('A' for Active; 'I' for Inactive)
REMARK    1  A    between atoms: N_3  and  C_4
REMARK    2  A    between atoms: C_4  and  C_5
REMARK    3  A    between atoms: N_14  and  C_15
REMARK                            x       y       z     vdW  Elec       q    Type
REMARK                         _______ _______ _______ _____ _____    ______ ____
ROOT
ATOM      1  O   UNL     1       1.351   5.046  20.104  0.00  0.00    +0.000 OA
ATOM      2  C   UNL     1       1.961   6.038  19.722  0.00  0.00    +0.000 C 
ATOM      3  N   UNL     1       1.882   7.261  20.337  0.00  0.00    +0.000 N 
ATOM      4  N   UNL     1       2.755   6.057  18.600  0.00  0.00    +0.000 N 
ATOM      5  H   UNL     1       2.637   7.912  20.196  0.00  0.00    +0.000 HD
ATOM      6  H   UNL     1       3.309   6.879  18.407  0.00  0.00    +0.000 HD
ENDROOT
BRANCH   4   7
ATOM      7  C   UNL     1       2.985   4.879  17.813  0.00  0.00    +0.000 C 
ATOM      8  C   UNL     1       3.966   3.829  18.269  0.00  0.00    +0.000 C 
ATOM      9  C   UNL     1       5.013   4.105  19.336  0.00  0.00    +0.000 C 
ATOM     10  C   UNL     1       5.932   5.109  18.679  0.00  0.00    +0.000 A 
ATOM     11  C   UNL     1       7.039   5.724  19.239  0.00  0.00    +0.000 A 
ATOM     12  C   UNL     1       7.754   6.619  18.448  0.00  0.00    +0.000 A 
ATOM     13  F   UNL     1       8.820   7.243  18.965  0.00  0.00    +0.000 F 
ATOM     14  C   UNL     1       7.384   6.884  17.126  0.00  0.00    +0.000 A 
ATOM     15  C   UNL     1       6.258   6.268  16.574  0.00  0.00    +0.000 A 
ATOM     16  C   UNL     1       5.521   5.392  17.360  0.00  0.00    +0.000 A 
ATOM     17  C   UNL     1       4.261   4.656  17.027  0.00  0.00    +0.000 C 
ENDBRANCH   4   7
BRANCH   3  18
ATOM     18  C   UNL     1       1.092   7.404  21.539  0.00  0.00    +0.000 C 
BRANCH  18  19
ATOM     19  C   UNL     1       0.671   8.816  21.699  0.00  0.00    +0.000 A 
ATOM     20  C   UNL     1       0.436   9.510  22.905  0.00  0.00    +0.000 A 
ATOM     21  N   UNL     1       0.008  10.760  22.724  0.00  0.00    +0.000 NA
ATOM     22  N   UNL     1      -0.069  10.908  21.376  0.00  0.00    +0.000 N 
ATOM     23  C   UNL     1      -0.496  12.035  20.671  0.00  0.00    +0.000 A 
ATOM     24  C   UNL     1      -0.517  12.025  19.329  0.00  0.00    +0.000 A 
ATOM     25  C   UNL     1      -0.092  10.823  18.632  0.00  0.00    +0.000 A 
ATOM     26  C   UNL     1       0.317   9.728  19.300  0.00  0.00    +0.000 A 
ATOM     27  C   UNL     1       0.342   9.740  20.725  0.00  0.00    +0.000 A 
ENDBRANCH  18  19
ENDBRANCH   3  18
TORSDOF 3
ENDMDL
MODEL 7
REMARK VINA RESULT:      -7.9      2.828      4.180
REMARK  Name = 
REMARK  3 active torsions:
REMARK  status: ('A' for Active; 'I' for Inactive)
REMARK    1  A    between atoms: N_3  and  C_4
REMARK    2  A    between atoms: C_4  and  C_5
REMARK    3  A    between atoms: N_14  and  C_15
REMARK                            x       y       z     vdW  Elec       q    Type
REMARK                         _______ _______ _______ _____ _____    ______ ____
ROOT
ATOM      1  O   UNL     1       3.161   8.020  16.716  0.00  0.00    +0.000 OA
ATOM      2  C   UNL     1       2.755   7.660  17.815  0.00  0.00    +0.000 C 
ATOM      3  N   UNL     1       2.097   8.488  18.688  0.00  0.00    +0.000 N 
ATOM      4  N   UNL     1       2.957   6.400  18.325  0.00  0.00    +0.000 N 
ATOM      5  H   UNL     1       1.510   8.067  19.389  0.00  0.00    +0.000 HD
ATOM      6  H   UNL     1       2.503   6.145  19.190  0.00  0.00    +0.000 HD
ENDROOT
BRANCH   4   7
ATOM      7  C   UNL     1       3.615   5.372  17.571  0.00  0.00    +0.000 C 
ATOM      8  C   UNL     1       2.853   4.162  17.092  0.00  0.00    +0.000 C 
ATOM      9  C   UNL     1       1.503   3.772  17.672  0.00  0.00    +0.000 C 
ATOM     10  C   UNL     1       1.830   3.378  19.095  0.00  0.00    +0.000 A 
ATOM     11  C   UNL     1       0.941   2.974  20.078  0.00  0.00    +0.000 A 
ATOM     12  C   UNL     1       1.461   2.649  21.327  0.00  0.00    +0.000 A 
ATOM     13  F   UNL     1       0.627   2.270  22.305  0.00  0.00    +0.000 F 
ATOM     14  C   UNL     1       2.833   2.710  21.588  0.00  0.00    +0.000 A 
ATOM     15  C   UNL     1       3.720   3.130  20.593  0.00  0.00    +0.000 A 
ATOM     16  C   UNL     1       3.213   3.482  19.350  0.00  0.00    +0.000 A 
ATOM     17  C   UNL     1       3.935   4.009  18.150  0.00  0.00    +0.000 C 
ENDBRANCH   4   7
BRANCH   3  18
ATOM     18  C   UNL     1       1.799   9.846  18.294  0.00  0.00    +0.000 C 
BRANCH  18  19
ATOM     19  C   UNL     1       0.728  10.396  19.160  0.00  0.00    +0.000 A 
ATOM     20  C   UNL     1      -0.232  11.373  18.821  0.00  0.00    +0.000 A 
ATOM     21  N   UNL     1      -1.031  11.707  19.835  0.00  0.00    +0.000 NA
ATOM     22  N   UNL     1      -0.591  10.962  20.882  0.00  0.00    +0.000 N 
ATOM     23  C   UNL     1      -1.082  10.967  22.189  0.00  0.00    +0.000 A 
ATOM     24  C   UNL     1      -0.536  10.168  23.119  0.00  0.00    +0.000 A 
ATOM     25  C   UNL     1       0.570   9.306  22.738  0.00  0.00    +0.000 A 
ATOM     26  C   UNL     1       1.056   9.296  21.482  0.00  0.00    +0.000 A 
ATOM     27  C   UNL     1       0.474  10.143  20.495  0.00  0.00    +0.000 A 
ENDBRANCH  18  19
ENDBRANCH   3  18
TORSDOF 3
ENDMDL
MODEL 8
REMARK VINA RESULT:      -7.8      1.273      1.699
REMARK  Name = 
REMARK  3 active torsions:
REMARK  status: ('A' for Active; 'I' for Inactive)
REMARK    1  A    between atoms: N_3  and  C_4
REMARK    2  A    between atoms: C_4  and  C_5
REMARK    3  A    between atoms: N_14  and  C_15
REMARK                            x       y       z     vdW  Elec       q    Type
REMARK                         _______ _______ _______ _____ _____    ______ ____
ROOT
ATOM      1  O   UNL     1       1.554   5.370  20.261  0.00  0.00    +0.000 OA
ATOM      2  C   UNL     1       2.011   6.206  19.490  0.00  0.00    +0.000 C 
ATOM      3  N   UNL     1       1.911   7.559  19.694  0.00  0.00    +0.000 N 
ATOM      4  N   UNL     1       2.631   5.889  18.305  0.00  0.00    +0.000 N 
ATOM      5  H   UNL     1       2.577   8.157  19.233  0.00  0.00    +0.000 HD
ATOM      6  H   UNL     1       3.075   6.625  17.775  0.00  0.00    +0.000 HD
ENDROOT
BRANCH   4   7
ATOM      7  C   UNL     1       2.850   4.530  17.902  0.00  0.00    +0.000 C 
ATOM      8  C   UNL     1       3.757   3.628  18.699  0.00  0.00    +0.000 C 
ATOM      9  C   UNL     1       4.757   4.169  19.708  0.00  0.00    +0.000 C 
ATOM     10  C   UNL     1       5.754   4.918  18.852  0.00  0.00    +0.000 A 
ATOM     11  C   UNL     1       6.855   5.637  19.283  0.00  0.00    +0.000 A 
ATOM     12  C   UNL     1       7.650   6.247  18.317  0.00  0.00    +0.000 A 
ATOM     13  F   UNL     1       8.715   6.964  18.702  0.00  0.00    +0.000 F 
ATOM     14  C   UNL     1       7.363   6.132  16.953  0.00  0.00    +0.000 A 
ATOM     15  C   UNL     1       6.242   5.414  16.529  0.00  0.00    +0.000 A 
ATOM     16  C   UNL     1       5.426   4.822  17.483  0.00  0.00    +0.000 A 
ATOM     17  C   UNL     1       4.154   4.056  17.295  0.00  0.00    +0.000 C 
ENDBRANCH   4   7
BRANCH   3  18
ATOM     18  C   UNL     1       1.294   8.053  20.903  0.00  0.00    +0.000 C 
BRANCH  18  19
ATOM     19  C   UNL     1       0.537   9.294  20.608  0.00  0.00    +0.000 A 
ATOM     20  C   UNL     1       0.515  10.018  19.398  0.00  0.00    +0.000 A 
ATOM     21  N   UNL     1      -0.216  11.132  19.458  0.00  0.00    +0.000 NA
ATOM     22  N   UNL     1      -0.679  11.173  20.734  0.00  0.00    +0.000 N 
ATOM     23  C   UNL     1      -1.473  12.164  21.315  0.00  0.00    +0.000 A 
ATOM     24  C   UNL     1      -1.850  12.062  22.599  0.00  0.00    +0.000 A 
ATOM     25  C   UNL     1      -1.412  10.909  23.367  0.00  0.00    +0.000 A 
ATOM     26  C   UNL     1      -0.641   9.949  22.820  0.00  0.00    +0.000 A 
ATOM     27  C   UNL     1      -0.244  10.057  21.456  0.00  0.00    +0.000 A 
ENDBRANCH  18  19
ENDBRANCH   3  18
TORSDOF 3
ENDMDL
MODEL 9
REMARK VINA RESULT:      -7.7      2.208      2.999
REMARK  Name = 
REMARK  3 active torsions:
REMARK  status: ('A' for Active; 'I' for Inactive)
REMARK    1  A    between atoms: N_3  and  C_4
REMARK    2  A    between atoms: C_4  and  C_5
REMARK    3  A    between atoms: N_14  and  C_15
REMARK                            x       y       z     vdW  Elec       q    Type
REMARK                         _______ _______ _______ _____ _____    ______ ____
ROOT
ATOM      1  O   UNL     1       2.026   6.288  19.047  0.00  0.00    +0.000 OA
ATOM      2  C   UNL     1       2.915   6.973  18.557  0.00  0.00    +0.000 C 
ATOM      3  N   UNL     1       2.685   8.140  17.873  0.00  0.00    +0.000 N 
ATOM      4  N   UNL     1       4.246   6.628  18.589  0.00  0.00    +0.000 N 
ATOM      5  H   UNL     1       3.438   8.804  17.803  0.00  0.00    +0.000 HD
ATOM      6  H   UNL     1       4.931   7.293  18.258  0.00  0.00    +0.000 HD
ENDROOT
BRANCH   4   7
ATOM      7  C   UNL     1       4.709   5.450  19.264  0.00  0.00    +0.000 C 
ATOM      8  C   UNL     1       6.179   5.119  19.313  0.00  0.00    +0.000 C 
ATOM      9  C   UNL     1       7.186   5.760  18.371  0.00  0.00    +0.000 C 
ATOM     10  C   UNL     1       6.799   5.215  17.015  0.00  0.00    +0.000 A 
ATOM     11  C   UNL     1       7.380   5.516  15.794  0.00  0.00    +0.000 A 
ATOM     12  C   UNL     1       6.868   4.891  14.661  0.00  0.00    +0.000 A 
ATOM     13  F   UNL     1       7.396   5.173  13.462  0.00  0.00    +0.000 F 
ATOM     14  C   UNL     1       5.812   3.977  14.742  0.00  0.00    +0.000 A 
ATOM     15  C   UNL     1       5.225   3.689  15.977  0.00  0.00    +0.000 A 
ATOM     16  C   UNL     1       5.710   4.325  17.113  0.00  0.00    +0.000 A 
ATOM     17  C   UNL     1       5.226   4.233  18.526  0.00  0.00    +0.000 C 
ENDBRANCH   4   7
BRANCH   3  18
ATOM     18  C   UNL     1       1.336   8.644  17.761  0.00  0.00    +0.000 C 
BRANCH  18  19
ATOM     19  C   UNL     1       1.124   9.735  18.742  0.00  0.00    +0.000 A 
ATOM     20  C   UNL     1       1.487  11.092  18.607  0.00  0.00    +0.000 A 
ATOM     21  N   UNL     1       1.218  11.824  19.689  0.00  0.00    +0.000 NA
ATOM     22  N   UNL     1       0.685  10.946  20.577  0.00  0.00    +0.000 N 
ATOM     23  C   UNL     1       0.263  11.212  21.881  0.00  0.00    +0.000 A 
ATOM     24  C   UNL     1      -0.244  10.229  22.641  0.00  0.00    +0.000 A 
ATOM     25  C   UNL     1      -0.339   8.891  22.083  0.00  0.00    +0.000 A 
ATOM     26  C   UNL     1       0.070   8.620  20.828  0.00  0.00    +0.000 A 
ATOM     27  C   UNL     1       0.605   9.665  20.021  0.00  0.00    +0.000 A 
ENDBRANCH  18  19
ENDBRANCH   3  18
TORSDOF 3
ENDMDL
