MODEL 1
REMARK VINA RESULT:      -8.3      0.000      0.000
REMARK  Name = 
REMARK  6 active torsions:
REMARK  status: ('A' for Active; 'I' for Inactive)
REMARK    1  A    between atoms: C_2  and  C_16
REMARK    2  A    between atoms: N_3  and  C_4
REMARK    3  A    between atoms: N_8  and  C_9
REMARK    4  A    between atoms: C_9  and  C_10
REMARK    5  A    between atoms: C_20  and  S_21
REMARK    6  A    between atoms: S_21  and  N_24
REMARK                            x       y       z     vdW  Elec       q    Type
REMARK                         _______ _______ _______ _____ _____    ______ ____
ROOT
ATOM      1  O   UNL     1       1.706   8.573  20.151  0.00  0.00    +0.000 OA
ATOM      2  C   UNL     1       1.977   8.372  18.975  0.00  0.00    +0.000 C 
ATOM      3  N   UNL     1       1.616   9.317  17.948  0.00  0.00    +0.000 N 
ATOM      4  H   UNL     1       1.750   9.065  16.975  0.00  0.00    +0.000 HD
ENDROOT
BRANCH   2   5
ATOM      5  C   UNL     1       2.590   7.095  18.547  0.00  0.00    +0.000 A 
ATOM      6  C   UNL     1       1.995   5.913  19.019  0.00  0.00    +0.000 A 
ATOM      7  C   UNL     1       2.494   4.672  18.633  0.00  0.00    +0.000 A 
ATOM      8  C   UNL     1       3.576   4.602  17.759  0.00  0.00    +0.000 A 
ATOM      9  C   UNL     1       4.187   5.776  17.299  0.00  0.00    +0.000 A 
ATOM     10  C   UNL     1       3.703   7.032  17.699  0.00  0.00    +0.000 A 
BRANCH   9  11
ATOM     11  S   UNL     1       5.418   5.676  15.999  0.00  0.00    +0.000 S 
ATOM     12  O   UNL     1       5.313   4.334  15.466  0.00  0.00    +0.000 OA
ATOM     13  O   UNL     1       5.196   6.833  15.151  0.00  0.00    +0.000 OA
BRANCH  11  14
ATOM     14  N   UNL     1       6.913   5.850  16.725  0.00  0.00    +0.000 NA
ATOM     15  C   UNL     1       7.508   4.799  17.558  0.00  0.00    +0.000 C 
ATOM     16  C   UNL     1       7.654   5.463  18.914  0.00  0.00    +0.000 C 
ATOM     17  C   UNL     1       7.971   6.913  18.585  0.00  0.00    +0.000 C 
ATOM     18  C   UNL     1       7.382   7.162  17.196  0.00  0.00    +0.000 C 
ENDBRANCH  11  14
ENDBRANCH   9  11
ENDBRANCH   2   5
BRANCH   3  19
ATOM     19  C   UNL     1       1.010  10.539  18.231  0.00  0.00    +0.000 A 
ATOM     20  C   UNL     1       1.618  11.716  18.616  0.00  0.00    +0.000 A 
ATOM     21  C   UNL     1       0.573  12.638  18.798  0.00  0.00    +0.000 A 
ATOM     22  N   UNL     1      -0.620  12.109  18.533  0.00  0.00    +0.000 NA
ATOM     23  N   UNL     1      -0.343  10.829  18.192  0.00  0.00    +0.000 N 
BRANCH  23  24
ATOM     24  C   UNL     1      -1.454   9.893  18.070  0.00  0.00    +0.000 C 
BRANCH  24  25
ATOM     25  C   UNL     1      -2.673  10.530  17.478  0.00  0.00    +0.000 A 
ATOM     26  C   UNL     1      -3.814  10.957  18.131  0.00  0.00    +0.000 A 
ATOM     27  C   UNL     1      -4.781  11.461  17.224  0.00  0.00    +0.000 A 
ATOM     28 BR   UNL     1      -6.452  12.113  17.803  0.00  0.00    +0.000 Br
ATOM     29  C   UNL     1      -4.373  11.413  15.915  0.00  0.00    +0.000 A 
ATOM     30  S   UNL     1      -2.808  10.738  15.777  0.00  0.00    +0.000 S 
ENDBRANCH  24  25
ENDBRANCH  23  24
ENDBRANCH   3  19
TORSDOF 6
ENDMDL
MODEL 2
REMARK VINA RESULT:      -8.1      2.916      3.401
REMARK  Name = 
REMARK  6 active torsions:
REMARK  status: ('A' for Active; 'I' for Inactive)
REMARK    1  A    between atoms: C_2  and  C_16
REMARK    2  A    between atoms: N_3  and  C_4
REMARK    3  A    between atoms: N_8  and  C_9
REMARK    4  A    between atoms: C_9  and  C_10
REMARK    5  A    between atoms: C_20  and  S_21
REMARK    6  A    between atoms: S_21  and  N_24
REMARK                            x       y       z     vdW  Elec       q    Type
REMARK                         _______ _______ _______ _____ _____    ______ ____
ROOT
ATOM      1  O   UNL     1       1.232   5.679  20.484  0.00  0.00    +0.000 OA
ATOM      2  C   UNL     1       2.028   6.187  19.707  0.00  0.00    +0.000 C 
ATOM      3  N   UNL     1       2.213   7.615  19.647  0.00  0.00    +0.000 N 
ATOM      4  H   UNL     1       2.792   8.010  18.913  0.00  0.00    +0.000 HD
ENDROOT
BRANCH   2   5
ATOM      5  C   UNL     1       2.753   5.360  18.716  0.00  0.00    +0.000 A 
ATOM      6  C   UNL     1       2.278   4.055  18.507  0.00  0.00    +0.000 A 
ATOM      7  C   UNL     1       2.886   3.227  17.567  0.00  0.00    +0.000 A 
ATOM      8  C   UNL     1       3.958   3.703  16.816  0.00  0.00    +0.000 A 
ATOM      9  C   UNL     1       4.449   4.998  17.031  0.00  0.00    +0.000 A 
ATOM     10  C   UNL     1       3.855   5.832  17.992  0.00  0.00    +0.000 A 
BRANCH   9  11
ATOM     11  S   UNL     1       5.666   5.676  15.902  0.00  0.00    +0.000 S 
ATOM     12  O   UNL     1       5.861   4.664  14.886  0.00  0.00    +0.000 OA
ATOM     13  O   UNL     1       5.188   7.001  15.552  0.00  0.00    +0.000 OA
BRANCH  11  14
ATOM     14  N   UNL     1       7.088   5.854  16.763  0.00  0.00    +0.000 NA
ATOM     15  C   UNL     1       7.554   4.847  17.723  0.00  0.00    +0.000 C 
ATOM     16  C   UNL     1       7.591   5.603  19.038  0.00  0.00    +0.000 C 
ATOM     17  C   UNL     1       7.997   7.015  18.643  0.00  0.00    +0.000 C 
ATOM     18  C   UNL     1       7.560   7.180  17.188  0.00  0.00    +0.000 C 
ENDBRANCH  11  14
ENDBRANCH   9  11
ENDBRANCH   2   5
BRANCH   3  19
ATOM     19  C   UNL     1       1.563   8.494  20.511  0.00  0.00    +0.000 A 
ATOM     20  C   UNL     1       1.439   8.397  21.881  0.00  0.00    +0.000 A 
ATOM     21  C   UNL     1       0.680   9.513  22.272  0.00  0.00    +0.000 A 
ATOM     22  N   UNL     1       0.353  10.288  21.239  0.00  0.00    +0.000 NA
ATOM     23  N   UNL     1       0.893   9.656  20.171  0.00  0.00    +0.000 N 
BRANCH  23  24
ATOM     24  C   UNL     1       0.517  10.114  18.838  0.00  0.00    +0.000 C 
BRANCH  24  25
ATOM     25  C   UNL     1       0.513  11.607  18.729  0.00  0.00    +0.000 A 
ATOM     26  C   UNL     1       1.595  12.466  18.744  0.00  0.00    +0.000 A 
ATOM     27  C   UNL     1       1.189  13.823  18.673  0.00  0.00    +0.000 A 
ATOM     28 BR   UNL     1       2.432  15.241  18.683  0.00  0.00    +0.000 Br
ATOM     29  C   UNL     1      -0.172  13.979  18.605  0.00  0.00    +0.000 A 
ATOM     30  S   UNL     1      -0.972  12.469  18.642  0.00  0.00    +0.000 S 
ENDBRANCH  24  25
ENDBRANCH  23  24
ENDBRANCH   3  19
TORSDOF 6
ENDMDL
MODEL 3
REMARK VINA RESULT:      -8.1      2.109      2.511
REMARK  Name = 
REMARK  6 active torsions:
REMARK  status: ('A' for Active; 'I' for Inactive)
REMARK    1  A    between atoms: C_2  and  C_16
REMARK    2  A    between atoms: N_3  and  C_4
REMARK    3  A    between atoms: N_8  and  C_9
REMARK    4  A    between atoms: C_9  and  C_10
REMARK    5  A    between atoms: C_20  and  S_21
REMARK    6  A    between atoms: S_21  and  N_24
REMARK                            x       y       z     vdW  Elec       q    Type
REMARK                         _______ _______ _______ _____ _____    ______ ____
ROOT
ATOM      1  O   UNL     1       2.319   8.965  17.344  0.00  0.00    +0.000 OA
ATOM      2  C   UNL     1       1.939   8.667  18.468  0.00  0.00    +0.000 C 
ATOM      3  N   UNL     1       1.351   9.645  19.348  0.00  0.00    +0.000 N 
ATOM      4  H   UNL     1       1.156   9.392  20.310  0.00  0.00    +0.000 HD
ENDROOT
BRANCH   2   5
ATOM      5  C   UNL     1       2.173   7.309  19.010  0.00  0.00    +0.000 A 
ATOM      6  C   UNL     1       1.771   7.075  20.335  0.00  0.00    +0.000 A 
ATOM      7  C   UNL     1       1.928   5.814  20.905  0.00  0.00    +0.000 A 
ATOM      8  C   UNL     1       2.468   4.776  20.150  0.00  0.00    +0.000 A 
ATOM      9  C   UNL     1       2.888   5.006  18.834  0.00  0.00    +0.000 A 
ATOM     10  C   UNL     1       2.753   6.279  18.258  0.00  0.00    +0.000 A 
BRANCH   9  11
ATOM     11  S   UNL     1       3.358   3.615  17.804  0.00  0.00    +0.000 S 
ATOM     12  O   UNL     1       3.579   2.513  18.716  0.00  0.00    +0.000 OA
ATOM     13  O   UNL     1       2.348   3.531  16.765  0.00  0.00    +0.000 OA
BRANCH  11  14
ATOM     14  N   UNL     1       4.810   4.012  17.077  0.00  0.00    +0.000 NA
ATOM     15  C   UNL     1       5.914   4.630  17.819  0.00  0.00    +0.000 C 
ATOM     16  C   UNL     1       6.108   5.962  17.118  0.00  0.00    +0.000 C 
ATOM     17  C   UNL     1       5.797   5.661  15.660  0.00  0.00    +0.000 C 
ATOM     18  C   UNL     1       4.864   4.451  15.675  0.00  0.00    +0.000 C 
ENDBRANCH  11  14
ENDBRANCH   9  11
ENDBRANCH   2   5
BRANCH   3  19
ATOM     19  C   UNL     1       1.108  10.960  18.954  0.00  0.00    +0.000 A 
ATOM     20  C   UNL     1       2.033  11.929  18.626  0.00  0.00    +0.000 A 
ATOM     21  C   UNL     1       1.283  13.079  18.326  0.00  0.00    +0.000 A 
ATOM     22  N   UNL     1      -0.027  12.869  18.429  0.00  0.00    +0.000 NA
ATOM     23  N   UNL     1      -0.124  11.576  18.817  0.00  0.00    +0.000 N 
BRANCH  23  24
ATOM     24  C   UNL     1      -1.423  11.083  19.256  0.00  0.00    +0.000 C 
BRANCH  24  25
ATOM     25  C   UNL     1      -2.412  11.006  18.135  0.00  0.00    +0.000 A 
ATOM     26  C   UNL     1      -2.233  10.467  16.875  0.00  0.00    +0.000 A 
ATOM     27  C   UNL     1      -3.385  10.629  16.066  0.00  0.00    +0.000 A 
ATOM     28 BR   UNL     1      -3.454  10.008  14.287  0.00  0.00    +0.000 Br
ATOM     29  C   UNL     1      -4.412  11.276  16.706  0.00  0.00    +0.000 A 
ATOM     30  S   UNL     1      -3.973  11.707  18.301  0.00  0.00    +0.000 S 
ENDBRANCH  24  25
ENDBRANCH  23  24
ENDBRANCH   3  19
TORSDOF 6
ENDMDL
MODEL 4
REMARK VINA RESULT:      -8.0      1.924      2.471
REMARK  Name = 
REMARK  6 active torsions:
REMARK  status: ('A' for Active; 'I' for Inactive)
REMARK    1  A    between atoms: C_2  and  C_16
REMARK    2  A    between atoms: N_3  and  C_4
REMARK    3  A    between atoms: N_8  and  C_9
REMARK    4  A    between atoms: C_9  and  C_10
REMARK    5  A    between atoms: C_20  and  S_21
REMARK    6  A    between atoms: S_21  and  N_24
REMARK                            x       y       z     vdW  Elec       q    Type
REMARK                         _______ _______ _______ _____ _____    ______ ____
ROOT
ATOM      1  O   UNL     1       2.339   6.099  21.142  0.00  0.00    +0.000 OA
ATOM      2  C   UNL     1       2.359   6.501  19.987  0.00  0.00    +0.000 C 
ATOM      3  N   UNL     1       1.822   7.790  19.630  0.00  0.00    +0.000 N 
ATOM      4  H   UNL     1       1.747   8.042  18.650  0.00  0.00    +0.000 HD
ENDROOT
BRANCH   2   5
ATOM      5  C   UNL     1       2.835   5.629  18.890  0.00  0.00    +0.000 A 
ATOM      6  C   UNL     1       2.110   4.451  18.652  0.00  0.00    +0.000 A 
ATOM      7  C   UNL     1       2.476   3.595  17.617  0.00  0.00    +0.000 A 
ATOM      8  C   UNL     1       3.556   3.921  16.800  0.00  0.00    +0.000 A 
ATOM      9  C   UNL     1       4.296   5.086  17.041  0.00  0.00    +0.000 A 
ATOM     10  C   UNL     1       3.946   5.943  18.097  0.00  0.00    +0.000 A 
BRANCH   9  11
ATOM     11  S   UNL     1       5.526   5.611  15.847  0.00  0.00    +0.000 S 
ATOM     12  O   UNL     1       5.640   4.520  14.901  0.00  0.00    +0.000 OA
ATOM     13  O   UNL     1       5.119   6.934  15.411  0.00  0.00    +0.000 OA
BRANCH  11  14
ATOM     14  N   UNL     1       6.974   5.764  16.669  0.00  0.00    +0.000 NA
ATOM     15  C   UNL     1       7.518   4.687  17.504  0.00  0.00    +0.000 C 
ATOM     16  C   UNL     1       7.579   5.310  18.886  0.00  0.00    +0.000 C 
ATOM     17  C   UNL     1       7.913   6.770  18.620  0.00  0.00    +0.000 C 
ATOM     18  C   UNL     1       7.411   7.060  17.207  0.00  0.00    +0.000 C 
ENDBRANCH  11  14
ENDBRANCH   9  11
ENDBRANCH   2   5
BRANCH   3  19
ATOM     19  C   UNL     1       1.321   8.684  20.575  0.00  0.00    +0.000 A 
ATOM     20  C   UNL     1       0.915   8.412  21.865  0.00  0.00    +0.000 A 
ATOM     21  C   UNL     1       0.475   9.639  22.388  0.00  0.00    +0.000 A 
ATOM     22  N   UNL     1       0.604  10.636  21.515  0.00  0.00    +0.000 NA
ATOM     23  N   UNL     1       1.117  10.043  20.412  0.00  0.00    +0.000 N 
BRANCH  23  24
ATOM     24  C   UNL     1       1.160  10.811  19.174  0.00  0.00    +0.000 C 
BRANCH  24  25
ATOM     25  C   UNL     1      -0.195  10.986  18.564  0.00  0.00    +0.000 A 
ATOM     26  C   UNL     1      -0.854  10.140  17.691  0.00  0.00    +0.000 A 
ATOM     27  C   UNL     1      -2.104  10.673  17.286  0.00  0.00    +0.000 A 
ATOM     28 BR   UNL     1      -3.239   9.761  16.089  0.00  0.00    +0.000 Br
ATOM     29  C   UNL     1      -2.378  11.896  17.843  0.00  0.00    +0.000 A 
ATOM     30  S   UNL     1      -1.105  12.415  18.859  0.00  0.00    +0.000 S 
ENDBRANCH  24  25
ENDBRANCH  23  24
ENDBRANCH   3  19
TORSDOF 6
ENDMDL
MODEL 5
REMARK VINA RESULT:      -8.0      2.800      3.324
REMARK  Name = 
REMARK  6 active torsions:
REMARK  status: ('A' for Active; 'I' for Inactive)
REMARK    1  A    between atoms: C_2  and  C_16
REMARK    2  A    between atoms: N_3  and  C_4
REMARK    3  A    between atoms: N_8  and  C_9
REMARK    4  A    between atoms: C_9  and  C_10
REMARK    5  A    between atoms: C_20  and  S_21
REMARK    6  A    between atoms: S_21  and  N_24
REMARK                            x       y       z     vdW  Elec       q    Type
REMARK                         _______ _______ _______ _____ _____    ______ ____
ROOT
ATOM      1  O   UNL     1       1.641   5.981  20.882  0.00  0.00    +0.000 OA
ATOM      2  C   UNL     1       2.097   6.450  19.849  0.00  0.00    +0.000 C 
ATOM      3  N   UNL     1       1.969   7.852  19.538  0.00  0.00    +0.000 N 
ATOM      4  H   UNL     1       2.253   8.184  18.623  0.00  0.00    +0.000 HD
ENDROOT
BRANCH   2   5
ATOM      5  C   UNL     1       2.703   5.573  18.822  0.00  0.00    +0.000 A 
ATOM      6  C   UNL     1       2.107   4.317  18.626  0.00  0.00    +0.000 A 
ATOM      7  C   UNL     1       2.598   3.448  17.655  0.00  0.00    +0.000 A 
ATOM      8  C   UNL     1       3.674   3.837  16.861  0.00  0.00    +0.000 A 
ATOM      9  C   UNL     1       4.286   5.081  17.062  0.00  0.00    +0.000 A 
ATOM     10  C   UNL     1       3.810   5.954  18.053  0.00  0.00    +0.000 A 
BRANCH   9  11
ATOM     11  S   UNL     1       5.508   5.661  15.885  0.00  0.00    +0.000 S 
ATOM     12  O   UNL     1       5.624   4.611  14.895  0.00  0.00    +0.000 OA
ATOM     13  O   UNL     1       5.091   6.999  15.506  0.00  0.00    +0.000 OA
BRANCH  11  14
ATOM     14  N   UNL     1       6.958   5.789  16.706  0.00  0.00    +0.000 NA
ATOM     15  C   UNL     1       7.444   4.738  17.607  0.00  0.00    +0.000 C 
ATOM     16  C   UNL     1       7.531   5.437  18.951  0.00  0.00    +0.000 C 
ATOM     17  C   UNL     1       7.939   6.860  18.602  0.00  0.00    +0.000 C 
ATOM     18  C   UNL     1       7.458   7.091  17.171  0.00  0.00    +0.000 C 
ENDBRANCH  11  14
ENDBRANCH   9  11
ENDBRANCH   2   5
BRANCH   3  19
ATOM     19  C   UNL     1       1.392   8.767  20.417  0.00  0.00    +0.000 A 
ATOM     20  C   UNL     1       1.171   8.617  21.770  0.00  0.00    +0.000 A 
ATOM     21  C   UNL     1       0.548   9.806  22.185  0.00  0.00    +0.000 A 
ATOM     22  N   UNL     1       0.395  10.672  21.184  0.00  0.00    +0.000 NA
ATOM     23  N   UNL     1       0.909  10.027  20.111  0.00  0.00    +0.000 N 
BRANCH  23  24
ATOM     24  C   UNL     1       0.684  10.602  18.790  0.00  0.00    +0.000 C 
BRANCH  24  25
ATOM     25  C   UNL     1       0.924  12.079  18.763  0.00  0.00    +0.000 A 
ATOM     26  C   UNL     1      -0.003  13.096  18.891  0.00  0.00    +0.000 A 
ATOM     27  C   UNL     1       0.597  14.374  18.757  0.00  0.00    +0.000 A 
ATOM     28 BR   UNL     1      -0.404  15.967  18.874  0.00  0.00    +0.000 Br
ATOM     29  C   UNL     1       1.949  14.317  18.533  0.00  0.00    +0.000 A 
ATOM     30  S   UNL     1       2.499  12.700  18.469  0.00  0.00    +0.000 S 
ENDBRANCH  24  25
ENDBRANCH  23  24
ENDBRANCH   3  19
TORSDOF 6
ENDMDL
MODEL 6
REMARK VINA RESULT:      -8.0      2.613      3.852
REMARK  Name = 
REMARK  6 active torsions:
REMARK  status: ('A' for Active; 'I' for Inactive)
REMARK    1  A    between atoms: C_2  and  C_16
REMARK    2  A    between atoms: N_3  and  C_4
REMARK    3  A    between atoms: N_8  and  C_9
REMARK    4  A    between atoms: C_9  and  C_10
REMARK    5  A    between atoms: C_20  and  S_21
REMARK    6  A    between atoms: S_21  and  N_24
REMARK                            x       y       z     vdW  Elec       q    Type
REMARK                         _______ _______ _______ _____ _____    ______ ____
ROOT
ATOM      1  O   UNL     1       1.326   7.376  21.548  0.00  0.00    +0.000 OA
ATOM      2  C   UNL     1       1.558   7.931  20.483  0.00  0.00    +0.000 C 
ATOM      3  N   UNL     1       1.003   9.224  20.172  0.00  0.00    +0.000 N 
ATOM      4  H   UNL     1       1.118   9.602  19.238  0.00  0.00    +0.000 HD
ENDROOT
BRANCH   2   5
ATOM      5  C   UNL     1       2.327   7.243  19.422  0.00  0.00    +0.000 A 
ATOM      6  C   UNL     1       2.696   8.008  18.304  0.00  0.00    +0.000 A 
ATOM      7  C   UNL     1       3.449   7.441  17.280  0.00  0.00    +0.000 A 
ATOM      8  C   UNL     1       3.856   6.112  17.375  0.00  0.00    +0.000 A 
ATOM      9  C   UNL     1       3.478   5.337  18.478  0.00  0.00    +0.000 A 
ATOM     10  C   UNL     1       2.700   5.895  19.505  0.00  0.00    +0.000 A 
BRANCH   9  11
ATOM     11  S   UNL     1       4.201   3.711  18.701  0.00  0.00    +0.000 S 
ATOM     12  O   UNL     1       4.423   3.198  17.365  0.00  0.00    +0.000 OA
ATOM     13  O   UNL     1       5.307   3.891  19.623  0.00  0.00    +0.000 OA
BRANCH  11  14
ATOM     14  N   UNL     1       3.051   2.762  19.457  0.00  0.00    +0.000 NA
ATOM     15  C   UNL     1       1.759   2.450  18.834  0.00  0.00    +0.000 C 
ATOM     16  C   UNL     1       0.750   3.049  19.796  0.00  0.00    +0.000 C 
ATOM     17  C   UNL     1       1.384   2.857  21.165  0.00  0.00    +0.000 C 
ATOM     18  C   UNL     1       2.890   2.780  20.918  0.00  0.00    +0.000 C 
ENDBRANCH  11  14
ENDBRANCH   9  11
ENDBRANCH   2   5
BRANCH   3  19
ATOM     19  C   UNL     1       0.240   9.953  21.083  0.00  0.00    +0.000 A 
ATOM     20  C   UNL     1      -0.097   9.604  22.375  0.00  0.00    +0.000 A 
ATOM     21  C   UNL     1      -0.890  10.660  22.855  0.00  0.00    +0.000 A 
ATOM     22  N   UNL     1      -1.041  11.629  21.955  0.00  0.00    +0.000 NA
ATOM     23  N   UNL     1      -0.352  11.187  20.877  0.00  0.00    +0.000 N 
BRANCH  23  24
ATOM     24  C   UNL     1      -0.508  11.904  19.618  0.00  0.00    +0.000 C 
BRANCH  24  25
ATOM     25  C   UNL     1      -1.690  11.427  18.833  0.00  0.00    +0.000 A 
ATOM     26  C   UNL     1      -3.003  11.848  18.927  0.00  0.00    +0.000 A 
ATOM     27  C   UNL     1      -3.852  11.120  18.056  0.00  0.00    +0.000 A 
ATOM     28 BR   UNL     1      -5.705  11.453  17.955  0.00  0.00    +0.000 Br
ATOM     29  C   UNL     1      -3.189  10.171  17.321  0.00  0.00    +0.000 A 
ATOM     30  S   UNL     1      -1.522  10.147  17.698  0.00  0.00    +0.000 S 
ENDBRANCH  24  25
ENDBRANCH  23  24
ENDBRANCH   3  19
TORSDOF 6
ENDMDL
MODEL 7
REMARK VINA RESULT:      -8.0      3.382      8.648
REMARK  Name = 
REMARK  6 active torsions:
REMARK  status: ('A' for Active; 'I' for Inactive)
REMARK    1  A    between atoms: C_2  and  C_16
REMARK    2  A    between atoms: N_3  and  C_4
REMARK    3  A    between atoms: N_8  and  C_9
REMARK    4  A    between atoms: C_9  and  C_10
REMARK    5  A    between atoms: C_20  and  S_21
REMARK    6  A    between atoms: S_21  and  N_24
REMARK                            x       y       z     vdW  Elec       q    Type
REMARK                         _______ _______ _______ _____ _____    ______ ____
ROOT
ATOM      1  O   UNL     1       2.250   5.618  17.570  0.00  0.00    +0.000 OA
ATOM      2  C   UNL     1       2.829   6.600  18.014  0.00  0.00    +0.000 C 
ATOM      3  N   UNL     1       4.224   6.838  17.740  0.00  0.00    +0.000 N 
ATOM      4  H   UNL     1       4.700   7.596  18.218  0.00  0.00    +0.000 HD
ENDROOT
BRANCH   2   5
ATOM      5  C   UNL     1       2.145   7.526  18.945  0.00  0.00    +0.000 A 
ATOM      6  C   UNL     1       1.888   7.051  20.241  0.00  0.00    +0.000 A 
ATOM      7  C   UNL     1       1.278   7.874  21.184  0.00  0.00    +0.000 A 
ATOM      8  C   UNL     1       0.940   9.182  20.845  0.00  0.00    +0.000 A 
ATOM      9  C   UNL     1       1.177   9.658  19.549  0.00  0.00    +0.000 A 
ATOM     10  C   UNL     1       1.773   8.828  18.586  0.00  0.00    +0.000 A 
BRANCH   9  11
ATOM     11  S   UNL     1       0.957  11.403  19.198  0.00  0.00    +0.000 S 
ATOM     12  O   UNL     1       0.789  12.040  20.486  0.00  0.00    +0.000 OA
ATOM     13  O   UNL     1       2.052  11.773  18.320  0.00  0.00    +0.000 OA
BRANCH  11  14
ATOM     14  N   UNL     1      -0.466  11.553  18.334  0.00  0.00    +0.000 NA
ATOM     15  C   UNL     1      -1.448  12.606  18.617  0.00  0.00    +0.000 C 
ATOM     16  C   UNL     1      -2.693  11.832  19.007  0.00  0.00    +0.000 C 
ATOM     17  C   UNL     1      -2.641  10.585  18.139  0.00  0.00    +0.000 C 
ATOM     18  C   UNL     1      -1.165  10.372  17.806  0.00  0.00    +0.000 C 
ENDBRANCH  11  14
ENDBRANCH   9  11
ENDBRANCH   2   5
BRANCH   3  19
ATOM     19  C   UNL     1       4.975   6.018  16.901  0.00  0.00    +0.000 A 
ATOM     20  C   UNL     1       5.099   6.096  15.529  0.00  0.00    +0.000 A 
ATOM     21  C   UNL     1       5.944   5.034  15.165  0.00  0.00    +0.000 A 
ATOM     22  N   UNL     1       6.356   4.333  16.219  0.00  0.00    +0.000 NA
ATOM     23  N   UNL     1       5.757   4.938  17.272  0.00  0.00    +0.000 N 
BRANCH  23  24
ATOM     24  C   UNL     1       5.804   4.271  18.567  0.00  0.00    +0.000 C 
BRANCH  24  25
ATOM     25  C   UNL     1       4.515   3.589  18.904  0.00  0.00    +0.000 A 
ATOM     26  C   UNL     1       3.762   3.710  20.057  0.00  0.00    +0.000 A 
ATOM     27  C   UNL     1       2.627   2.860  20.034  0.00  0.00    +0.000 A 
ATOM     28 BR   UNL     1       1.403   2.786  21.467  0.00  0.00    +0.000 Br
ATOM     29  C   UNL     1       2.530   2.116  18.886  0.00  0.00    +0.000 A 
ATOM     30  S   UNL     1       3.833   2.435  17.827  0.00  0.00    +0.000 S 
ENDBRANCH  24  25
ENDBRANCH  23  24
ENDBRANCH   3  19
TORSDOF 6
ENDMDL
MODEL 8
REMARK VINA RESULT:      -8.0      2.167      2.559
REMARK  Name = 
REMARK  6 active torsions:
REMARK  status: ('A' for Active; 'I' for Inactive)
REMARK    1  A    between atoms: C_2  and  C_16
REMARK    2  A    between atoms: N_3  and  C_4
REMARK    3  A    between atoms: N_8  and  C_9
REMARK    4  A    between atoms: C_9  and  C_10
REMARK    5  A    between atoms: C_20  and  S_21
REMARK    6  A    between atoms: S_21  and  N_24
REMARK                            x       y       z     vdW  Elec       q    Type
REMARK                         _______ _______ _______ _____ _____    ______ ____
ROOT
ATOM      1  O   UNL     1       1.712   8.685  17.528  0.00  0.00    +0.000 OA
ATOM      2  C   UNL     1       1.777   8.519  18.739  0.00  0.00    +0.000 C 
ATOM      3  N   UNL     1       1.507   9.593  19.660  0.00  0.00    +0.000 N 
ATOM      4  H   UNL     1       1.684   9.454  20.650  0.00  0.00    +0.000 HD
ENDROOT
BRANCH   2   5
ATOM      5  C   UNL     1       2.246   7.233  19.303  0.00  0.00    +0.000 A 
ATOM      6  C   UNL     1       1.361   6.549  20.151  0.00  0.00    +0.000 A 
ATOM      7  C   UNL     1       1.717   5.318  20.694  0.00  0.00    +0.000 A 
ATOM      8  C   UNL     1       2.950   4.753  20.377  0.00  0.00    +0.000 A 
ATOM      9  C   UNL     1       3.846   5.437  19.546  0.00  0.00    +0.000 A 
ATOM     10  C   UNL     1       3.503   6.689  19.011  0.00  0.00    +0.000 A 
BRANCH   9  11
ATOM     11  S   UNL     1       5.319   4.598  18.960  0.00  0.00    +0.000 S 
ATOM     12  O   UNL     1       6.422   5.205  19.675  0.00  0.00    +0.000 OA
ATOM     13  O   UNL     1       5.043   3.178  19.082  0.00  0.00    +0.000 OA
BRANCH  11  14
ATOM     14  N   UNL     1       5.472   4.954  17.334  0.00  0.00    +0.000 NA
ATOM     15  C   UNL     1       4.912   4.091  16.287  0.00  0.00    +0.000 C 
ATOM     16  C   UNL     1       6.132   3.660  15.496  0.00  0.00    +0.000 C 
ATOM     17  C   UNL     1       7.053   4.869  15.546  0.00  0.00    +0.000 C 
ATOM     18  C   UNL     1       6.666   5.633  16.812  0.00  0.00    +0.000 C 
ENDBRANCH  11  14
ENDBRANCH   9  11
ENDBRANCH   2   5
BRANCH   3  19
ATOM     19  C   UNL     1       1.086  10.854  19.242  0.00  0.00    +0.000 A 
ATOM     20  C   UNL     1       1.853  11.987  19.063  0.00  0.00    +0.000 A 
ATOM     21  C   UNL     1       0.955  12.990  18.659  0.00  0.00    +0.000 A 
ATOM     22  N   UNL     1      -0.294  12.540  18.561  0.00  0.00    +0.000 NA
ATOM     23  N   UNL     1      -0.205  11.239  18.923  0.00  0.00    +0.000 N 
BRANCH  23  24
ATOM     24  C   UNL     1      -1.441  10.503  19.158  0.00  0.00    +0.000 C 
BRANCH  24  25
ATOM     25  C   UNL     1      -2.371  10.563  17.986  0.00  0.00    +0.000 A 
ATOM     26  C   UNL     1      -2.166  10.077  16.709  0.00  0.00    +0.000 A 
ATOM     27  C   UNL     1      -3.258  10.372  15.853  0.00  0.00    +0.000 A 
ATOM     28 BR   UNL     1      -3.279   9.850  14.042  0.00  0.00    +0.000 Br
ATOM     29  C   UNL     1      -4.264  11.065  16.477  0.00  0.00    +0.000 A 
ATOM     30  S   UNL     1      -3.879  11.378  18.113  0.00  0.00    +0.000 S 
ENDBRANCH  24  25
ENDBRANCH  23  24
ENDBRANCH   3  19
TORSDOF 6
ENDMDL
MODEL 9
REMARK VINA RESULT:      -7.9      1.494      1.795
REMARK  Name = 
REMARK  6 active torsions:
REMARK  status: ('A' for Active; 'I' for Inactive)
REMARK    1  A    between atoms: C_2  and  C_16
REMARK    2  A    between atoms: N_3  and  C_4
REMARK    3  A    between atoms: N_8  and  C_9
REMARK    4  A    between atoms: C_9  and  C_10
REMARK    5  A    between atoms: C_20  and  S_21
REMARK    6  A    between atoms: S_21  and  N_24
REMARK                            x       y       z     vdW  Elec       q    Type
REMARK                         _______ _______ _______ _____ _____    ______ ____
ROOT
ATOM      1  O   UNL     1       2.248   8.899  17.339  0.00  0.00    +0.000 OA
ATOM      2  C   UNL     1       1.945   8.581  18.481  0.00  0.00    +0.000 C 
ATOM      3  N   UNL     1       1.316   9.515  19.381  0.00  0.00    +0.000 N 
ATOM      4  H   UNL     1       1.186   9.255  20.353  0.00  0.00    +0.000 HD
ENDROOT
BRANCH   2   5
ATOM      5  C   UNL     1       2.316   7.253  19.020  0.00  0.00    +0.000 A 
ATOM      6  C   UNL     1       1.725   6.871  20.235  0.00  0.00    +0.000 A 
ATOM      7  C   UNL     1       1.999   5.624  20.789  0.00  0.00    +0.000 A 
ATOM      8  C   UNL     1       2.848   4.743  20.124  0.00  0.00    +0.000 A 
ATOM      9  C   UNL     1       3.455   5.122  18.921  0.00  0.00    +0.000 A 
ATOM     10  C   UNL     1       3.201   6.387  18.366  0.00  0.00    +0.000 A 
BRANCH   9  11
ATOM     11  S   UNL     1       4.351   3.900  17.962  0.00  0.00    +0.000 S 
ATOM     12  O   UNL     1       4.325   2.689  18.755  0.00  0.00    +0.000 OA
ATOM     13  O   UNL     1       3.769   3.932  16.633  0.00  0.00    +0.000 OA
BRANCH  11  14
ATOM     14  N   UNL     1       5.931   4.431  17.844  0.00  0.00    +0.000 NA
ATOM     15  C   UNL     1       6.547   5.292  18.860  0.00  0.00    +0.000 C 
ATOM     16  C   UNL     1       6.901   6.550  18.088  0.00  0.00    +0.000 C 
ATOM     17  C   UNL     1       7.277   6.042  16.705  0.00  0.00    +0.000 C 
ATOM     18  C   UNL     1       6.545   4.712  16.538  0.00  0.00    +0.000 C 
ENDBRANCH  11  14
ENDBRANCH   9  11
ENDBRANCH   2   5
BRANCH   3  19
ATOM     19  C   UNL     1       0.947  10.801  18.991  0.00  0.00    +0.000 A 
ATOM     20  C   UNL     1       1.770  11.880  18.747  0.00  0.00    +0.000 A 
ATOM     21  C   UNL     1       0.912  12.941  18.410  0.00  0.00    +0.000 A 
ATOM     22  N   UNL     1      -0.369  12.575  18.413  0.00  0.00    +0.000 NA
ATOM     23  N   UNL     1      -0.337  11.270  18.773  0.00  0.00    +0.000 N 
BRANCH  23  24
ATOM     24  C   UNL     1      -1.596  10.617  19.108  0.00  0.00    +0.000 C 
BRANCH  24  25
ATOM     25  C   UNL     1      -2.686  10.950  18.137  0.00  0.00    +0.000 A 
ATOM     26  C   UNL     1      -3.830  11.693  18.361  0.00  0.00    +0.000 A 
ATOM     27  C   UNL     1      -4.656  11.745  17.210  0.00  0.00    +0.000 A 
ATOM     28 BR   UNL     1      -6.296  12.676  17.196  0.00  0.00    +0.000 Br
ATOM     29  C   UNL     1      -4.142  11.055  16.142  0.00  0.00    +0.000 A 
ATOM     30  S   UNL     1      -2.649  10.322  16.538  0.00  0.00    +0.000 S 
ENDBRANCH  24  25
ENDBRANCH  23  24
ENDBRANCH   3  19
TORSDOF 6
ENDMDL
