MODEL 1
REMARK VINA RESULT:      -8.8      0.000      0.000
REMARK  Name = 
REMARK  5 active torsions:
REMARK  status: ('A' for Active; 'I' for Inactive)
REMARK    1  A    between atoms: C_2  and  C_4
REMARK    2  A    between atoms: C_7  and  C_8
REMARK    3  A    between atoms: C_8  and  N_9
REMARK    4  A    between atoms: C_16  and  C_17
REMARK    5  A    between atoms: C_20  and  C_21
REMARK                            x       y       z     vdW  Elec       q    Type
REMARK                         _______ _______ _______ _____ _____    ______ ____
ROOT
ATOM      1  N   UNL     1       2.301   6.101  19.189  0.00  0.00    +0.000 NA
ATOM      2  C   UNL     1       3.110   4.989  19.700  0.00  0.00    +0.000 C 
ATOM      3  C   UNL     1       4.617   5.232  19.682  0.00  0.00    +0.000 C 
ATOM      4  C   UNL     1       5.150   5.661  18.324  0.00  0.00    +0.000 C 
ATOM      5  C   UNL     1       4.215   6.554  17.516  0.00  0.00    +0.000 C 
ATOM      6  C   UNL     1       2.710   6.364  17.795  0.00  0.00    +0.000 C 
ATOM      7  C   UNL     1       6.611   6.040  18.371  0.00  0.00    +0.000 C 
ATOM      8  C   UNL     1       6.212   4.796  17.615  0.00  0.00    +0.000 C 
ENDROOT
BRANCH   8   9
ATOM      9  C   UNL     1       6.512   4.842  16.118  0.00  0.00    +0.000 A 
ATOM     10  N   UNL     1       7.455   5.577  15.561  0.00  0.00    +0.000 NA
ATOM     11  N   UNL     1       7.458   5.271  14.218  0.00  0.00    +0.000 NA
ATOM     12  C   UNL     1       6.530   4.352  14.045  0.00  0.00    +0.000 A 
ATOM     13  O   UNL     1       5.872   4.043  15.208  0.00  0.00    +0.000 OA
BRANCH  12  14
ATOM     14  C   UNL     1       6.185   3.587  12.855  0.00  0.00    +0.000 A 
ATOM     15  C   UNL     1       7.178   2.853  12.187  0.00  0.00    +0.000 A 
ATOM     16  C   UNL     1       6.853   2.028  11.108  0.00  0.00    +0.000 A 
ATOM     17  C   UNL     1       5.531   1.934  10.679  0.00  0.00    +0.000 A 
ATOM     18  C   UNL     1       4.538   2.679  11.310  0.00  0.00    +0.000 A 
ATOM     19  C   UNL     1       4.864   3.506  12.388  0.00  0.00    +0.000 A 
ENDBRANCH  12  14
ENDBRANCH   8   9
BRANCH   1  20
ATOM     20  C   UNL     1       2.342   7.332  20.001  0.00  0.00    +0.000 C 
BRANCH  20  24
ATOM     21  C   UNL     1      -0.317  10.572  18.795  0.00  0.00    +0.000 A 
ATOM     22  C   UNL     1      -0.345  10.032  20.084  0.00  0.00    +0.000 A 
ATOM     23  C   UNL     1       0.539   9.017  20.454  0.00  0.00    +0.000 A 
ATOM     24  C   UNL     1       1.466   8.493  19.541  0.00  0.00    +0.000 A 
ATOM     25  C   UNL     1       1.560   9.105  18.278  0.00  0.00    +0.000 A 
ATOM     26  C   UNL     1       0.668  10.130  17.899  0.00  0.00    +0.000 A 
BRANCH  21  28
ATOM     27  N   UNL     1      -1.106  12.626  17.682  0.00  0.00    +0.000 N 
ATOM     28  C   UNL     1      -1.398  11.536  18.447  0.00  0.00    +0.000 C 
ATOM     29  O   UNL     1      -2.550  11.363  18.841  0.00  0.00    +0.000 OA
ATOM     30  H   UNL     1      -1.867  13.286  17.549  0.00  0.00    +0.000 HD
ATOM     31  H   UNL     1      -0.168  12.946  17.519  0.00  0.00    +0.000 HD
ENDBRANCH  21  28
ENDBRANCH  20  24
ENDBRANCH   1  20
TORSDOF 5
ENDMDL
MODEL 2
REMARK VINA RESULT:      -8.5      2.852      9.489
REMARK  Name = 
REMARK  5 active torsions:
REMARK  status: ('A' for Active; 'I' for Inactive)
REMARK    1  A    between atoms: C_2  and  C_4
REMARK    2  A    between atoms: C_7  and  C_8
REMARK    3  A    between atoms: C_8  and  N_9
REMARK    4  A    between atoms: C_16  and  C_17
REMARK    5  A    between atoms: C_20  and  C_21
REMARK                            x       y       z     vdW  Elec       q    Type
REMARK                         _______ _______ _______ _____ _____    ______ ____
ROOT
ATOM      1  N   UNL     1       1.877   4.027  19.882  0.00  0.00    +0.000 NA
ATOM      2  C   UNL     1       1.406   4.270  18.514  0.00  0.00    +0.000 C 
ATOM      3  C   UNL     1       2.220   5.294  17.728  0.00  0.00    +0.000 C 
ATOM      4  C   UNL     1       2.387   6.623  18.447  0.00  0.00    +0.000 C 
ATOM      5  C   UNL     1       2.527   6.525  19.962  0.00  0.00    +0.000 C 
ATOM      6  C   UNL     1       1.840   5.308  20.614  0.00  0.00    +0.000 C 
ATOM      7  C   UNL     1       3.320   7.561  17.719  0.00  0.00    +0.000 C 
ATOM      8  C   UNL     1       1.854   7.915  17.793  0.00  0.00    +0.000 C 
ENDROOT
BRANCH   8   9
ATOM      9  C   UNL     1       1.555   9.210  18.546  0.00  0.00    +0.000 A 
ATOM     10  N   UNL     1       1.937  10.411  18.161  0.00  0.00    +0.000 NA
ATOM     11  N   UNL     1       1.397  11.309  19.056  0.00  0.00    +0.000 NA
ATOM     12  C   UNL     1       0.702  10.597  19.920  0.00  0.00    +0.000 A 
ATOM     13  O   UNL     1       0.772   9.250  19.670  0.00  0.00    +0.000 OA
BRANCH  12  14
ATOM     14  C   UNL     1      -0.168  11.034  21.003  0.00  0.00    +0.000 A 
ATOM     15  C   UNL     1      -1.014  12.138  20.813  0.00  0.00    +0.000 A 
ATOM     16  C   UNL     1      -1.932  12.511  21.797  0.00  0.00    +0.000 A 
ATOM     17  C   UNL     1      -2.009  11.789  22.987  0.00  0.00    +0.000 A 
ATOM     18  C   UNL     1      -1.155  10.711  23.204  0.00  0.00    +0.000 A 
ATOM     19  C   UNL     1      -0.235  10.339  22.220  0.00  0.00    +0.000 A 
ENDBRANCH  12  14
ENDBRANCH   8   9
BRANCH   1  20
ATOM     20  C   UNL     1       3.203   3.389  19.984  0.00  0.00    +0.000 C 
BRANCH  20  24
ATOM     21  C   UNL     1       6.170   4.695  17.066  0.00  0.00    +0.000 A 
ATOM     22  C   UNL     1       6.203   5.121  18.396  0.00  0.00    +0.000 A 
ATOM     23  C   UNL     1       5.260   4.663  19.318  0.00  0.00    +0.000 A 
ATOM     24  C   UNL     1       4.240   3.780  18.935  0.00  0.00    +0.000 A 
ATOM     25  C   UNL     1       4.268   3.275  17.622  0.00  0.00    +0.000 A 
ATOM     26  C   UNL     1       5.219   3.737  16.687  0.00  0.00    +0.000 A 
BRANCH  21  28
ATOM     27  N   UNL     1       7.558   6.618  16.392  0.00  0.00    +0.000 N 
ATOM     28  C   UNL     1       7.117   5.357  16.124  0.00  0.00    +0.000 C 
ATOM     29  O   UNL     1       7.504   4.782  15.109  0.00  0.00    +0.000 OA
ATOM     30  H   UNL     1       8.136   7.044  15.673  0.00  0.00    +0.000 HD
ATOM     31  H   UNL     1       7.119   7.222  17.065  0.00  0.00    +0.000 HD
ENDBRANCH  21  28
ENDBRANCH  20  24
ENDBRANCH   1  20
TORSDOF 5
ENDMDL
MODEL 3
REMARK VINA RESULT:      -8.2      4.211      6.885
REMARK  Name = 
REMARK  5 active torsions:
REMARK  status: ('A' for Active; 'I' for Inactive)
REMARK    1  A    between atoms: C_2  and  C_4
REMARK    2  A    between atoms: C_7  and  C_8
REMARK    3  A    between atoms: C_8  and  N_9
REMARK    4  A    between atoms: C_16  and  C_17
REMARK    5  A    between atoms: C_20  and  C_21
REMARK                            x       y       z     vdW  Elec       q    Type
REMARK                         _______ _______ _______ _____ _____    ______ ____
ROOT
ATOM      1  N   UNL     1       0.442  11.067  21.807  0.00  0.00    +0.000 NA
ATOM      2  C   UNL     1       1.063  11.834  20.721  0.00  0.00    +0.000 C 
ATOM      3  C   UNL     1       0.703  11.362  19.315  0.00  0.00    +0.000 C 
ATOM      4  C   UNL     1       0.948   9.879  19.088  0.00  0.00    +0.000 C 
ATOM      5  C   UNL     1       0.676   8.987  20.295  0.00  0.00    +0.000 C 
ATOM      6  C   UNL     1       0.861   9.658  21.671  0.00  0.00    +0.000 C 
ATOM      7  C   UNL     1       0.443   9.408  17.745  0.00  0.00    +0.000 C 
ATOM      8  C   UNL     1       1.933   9.428  17.989  0.00  0.00    +0.000 C 
ENDROOT
BRANCH   8   9
ATOM      9  C   UNL     1       2.601   8.056  17.930  0.00  0.00    +0.000 A 
ATOM     10  N   UNL     1       3.892   7.853  17.753  0.00  0.00    +0.000 NA
ATOM     11  N   UNL     1       4.099   6.494  17.849  0.00  0.00    +0.000 NA
ATOM     12  C   UNL     1       2.923   5.957  18.100  0.00  0.00    +0.000 A 
ATOM     13  O   UNL     1       1.918   6.889  18.147  0.00  0.00    +0.000 OA
BRANCH  12  14
ATOM     14  C   UNL     1       2.574   4.578  18.412  0.00  0.00    +0.000 A 
ATOM     15  C   UNL     1       1.890   4.287  19.603  0.00  0.00    +0.000 A 
ATOM     16  C   UNL     1       1.452   2.988  19.876  0.00  0.00    +0.000 A 
ATOM     17  C   UNL     1       1.702   1.964  18.964  0.00  0.00    +0.000 A 
ATOM     18  C   UNL     1       2.408   2.231  17.794  0.00  0.00    +0.000 A 
ATOM     19  C   UNL     1       2.847   3.529  17.522  0.00  0.00    +0.000 A 
ENDBRANCH  12  14
ENDBRANCH   8   9
BRANCH   1  20
ATOM     20  C   UNL     1      -1.025  11.184  21.897  0.00  0.00    +0.000 C 
BRANCH  20  24
ATOM     21  C   UNL     1      -2.417  14.539  24.310  0.00  0.00    +0.000 A 
ATOM     22  C   UNL     1      -1.154  14.532  23.711  0.00  0.00    +0.000 A 
ATOM     23  C   UNL     1      -0.745  13.459  22.917  0.00  0.00    +0.000 A 
ATOM     24  C   UNL     1      -1.577  12.348  22.713  0.00  0.00    +0.000 A 
ATOM     25  C   UNL     1      -2.883  12.403  23.233  0.00  0.00    +0.000 A 
ATOM     26  C   UNL     1      -3.300  13.485  24.037  0.00  0.00    +0.000 A 
BRANCH  21  28
ATOM     27  N   UNL     1      -3.945  16.204  25.296  0.00  0.00    +0.000 N 
ATOM     28  C   UNL     1      -2.701  15.649  25.264  0.00  0.00    +0.000 C 
ATOM     29  O   UNL     1      -1.829  16.071  26.021  0.00  0.00    +0.000 OA
ATOM     30  H   UNL     1      -4.052  17.009  25.908  0.00  0.00    +0.000 HD
ATOM     31  H   UNL     1      -4.625  16.070  24.568  0.00  0.00    +0.000 HD
ENDBRANCH  21  28
ENDBRANCH  20  24
ENDBRANCH   1  20
TORSDOF 5
ENDMDL
MODEL 4
REMARK VINA RESULT:      -8.1      4.590      6.915
REMARK  Name = 
REMARK  5 active torsions:
REMARK  status: ('A' for Active; 'I' for Inactive)
REMARK    1  A    between atoms: C_2  and  C_4
REMARK    2  A    between atoms: C_7  and  C_8
REMARK    3  A    between atoms: C_8  and  N_9
REMARK    4  A    between atoms: C_16  and  C_17
REMARK    5  A    between atoms: C_20  and  C_21
REMARK                            x       y       z     vdW  Elec       q    Type
REMARK                         _______ _______ _______ _____ _____    ______ ____
ROOT
ATOM      1  N   UNL     1       0.516  11.243  21.767  0.00  0.00    +0.000 NA
ATOM      2  C   UNL     1       1.066  11.975  20.620  0.00  0.00    +0.000 C 
ATOM      3  C   UNL     1       0.645  11.435  19.255  0.00  0.00    +0.000 C 
ATOM      4  C   UNL     1       0.909   9.949  19.078  0.00  0.00    +0.000 C 
ATOM      5  C   UNL     1       0.717   9.105  20.334  0.00  0.00    +0.000 C 
ATOM      6  C   UNL     1       0.957   9.838  21.669  0.00  0.00    +0.000 C 
ATOM      7  C   UNL     1       0.347   9.412  17.783  0.00  0.00    +0.000 C 
ATOM      8  C   UNL     1       1.847   9.471  17.951  0.00  0.00    +0.000 C 
ENDROOT
BRANCH   8   9
ATOM      9  C   UNL     1       2.540   8.110  17.915  0.00  0.00    +0.000 A 
ATOM     10  N   UNL     1       3.811   7.918  17.624  0.00  0.00    +0.000 NA
ATOM     11  N   UNL     1       4.061   6.574  17.787  0.00  0.00    +0.000 NA
ATOM     12  C   UNL     1       2.928   6.033  18.188  0.00  0.00    +0.000 A 
ATOM     13  O   UNL     1       1.910   6.947  18.275  0.00  0.00    +0.000 OA
BRANCH  12  14
ATOM     14  C   UNL     1       2.646   4.672  18.623  0.00  0.00    +0.000 A 
ATOM     15  C   UNL     1       1.571   3.969  18.056  0.00  0.00    +0.000 A 
ATOM     16  C   UNL     1       1.344   2.629  18.379  0.00  0.00    +0.000 A 
ATOM     17  C   UNL     1       2.185   1.979  19.281  0.00  0.00    +0.000 A 
ATOM     18  C   UNL     1       3.236   2.672  19.876  0.00  0.00    +0.000 A 
ATOM     19  C   UNL     1       3.462   4.013  19.555  0.00  0.00    +0.000 A 
ENDBRANCH  12  14
ENDBRANCH   8   9
BRANCH   1  20
ATOM     20  C   UNL     1      -0.947  11.336  21.927  0.00  0.00    +0.000 C 
BRANCH  20  24
ATOM     21  C   UNL     1      -2.652  14.638  24.211  0.00  0.00    +0.000 A 
ATOM     22  C   UNL     1      -3.340  13.435  24.023  0.00  0.00    +0.000 A 
ATOM     23  C   UNL     1      -2.758  12.382  23.315  0.00  0.00    +0.000 A 
ATOM     24  C   UNL     1      -1.479  12.504  22.752  0.00  0.00    +0.000 A 
ATOM     25  C   UNL     1      -0.750  13.675  23.028  0.00  0.00    +0.000 A 
ATOM     26  C   UNL     1      -1.335  14.743  23.743  0.00  0.00    +0.000 A 
BRANCH  21  28
ATOM     27  N   UNL     1      -4.775  15.742  24.807  0.00  0.00    +0.000 N 
ATOM     28  C   UNL     1      -3.413  15.754  24.841  0.00  0.00    +0.000 C 
ATOM     29  O   UNL     1      -2.828  16.686  25.390  0.00  0.00    +0.000 OA
ATOM     30  H   UNL     1      -5.231  16.570  25.181  0.00  0.00    +0.000 HD
ATOM     31  H   UNL     1      -5.303  15.147  24.194  0.00  0.00    +0.000 HD
ENDBRANCH  21  28
ENDBRANCH  20  24
ENDBRANCH   1  20
TORSDOF 5
ENDMDL
MODEL 5
REMARK VINA RESULT:      -8.0      0.815      1.212
REMARK  Name = 
REMARK  5 active torsions:
REMARK  status: ('A' for Active; 'I' for Inactive)
REMARK    1  A    between atoms: C_2  and  C_4
REMARK    2  A    between atoms: C_7  and  C_8
REMARK    3  A    between atoms: C_8  and  N_9
REMARK    4  A    between atoms: C_16  and  C_17
REMARK    5  A    between atoms: C_20  and  C_21
REMARK                            x       y       z     vdW  Elec       q    Type
REMARK                         _______ _______ _______ _____ _____    ______ ____
ROOT
ATOM      1  N   UNL     1       2.615   5.765  19.500  0.00  0.00    +0.000 NA
ATOM      2  C   UNL     1       3.483   4.655  19.911  0.00  0.00    +0.000 C 
ATOM      3  C   UNL     1       4.979   4.926  19.772  0.00  0.00    +0.000 C 
ATOM      4  C   UNL     1       5.388   5.399  18.387  0.00  0.00    +0.000 C 
ATOM      5  C   UNL     1       4.374   6.296  17.685  0.00  0.00    +0.000 C 
ATOM      6  C   UNL     1       2.901   6.071  18.085  0.00  0.00    +0.000 C 
ATOM      7  C   UNL     1       6.841   5.804  18.320  0.00  0.00    +0.000 C 
ATOM      8  C   UNL     1       6.400   4.572  17.567  0.00  0.00    +0.000 C 
ENDROOT
BRANCH   8   9
ATOM      9  C   UNL     1       6.571   4.663  16.052  0.00  0.00    +0.000 A 
ATOM     10  N   UNL     1       7.468   5.410  15.439  0.00  0.00    +0.000 NA
ATOM     11  N   UNL     1       7.355   5.145  14.092  0.00  0.00    +0.000 NA
ATOM     12  C   UNL     1       6.408   4.237  13.971  0.00  0.00    +0.000 A 
ATOM     13  O   UNL     1       5.850   3.895  15.177  0.00  0.00    +0.000 OA
BRANCH  12  14
ATOM     14  C   UNL     1       5.957   3.509  12.794  0.00  0.00    +0.000 A 
ATOM     15  C   UNL     1       6.795   2.549  12.205  0.00  0.00    +0.000 A 
ATOM     16  C   UNL     1       6.346   1.765  11.140  0.00  0.00    +0.000 A 
ATOM     17  C   UNL     1       5.055   1.937  10.646  0.00  0.00    +0.000 A 
ATOM     18  C   UNL     1       4.222   2.907  11.197  0.00  0.00    +0.000 A 
ATOM     19  C   UNL     1       4.672   3.694  12.261  0.00  0.00    +0.000 A 
ENDBRANCH  12  14
ENDBRANCH   8   9
BRANCH   1  20
ATOM     20  C   UNL     1       2.706   6.974  20.339  0.00  0.00    +0.000 C 
BRANCH  20  24
ATOM     21  C   UNL     1      -0.093  10.216  19.511  0.00  0.00    +0.000 A 
ATOM     22  C   UNL     1       0.867   9.810  18.579  0.00  0.00    +0.000 A 
ATOM     23  C   UNL     1       1.730   8.749  18.857  0.00  0.00    +0.000 A 
ATOM     24  C   UNL     1       1.677   8.071  20.084  0.00  0.00    +0.000 A 
ATOM     25  C   UNL     1       0.646   8.414  20.978  0.00  0.00    +0.000 A 
ATOM     26  C   UNL     1      -0.228   9.487  20.702  0.00  0.00    +0.000 A 
BRANCH  21  28
ATOM     27  N   UNL     1      -2.082  11.651  19.757  0.00  0.00    +0.000 N 
ATOM     28  C   UNL     1      -0.859  11.453  19.191  0.00  0.00    +0.000 C 
ATOM     29  O   UNL     1      -0.404  12.297  18.421  0.00  0.00    +0.000 OA
ATOM     30  H   UNL     1      -2.588  12.472  19.436  0.00  0.00    +0.000 HD
ATOM     31  H   UNL     1      -2.605  10.918  20.205  0.00  0.00    +0.000 HD
ENDBRANCH  21  28
ENDBRANCH  20  24
ENDBRANCH   1  20
TORSDOF 5
ENDMDL
MODEL 6
REMARK VINA RESULT:      -8.0      2.486      9.623
REMARK  Name = 
REMARK  5 active torsions:
REMARK  status: ('A' for Active; 'I' for Inactive)
REMARK    1  A    between atoms: C_2  and  C_4
REMARK    2  A    between atoms: C_7  and  C_8
REMARK    3  A    between atoms: C_8  and  N_9
REMARK    4  A    between atoms: C_16  and  C_17
REMARK    5  A    between atoms: C_20  and  C_21
REMARK                            x       y       z     vdW  Elec       q    Type
REMARK                         _______ _______ _______ _____ _____    ______ ____
ROOT
ATOM      1  N   UNL     1       2.233   4.084  19.921  0.00  0.00    +0.000 NA
ATOM      2  C   UNL     1       1.538   4.285  18.645  0.00  0.00    +0.000 C 
ATOM      3  C   UNL     1       2.182   5.313  17.719  0.00  0.00    +0.000 C 
ATOM      4  C   UNL     1       2.425   6.661  18.378  0.00  0.00    +0.000 C 
ATOM      5  C   UNL     1       2.814   6.599  19.851  0.00  0.00    +0.000 C 
ATOM      6  C   UNL     1       2.278   5.379  20.628  0.00  0.00    +0.000 C 
ATOM      7  C   UNL     1       3.198   7.608  17.491  0.00  0.00    +0.000 C 
ATOM      8  C   UNL     1       1.754   7.924  17.799  0.00  0.00    +0.000 C 
ENDROOT
BRANCH   8   9
ATOM      9  C   UNL     1       1.544   9.226  18.569  0.00  0.00    +0.000 A 
ATOM     10  N   UNL     1       1.940  10.416  18.161  0.00  0.00    +0.000 NA
ATOM     11  N   UNL     1       1.486  11.328  19.088  0.00  0.00    +0.000 NA
ATOM     12  C   UNL     1       0.822  10.638  19.993  0.00  0.00    +0.000 A 
ATOM     13  O   UNL     1       0.832   9.290  19.738  0.00  0.00    +0.000 OA
BRANCH  12  14
ATOM     14  C   UNL     1       0.034  11.100  21.126  0.00  0.00    +0.000 A 
ATOM     15  C   UNL     1      -0.419  12.429  21.163  0.00  0.00    +0.000 A 
ATOM     16  C   UNL     1      -1.263  12.868  22.186  0.00  0.00    +0.000 A 
ATOM     17  C   UNL     1      -1.658  11.984  23.189  0.00  0.00    +0.000 A 
ATOM     18  C   UNL     1      -1.192  10.672  23.184  0.00  0.00    +0.000 A 
ATOM     19  C   UNL     1      -0.346  10.234  22.162  0.00  0.00    +0.000 A 
ENDBRANCH  12  14
ENDBRANCH   8   9
BRANCH   1  20
ATOM     20  C   UNL     1       3.577   3.484  19.815  0.00  0.00    +0.000 C 
BRANCH  20  24
ATOM     21  C   UNL     1       5.966   4.434  16.292  0.00  0.00    +0.000 A 
ATOM     22  C   UNL     1       4.873   3.565  16.232  0.00  0.00    +0.000 A 
ATOM     23  C   UNL     1       4.105   3.302  17.368  0.00  0.00    +0.000 A 
ATOM     24  C   UNL     1       4.417   3.883  18.606  0.00  0.00    +0.000 A 
ATOM     25  C   UNL     1       5.454   4.834  18.641  0.00  0.00    +0.000 A 
ATOM     26  C   UNL     1       6.234   5.101  17.496  0.00  0.00    +0.000 A 
BRANCH  21  28
ATOM     27  N   UNL     1       6.560   3.714  14.010  0.00  0.00    +0.000 N 
ATOM     28  C   UNL     1       6.816   4.529  15.071  0.00  0.00    +0.000 C 
ATOM     29  O   UNL     1       7.746   5.331  15.009  0.00  0.00    +0.000 OA
ATOM     30  H   UNL     1       7.224   3.770  13.242  0.00  0.00    +0.000 HD
ATOM     31  H   UNL     1       5.977   2.898  14.073  0.00  0.00    +0.000 HD
ENDBRANCH  21  28
ENDBRANCH  20  24
ENDBRANCH   1  20
TORSDOF 5
ENDMDL
MODEL 7
REMARK VINA RESULT:      -7.9      2.040     10.186
REMARK  Name = 
REMARK  5 active torsions:
REMARK  status: ('A' for Active; 'I' for Inactive)
REMARK    1  A    between atoms: C_2  and  C_4
REMARK    2  A    between atoms: C_7  and  C_8
REMARK    3  A    between atoms: C_8  and  N_9
REMARK    4  A    between atoms: C_16  and  C_17
REMARK    5  A    between atoms: C_20  and  C_21
REMARK                            x       y       z     vdW  Elec       q    Type
REMARK                         _______ _______ _______ _____ _____    ______ ____
ROOT
ATOM      1  N   UNL     1       2.402   5.397  19.502  0.00  0.00    +0.000 NA
ATOM      2  C   UNL     1       1.911   5.644  18.141  0.00  0.00    +0.000 C 
ATOM      3  C   UNL     1       2.295   7.002  17.558  0.00  0.00    +0.000 C 
ATOM      4  C   UNL     1       1.923   8.176  18.448  0.00  0.00    +0.000 C 
ATOM      5  C   UNL     1       2.048   7.916  19.946  0.00  0.00    +0.000 C 
ATOM      6  C   UNL     1       1.859   6.449  20.383  0.00  0.00    +0.000 C 
ATOM      7  C   UNL     1       2.447   9.490  17.921  0.00  0.00    +0.000 C 
ATOM      8  C   UNL     1       0.956   9.256  17.921  0.00  0.00    +0.000 C 
ENDROOT
BRANCH   8   9
ATOM      9  C   UNL     1       0.165  10.220  18.802  0.00  0.00    +0.000 A 
ATOM     10  N   UNL     1       0.686  10.981  19.743  0.00  0.00    +0.000 NA
ATOM     11  N   UNL     1      -0.336  11.759  20.240  0.00  0.00    +0.000 NA
ATOM     12  C   UNL     1      -1.414  11.436  19.555  0.00  0.00    +0.000 A 
ATOM     13  O   UNL     1      -1.176  10.449  18.634  0.00  0.00    +0.000 OA
BRANCH  12  14
ATOM     14  C   UNL     1      -2.745  12.026  19.577  0.00  0.00    +0.000 A 
ATOM     15  C   UNL     1      -3.686  11.657  18.602  0.00  0.00    +0.000 A 
ATOM     16  C   UNL     1      -5.000  12.127  18.662  0.00  0.00    +0.000 A 
ATOM     17  C   UNL     1      -5.386  12.979  19.695  0.00  0.00    +0.000 A 
ATOM     18  C   UNL     1      -4.457  13.380  20.652  0.00  0.00    +0.000 A 
ATOM     19  C   UNL     1      -3.143  12.912  20.590  0.00  0.00    +0.000 A 
ENDBRANCH  12  14
ENDBRANCH   8   9
BRANCH   1  20
ATOM     20  C   UNL     1       3.868   5.294  19.630  0.00  0.00    +0.000 C 
BRANCH  20  24
ATOM     21  C   UNL     1       6.104   4.646  15.942  0.00  0.00    +0.000 A 
ATOM     22  C   UNL     1       6.293   5.783  16.732  0.00  0.00    +0.000 A 
ATOM     23  C   UNL     1       5.587   5.951  17.925  0.00  0.00    +0.000 A 
ATOM     24  C   UNL     1       4.653   4.998  18.357  0.00  0.00    +0.000 A 
ATOM     25  C   UNL     1       4.539   3.809  17.613  0.00  0.00    +0.000 A 
ATOM     26  C   UNL     1       5.249   3.636  16.406  0.00  0.00    +0.000 A 
BRANCH  21  28
ATOM     27  N   UNL     1       7.794   5.507  14.367  0.00  0.00    +0.000 N 
ATOM     28  C   UNL     1       6.781   4.630  14.615  0.00  0.00    +0.000 C 
ATOM     29  O   UNL     1       6.438   3.837  13.740  0.00  0.00    +0.000 OA
ATOM     30  H   UNL     1       8.158   5.502  13.418  0.00  0.00    +0.000 HD
ATOM     31  H   UNL     1       7.971   6.316  14.937  0.00  0.00    +0.000 HD
ENDBRANCH  21  28
ENDBRANCH  20  24
ENDBRANCH   1  20
TORSDOF 5
ENDMDL
MODEL 8
REMARK VINA RESULT:      -7.9      0.603      1.391
REMARK  Name = 
REMARK  5 active torsions:
REMARK  status: ('A' for Active; 'I' for Inactive)
REMARK    1  A    between atoms: C_2  and  C_4
REMARK    2  A    between atoms: C_7  and  C_8
REMARK    3  A    between atoms: C_8  and  N_9
REMARK    4  A    between atoms: C_16  and  C_17
REMARK    5  A    between atoms: C_20  and  C_21
REMARK                            x       y       z     vdW  Elec       q    Type
REMARK                         _______ _______ _______ _____ _____    ______ ____
ROOT
ATOM      1  N   UNL     1       2.416   6.353  19.170  0.00  0.00    +0.000 NA
ATOM      2  C   UNL     1       3.206   5.235  19.700  0.00  0.00    +0.000 C 
ATOM      3  C   UNL     1       4.718   5.416  19.603  0.00  0.00    +0.000 C 
ATOM      4  C   UNL     1       5.204   5.758  18.204  0.00  0.00    +0.000 C 
ATOM      5  C   UNL     1       4.267   6.649  17.394  0.00  0.00    +0.000 C 
ATOM      6  C   UNL     1       2.771   6.533  17.749  0.00  0.00    +0.000 C 
ATOM      7  C   UNL     1       6.679   6.081  18.167  0.00  0.00    +0.000 C 
ATOM      8  C   UNL     1       6.199   4.818  17.492  0.00  0.00    +0.000 C 
ENDROOT
BRANCH   8   9
ATOM      9  C   UNL     1       6.431   4.782  15.983  0.00  0.00    +0.000 A 
ATOM     10  N   UNL     1       7.407   5.407  15.355  0.00  0.00    +0.000 NA
ATOM     11  N   UNL     1       7.321   5.052  14.027  0.00  0.00    +0.000 NA
ATOM     12  C   UNL     1       6.308   4.215  13.933  0.00  0.00    +0.000 A 
ATOM     13  O   UNL     1       5.681   4.009  15.135  0.00  0.00    +0.000 OA
BRANCH  12  14
ATOM     14  C   UNL     1       5.841   3.438  12.792  0.00  0.00    +0.000 A 
ATOM     15  C   UNL     1       4.559   3.671  12.270  0.00  0.00    +0.000 A 
ATOM     16  C   UNL     1       4.128   3.015  11.115  0.00  0.00    +0.000 A 
ATOM     17  C   UNL     1       4.973   2.112  10.472  0.00  0.00    +0.000 A 
ATOM     18  C   UNL     1       6.236   1.846  10.996  0.00  0.00    +0.000 A 
ATOM     19  C   UNL     1       6.665   2.500  12.153  0.00  0.00    +0.000 A 
ENDBRANCH  12  14
ENDBRANCH   8   9
BRANCH   1  20
ATOM     20  C   UNL     1       2.542   7.618  19.918  0.00  0.00    +0.000 C 
BRANCH  20  24
ATOM     21  C   UNL     1      -0.679  10.531  19.516  0.00  0.00    +0.000 A 
ATOM     22  C   UNL     1       0.143  10.184  18.441  0.00  0.00    +0.000 A 
ATOM     23  C   UNL     1       1.147   9.225  18.588  0.00  0.00    +0.000 A 
ATOM     24  C   UNL     1       1.376   8.597  19.821  0.00  0.00    +0.000 A 
ATOM     25  C   UNL     1       0.484   8.873  20.873  0.00  0.00    +0.000 A 
ATOM     26  C   UNL     1      -0.532   9.843  20.729  0.00  0.00    +0.000 A 
BRANCH  21  28
ATOM     27  N   UNL     1      -1.330  12.884  19.861  0.00  0.00    +0.000 N 
ATOM     28  C   UNL     1      -1.614  11.673  19.306  0.00  0.00    +0.000 C 
ATOM     29  O   UNL     1      -2.638  11.537  18.639  0.00  0.00    +0.000 OA
ATOM     30  H   UNL     1      -2.045  13.598  19.750  0.00  0.00    +0.000 HD
ATOM     31  H   UNL     1      -0.648  13.008  20.588  0.00  0.00    +0.000 HD
ENDBRANCH  21  28
ENDBRANCH  20  24
ENDBRANCH   1  20
TORSDOF 5
ENDMDL
MODEL 9
REMARK VINA RESULT:      -7.8      4.242      7.577
REMARK  Name = 
REMARK  5 active torsions:
REMARK  status: ('A' for Active; 'I' for Inactive)
REMARK    1  A    between atoms: C_2  and  C_4
REMARK    2  A    between atoms: C_7  and  C_8
REMARK    3  A    between atoms: C_8  and  N_9
REMARK    4  A    between atoms: C_16  and  C_17
REMARK    5  A    between atoms: C_20  and  C_21
REMARK                            x       y       z     vdW  Elec       q    Type
REMARK                         _______ _______ _______ _____ _____    ______ ____
ROOT
ATOM      1  N   UNL     1      -0.995  12.805  21.292  0.00  0.00    +0.000 NA
ATOM      2  C   UNL     1       0.149  13.166  20.446  0.00  0.00    +0.000 C 
ATOM      3  C   UNL     1       0.243  12.395  19.132  0.00  0.00    +0.000 C 
ATOM      4  C   UNL     1       0.200  10.886  19.305  0.00  0.00    +0.000 C 
ATOM      5  C   UNL     1      -0.705  10.389  20.427  0.00  0.00    +0.000 C 
ATOM      6  C   UNL     1      -0.898  11.366  21.605  0.00  0.00    +0.000 C 
ATOM      7  C   UNL     1       0.141  10.154  17.985  0.00  0.00    +0.000 C 
ATOM      8  C   UNL     1       1.390  10.030  18.824  0.00  0.00    +0.000 C 
ENDROOT
BRANCH   8   9
ATOM      9  C   UNL     1       1.690   8.611  19.303  0.00  0.00    +0.000 A 
ATOM     10  N   UNL     1       1.568   8.194  20.548  0.00  0.00    +0.000 NA
ATOM     11  N   UNL     1       1.846   6.845  20.547  0.00  0.00    +0.000 NA
ATOM     12  C   UNL     1       2.101   6.520  19.296  0.00  0.00    +0.000 A 
ATOM     13  O   UNL     1       2.038   7.597  18.450  0.00  0.00    +0.000 OA
BRANCH  12  14
ATOM     14  C   UNL     1       2.337   5.213  18.701  0.00  0.00    +0.000 A 
ATOM     15  C   UNL     1       3.292   5.075  17.681  0.00  0.00    +0.000 A 
ATOM     16  C   UNL     1       3.612   3.816  17.167  0.00  0.00    +0.000 A 
ATOM     17  C   UNL     1       2.973   2.680  17.662  0.00  0.00    +0.000 A 
ATOM     18  C   UNL     1       2.000   2.803  18.651  0.00  0.00    +0.000 A 
ATOM     19  C   UNL     1       1.679   4.063  19.163  0.00  0.00    +0.000 A 
ENDBRANCH  12  14
ENDBRANCH   8   9
BRANCH   1  20
ATOM     20  C   UNL     1      -2.317  13.145  20.734  0.00  0.00    +0.000 C 
BRANCH  20  24
ATOM     21  C   UNL     1      -5.866  12.795  23.246  0.00  0.00    +0.000 A 
ATOM     22  C   UNL     1      -5.902  12.532  21.873  0.00  0.00    +0.000 A 
ATOM     23  C   UNL     1      -4.745  12.621  21.098  0.00  0.00    +0.000 A 
ATOM     24  C   UNL     1      -3.518  12.996  21.664  0.00  0.00    +0.000 A 
ATOM     25  C   UNL     1      -3.463  13.160  23.060  0.00  0.00    +0.000 A 
ATOM     26  C   UNL     1      -4.631  13.073  23.848  0.00  0.00    +0.000 A 
BRANCH  21  28
ATOM     27  N   UNL     1      -7.557  13.963  24.608  0.00  0.00    +0.000 N 
ATOM     28  C   UNL     1      -7.175  12.828  23.957  0.00  0.00    +0.000 C 
ATOM     29  O   UNL     1      -7.915  11.846  23.967  0.00  0.00    +0.000 OA
ATOM     30  H   UNL     1      -8.420  13.896  25.140  0.00  0.00    +0.000 HD
ATOM     31  H   UNL     1      -6.921  14.708  24.830  0.00  0.00    +0.000 HD
ENDBRANCH  21  28
ENDBRANCH  20  24
ENDBRANCH   1  20
TORSDOF 5
ENDMDL
