MODEL 1
REMARK VINA RESULT:      -8.8      0.000      0.000
REMARK  Name = 
REMARK  7 active torsions:
REMARK  status: ('A' for Active; 'I' for Inactive)
REMARK    1  A    between atoms: C_1  and  C_2
REMARK    2  A    between atoms: C_7  and  C_8
REMARK    3  A    between atoms: C_8  and  C_9
REMARK    4  A    between atoms: C_8  and  N_10
REMARK    5  A    between atoms: C_11  and  C_13
REMARK    6  A    between atoms: C_16  and  C_17
REMARK    7  A    between atoms: C_20  and  C_21
REMARK                            x       y       z     vdW  Elec       q    Type
REMARK                         _______ _______ _______ _____ _____    ______ ____
ROOT
ATOM      1  C   UNL     1       6.930   6.001  17.812  0.00  0.00    +0.000 A 
ATOM      2  C   UNL     1       7.854   6.015  18.865  0.00  0.00    +0.000 A 
ATOM      3  C   UNL     1       8.525   7.199  19.209  0.00  0.00    +0.000 A 
ATOM      4  C   UNL     1       8.287   8.398  18.519  0.00  0.00    +0.000 A 
ATOM      5  C   UNL     1       7.401   8.366  17.434  0.00  0.00    +0.000 A 
ATOM      6  C   UNL     1       6.730   7.184  17.087  0.00  0.00    +0.000 A 
ENDROOT
BRANCH   4   7
ATOM      7  C   UNL     1       8.917   9.635  18.973  0.00  0.00    +0.000 A 
ATOM      8  N   UNL     1       9.126  10.083  20.194  0.00  0.00    +0.000 NA
ATOM      9  N   UNL     1       9.695  11.336  20.061  0.00  0.00    +0.000 NA
ATOM     10  C   UNL     1       9.802  11.565  18.768  0.00  0.00    +0.000 A 
ATOM     11  O   UNL     1       9.327  10.523  18.011  0.00  0.00    +0.000 OA
BRANCH  10  12
ATOM     12  C   UNL     1      10.347  12.717  18.055  0.00  0.00    +0.000 A 
ATOM     13  C   UNL     1       9.711  13.966  18.144  0.00  0.00    +0.000 A 
ATOM     14  C   UNL     1      10.244  15.089  17.502  0.00  0.00    +0.000 A 
ATOM     15  C   UNL     1      11.418  14.978  16.759  0.00  0.00    +0.000 A 
ATOM     16  C   UNL     1      12.051  13.743  16.646  0.00  0.00    +0.000 A 
ATOM     17  C   UNL     1      11.518  12.620  17.285  0.00  0.00    +0.000 A 
ENDBRANCH  10  12
ENDBRANCH   4   7
BRANCH   1  19
ATOM     18  N   UNL     1       4.912   4.641  18.183  0.00  0.00    +0.000 N 
ATOM     19  C   UNL     1       6.082   4.807  17.474  0.00  0.00    +0.000 C 
ATOM     20  O   UNL     1       6.442   4.036  16.591  0.00  0.00    +0.000 OA
ATOM     21  H   UNL     1       4.748   5.194  19.008  0.00  0.00    +0.000 HD
BRANCH  18  22
ATOM     22  C   UNL     1       3.977   3.544  17.942  0.00  0.00    +0.000 C 
ATOM     23  C   UNL     1       3.164   3.775  16.661  0.00  0.00    +0.000 C 
BRANCH  22  30
ATOM     24  C   UNL     1       4.730   1.876  20.365  0.00  0.00    +0.000 C 
ATOM     25  C   UNL     1       3.443   2.652  20.297  0.00  0.00    +0.000 A 
ATOM     26  C   UNL     1       2.578   2.610  21.406  0.00  0.00    +0.000 A 
ATOM     27  C   UNL     1       1.360   3.288  21.396  0.00  0.00    +0.000 A 
ATOM     28  C   UNL     1       0.977   4.009  20.274  0.00  0.00    +0.000 A 
ATOM     29  C   UNL     1       1.820   4.060  19.167  0.00  0.00    +0.000 A 
ATOM     30  C   UNL     1       3.066   3.395  19.157  0.00  0.00    +0.000 A 
ENDBRANCH  22  30
ENDBRANCH  18  22
ENDBRANCH   1  19
TORSDOF 5
ENDMDL
MODEL 2
REMARK VINA RESULT:      -8.8      6.623      9.425
REMARK  Name = 
REMARK  7 active torsions:
REMARK  status: ('A' for Active; 'I' for Inactive)
REMARK    1  A    between atoms: C_1  and  C_2
REMARK    2  A    between atoms: C_7  and  C_8
REMARK    3  A    between atoms: C_8  and  C_9
REMARK    4  A    between atoms: C_8  and  N_10
REMARK    5  A    between atoms: C_11  and  C_13
REMARK    6  A    between atoms: C_16  and  C_17
REMARK    7  A    between atoms: C_20  and  C_21
REMARK                            x       y       z     vdW  Elec       q    Type
REMARK                         _______ _______ _______ _____ _____    ______ ____
ROOT
ATOM      1  C   UNL     1       2.186   8.018  18.586  0.00  0.00    +0.000 A 
ATOM      2  C   UNL     1       1.753   9.213  17.997  0.00  0.00    +0.000 A 
ATOM      3  C   UNL     1       1.093  10.187  18.763  0.00  0.00    +0.000 A 
ATOM      4  C   UNL     1       0.856   9.998  20.133  0.00  0.00    +0.000 A 
ATOM      5  C   UNL     1       1.244   8.779  20.705  0.00  0.00    +0.000 A 
ATOM      6  C   UNL     1       1.903   7.803  19.942  0.00  0.00    +0.000 A 
ENDROOT
BRANCH   4   7
ATOM      7  C   UNL     1       0.267  11.075  20.925  0.00  0.00    +0.000 A 
ATOM      8  N   UNL     1       0.839  12.102  21.521  0.00  0.00    +0.000 NA
ATOM      9  N   UNL     1      -0.165  12.777  22.190  0.00  0.00    +0.000 NA
ATOM     10  C   UNL     1      -1.282  12.121  21.952  0.00  0.00    +0.000 A 
ATOM     11  O   UNL     1      -1.085  11.025  21.151  0.00  0.00    +0.000 OA
BRANCH  10  12
ATOM     12  C   UNL     1      -2.648  12.395  22.390  0.00  0.00    +0.000 A 
ATOM     13  C   UNL     1      -2.993  12.267  23.745  0.00  0.00    +0.000 A 
ATOM     14  C   UNL     1      -4.286  12.567  24.188  0.00  0.00    +0.000 A 
ATOM     15  C   UNL     1      -5.253  12.995  23.281  0.00  0.00    +0.000 A 
ATOM     16  C   UNL     1      -4.933  13.110  21.930  0.00  0.00    +0.000 A 
ATOM     17  C   UNL     1      -3.642  12.808  21.488  0.00  0.00    +0.000 A 
ENDBRANCH  10  12
ENDBRANCH   4   7
BRANCH   1  19
ATOM     18  N   UNL     1       2.852   5.674  18.231  0.00  0.00    +0.000 N 
ATOM     19  C   UNL     1       3.011   6.992  17.861  0.00  0.00    +0.000 C 
ATOM     20  O   UNL     1       3.781   7.347  16.975  0.00  0.00    +0.000 OA
ATOM     21  H   UNL     1       2.346   5.452  19.073  0.00  0.00    +0.000 HD
BRANCH  18  22
ATOM     22  C   UNL     1       3.566   4.570  17.594  0.00  0.00    +0.000 C 
ATOM     23  C   UNL     1       3.047   3.212  18.084  0.00  0.00    +0.000 C 
BRANCH  22  30
ATOM     24  C   UNL     1       5.687   4.001  15.497  0.00  0.00    +0.000 C 
ATOM     25  C   UNL     1       6.037   4.498  16.873  0.00  0.00    +0.000 A 
ATOM     26  C   UNL     1       7.392   4.720  17.180  0.00  0.00    +0.000 A 
ATOM     27  C   UNL     1       7.782   5.158  18.445  0.00  0.00    +0.000 A 
ATOM     28  C   UNL     1       6.828   5.370  19.430  0.00  0.00    +0.000 A 
ATOM     29  C   UNL     1       5.482   5.153  19.145  0.00  0.00    +0.000 A 
ATOM     30  C   UNL     1       5.059   4.725  17.867  0.00  0.00    +0.000 A 
ENDBRANCH  22  30
ENDBRANCH  18  22
ENDBRANCH   1  19
TORSDOF 5
ENDMDL
MODEL 3
REMARK VINA RESULT:      -8.5      6.508      9.624
REMARK  Name = 
REMARK  7 active torsions:
REMARK  status: ('A' for Active; 'I' for Inactive)
REMARK    1  A    between atoms: C_1  and  C_2
REMARK    2  A    between atoms: C_7  and  C_8
REMARK    3  A    between atoms: C_8  and  C_9
REMARK    4  A    between atoms: C_8  and  N_10
REMARK    5  A    between atoms: C_11  and  C_13
REMARK    6  A    between atoms: C_16  and  C_17
REMARK    7  A    between atoms: C_20  and  C_21
REMARK                            x       y       z     vdW  Elec       q    Type
REMARK                         _______ _______ _______ _____ _____    ______ ____
ROOT
ATOM      1  C   UNL     1       2.443   7.422  19.326  0.00  0.00    +0.000 A 
ATOM      2  C   UNL     1       1.775   7.883  20.468  0.00  0.00    +0.000 A 
ATOM      3  C   UNL     1       0.942   9.011  20.401  0.00  0.00    +0.000 A 
ATOM      4  C   UNL     1       0.749   9.702  19.195  0.00  0.00    +0.000 A 
ATOM      5  C   UNL     1       1.460   9.269  18.068  0.00  0.00    +0.000 A 
ATOM      6  C   UNL     1       2.295   8.142  18.132  0.00  0.00    +0.000 A 
ENDROOT
BRANCH   4   7
ATOM      7  C   UNL     1      -0.209  10.803  19.133  0.00  0.00    +0.000 A 
ATOM      8  N   UNL     1      -0.052  12.082  19.414  0.00  0.00    +0.000 NA
ATOM      9  N   UNL     1      -1.291  12.673  19.254  0.00  0.00    +0.000 NA
ATOM     10  C   UNL     1      -2.119  11.719  18.881  0.00  0.00    +0.000 A 
ATOM     11  O   UNL     1      -1.499  10.498  18.781  0.00  0.00    +0.000 OA
BRANCH  10  12
ATOM     12  C   UNL     1      -3.541  11.776  18.557  0.00  0.00    +0.000 A 
ATOM     13  C   UNL     1      -4.460  12.266  19.498  0.00  0.00    +0.000 A 
ATOM     14  C   UNL     1      -5.820  12.369  19.188  0.00  0.00    +0.000 A 
ATOM     15  C   UNL     1      -6.282  11.978  17.932  0.00  0.00    +0.000 A 
ATOM     16  C   UNL     1      -5.387  11.473  16.993  0.00  0.00    +0.000 A 
ATOM     17  C   UNL     1      -4.027  11.369  17.303  0.00  0.00    +0.000 A 
ENDBRANCH  10  12
ENDBRANCH   4   7
BRANCH   1  19
ATOM     18  N   UNL     1       4.491   6.201  18.713  0.00  0.00    +0.000 N 
ATOM     19  C   UNL     1       3.243   6.150  19.294  0.00  0.00    +0.000 C 
ATOM     20  O   UNL     1       2.776   5.126  19.782  0.00  0.00    +0.000 OA
ATOM     21  H   UNL     1       4.756   7.010  18.175  0.00  0.00    +0.000 HD
BRANCH  18  22
ATOM     22  C   UNL     1       5.389   5.051  18.637  0.00  0.00    +0.000 C 
ATOM     23  C   UNL     1       6.674   5.291  19.440  0.00  0.00    +0.000 C 
BRANCH  22  30
ATOM     24  C   UNL     1       3.527   3.446  16.854  0.00  0.00    +0.000 C 
ATOM     25  C   UNL     1       4.806   4.049  16.338  0.00  0.00    +0.000 A 
ATOM     26  C   UNL     1       5.128   3.872  14.981  0.00  0.00    +0.000 A 
ATOM     27  C   UNL     1       6.309   4.386  14.447  0.00  0.00    +0.000 A 
ATOM     28  C   UNL     1       7.196   5.074  15.263  0.00  0.00    +0.000 A 
ATOM     29  C   UNL     1       6.895   5.257  16.610  0.00  0.00    +0.000 A 
ATOM     30  C   UNL     1       5.697   4.760  17.171  0.00  0.00    +0.000 A 
ENDBRANCH  22  30
ENDBRANCH  18  22
ENDBRANCH   1  19
TORSDOF 5
ENDMDL
MODEL 4
REMARK VINA RESULT:      -8.5      7.025      9.626
REMARK  Name = 
REMARK  7 active torsions:
REMARK  status: ('A' for Active; 'I' for Inactive)
REMARK    1  A    between atoms: C_1  and  C_2
REMARK    2  A    between atoms: C_7  and  C_8
REMARK    3  A    between atoms: C_8  and  C_9
REMARK    4  A    between atoms: C_8  and  N_10
REMARK    5  A    between atoms: C_11  and  C_13
REMARK    6  A    between atoms: C_16  and  C_17
REMARK    7  A    between atoms: C_20  and  C_21
REMARK                            x       y       z     vdW  Elec       q    Type
REMARK                         _______ _______ _______ _____ _____    ______ ____
ROOT
ATOM      1  C   UNL     1       1.978   8.280  19.074  0.00  0.00    +0.000 A 
ATOM      2  C   UNL     1       1.780   7.885  20.403  0.00  0.00    +0.000 A 
ATOM      3  C   UNL     1       1.047   8.693  21.286  0.00  0.00    +0.000 A 
ATOM      4  C   UNL     1       0.488   9.909  20.866  0.00  0.00    +0.000 A 
ATOM      5  C   UNL     1       0.733  10.325  19.550  0.00  0.00    +0.000 A 
ATOM      6  C   UNL     1       1.467   9.520  18.665  0.00  0.00    +0.000 A 
ENDROOT
BRANCH   4   7
ATOM      7  C   UNL     1      -0.361  10.673  21.777  0.00  0.00    +0.000 A 
ATOM      8  N   UNL     1      -0.333  10.760  23.091  0.00  0.00    +0.000 NA
ATOM      9  N   UNL     1      -1.399  11.561  23.455  0.00  0.00    +0.000 NA
ATOM     10  C   UNL     1      -2.002  11.915  22.338  0.00  0.00    +0.000 A 
ATOM     11  O   UNL     1      -1.395  11.387  21.226  0.00  0.00    +0.000 OA
BRANCH  10  12
ATOM     12  C   UNL     1      -3.168  12.768  22.123  0.00  0.00    +0.000 A 
ATOM     13  C   UNL     1      -3.859  13.306  23.220  0.00  0.00    +0.000 A 
ATOM     14  C   UNL     1      -4.951  14.160  23.032  0.00  0.00    +0.000 A 
ATOM     15  C   UNL     1      -5.370  14.483  21.743  0.00  0.00    +0.000 A 
ATOM     16  C   UNL     1      -4.707  13.944  20.644  0.00  0.00    +0.000 A 
ATOM     17  C   UNL     1      -3.617  13.089  20.832  0.00  0.00    +0.000 A 
ENDBRANCH  10  12
ENDBRANCH   4   7
BRANCH   1  19
ATOM     18  N   UNL     1       2.838   6.084  18.367  0.00  0.00    +0.000 N 
ATOM     19  C   UNL     1       2.637   7.408  18.042  0.00  0.00    +0.000 C 
ATOM     20  O   UNL     1       2.963   7.886  16.961  0.00  0.00    +0.000 OA
ATOM     21  H   UNL     1       2.716   5.782  19.319  0.00  0.00    +0.000 HD
BRANCH  18  22
ATOM     22  C   UNL     1       3.439   5.116  17.452  0.00  0.00    +0.000 C 
ATOM     23  C   UNL     1       2.785   3.735  17.592  0.00  0.00    +0.000 C 
BRANCH  22  30
ATOM     24  C   UNL     1       5.455   4.333  15.321  0.00  0.00    +0.000 C 
ATOM     25  C   UNL     1       5.874   4.725  16.712  0.00  0.00    +0.000 A 
ATOM     26  C   UNL     1       7.247   4.743  17.017  0.00  0.00    +0.000 A 
ATOM     27  C   UNL     1       7.697   5.074  18.294  0.00  0.00    +0.000 A 
ATOM     28  C   UNL     1       6.784   5.380  19.294  0.00  0.00    +0.000 A 
ATOM     29  C   UNL     1       5.421   5.365  19.011  0.00  0.00    +0.000 A 
ATOM     30  C   UNL     1       4.940   5.049  17.720  0.00  0.00    +0.000 A 
ENDBRANCH  22  30
ENDBRANCH  18  22
ENDBRANCH   1  19
TORSDOF 5
ENDMDL
MODEL 5
REMARK VINA RESULT:      -8.5      7.343     10.266
REMARK  Name = 
REMARK  7 active torsions:
REMARK  status: ('A' for Active; 'I' for Inactive)
REMARK    1  A    between atoms: C_1  and  C_2
REMARK    2  A    between atoms: C_7  and  C_8
REMARK    3  A    between atoms: C_8  and  C_9
REMARK    4  A    between atoms: C_8  and  N_10
REMARK    5  A    between atoms: C_11  and  C_13
REMARK    6  A    between atoms: C_16  and  C_17
REMARK    7  A    between atoms: C_20  and  C_21
REMARK                            x       y       z     vdW  Elec       q    Type
REMARK                         _______ _______ _______ _____ _____    ______ ____
ROOT
ATOM      1  C   UNL     1       1.689   9.046  19.279  0.00  0.00    +0.000 A 
ATOM      2  C   UNL     1       1.310   8.665  20.573  0.00  0.00    +0.000 A 
ATOM      3  C   UNL     1       0.645   9.569  21.417  0.00  0.00    +0.000 A 
ATOM      4  C   UNL     1       0.335  10.870  20.991  0.00  0.00    +0.000 A 
ATOM      5  C   UNL     1       0.762  11.263  19.715  0.00  0.00    +0.000 A 
ATOM      6  C   UNL     1       1.428  10.362  18.869  0.00  0.00    +0.000 A 
ENDROOT
BRANCH   4   7
ATOM      7  C   UNL     1      -0.454  11.748  21.851  0.00  0.00    +0.000 A 
ATOM      8  N   UNL     1      -0.065  12.691  22.686  0.00  0.00    +0.000 NA
ATOM      9  N   UNL     1      -1.209  13.167  23.300  0.00  0.00    +0.000 NA
ATOM     10  C   UNL     1      -2.218  12.488  22.793  0.00  0.00    +0.000 A 
ATOM     11  O   UNL     1      -1.813  11.566  21.861  0.00  0.00    +0.000 OA
BRANCH  10  12
ATOM     12  C   UNL     1      -3.650  12.585  23.061  0.00  0.00    +0.000 A 
ATOM     13  C   UNL     1      -4.138  12.402  24.365  0.00  0.00    +0.000 A 
ATOM     14  C   UNL     1      -5.502  12.535  24.646  0.00  0.00    +0.000 A 
ATOM     15  C   UNL     1      -6.398  12.849  23.626  0.00  0.00    +0.000 A 
ATOM     16  C   UNL     1      -5.934  13.016  22.324  0.00  0.00    +0.000 A 
ATOM     17  C   UNL     1      -4.571  12.881  22.043  0.00  0.00    +0.000 A 
ENDBRANCH  10  12
ENDBRANCH   4   7
BRANCH   1  19
ATOM     18  N   UNL     1       2.641   6.844  18.730  0.00  0.00    +0.000 N 
ATOM     19  C   UNL     1       2.282   8.095  18.278  0.00  0.00    +0.000 C 
ATOM     20  O   UNL     1       2.422   8.448  17.112  0.00  0.00    +0.000 OA
ATOM     21  H   UNL     1       2.672   6.663  19.720  0.00  0.00    +0.000 HD
BRANCH  18  22
ATOM     22  C   UNL     1       3.202   5.809  17.864  0.00  0.00    +0.000 C 
ATOM     23  C   UNL     1       2.623   4.428  18.196  0.00  0.00    +0.000 C 
BRANCH  22  30
ATOM     24  C   UNL     1       5.048   6.711  15.628  0.00  0.00    +0.000 C 
ATOM     25  C   UNL     1       5.571   6.281  16.972  0.00  0.00    +0.000 A 
ATOM     26  C   UNL     1       6.960   6.320  17.193  0.00  0.00    +0.000 A 
ATOM     27  C   UNL     1       7.508   5.913  18.409  0.00  0.00    +0.000 A 
ATOM     28  C   UNL     1       6.681   5.446  19.420  0.00  0.00    +0.000 A 
ATOM     29  C   UNL     1       5.304   5.398  19.219  0.00  0.00    +0.000 A 
ATOM     30  C   UNL     1       4.722   5.820  18.002  0.00  0.00    +0.000 A 
ENDBRANCH  22  30
ENDBRANCH  18  22
ENDBRANCH   1  19
TORSDOF 5
ENDMDL
MODEL 6
REMARK VINA RESULT:      -8.4      5.882      8.969
REMARK  Name = 
REMARK  7 active torsions:
REMARK  status: ('A' for Active; 'I' for Inactive)
REMARK    1  A    between atoms: C_1  and  C_2
REMARK    2  A    between atoms: C_7  and  C_8
REMARK    3  A    between atoms: C_8  and  C_9
REMARK    4  A    between atoms: C_8  and  N_10
REMARK    5  A    between atoms: C_11  and  C_13
REMARK    6  A    between atoms: C_16  and  C_17
REMARK    7  A    between atoms: C_20  and  C_21
REMARK                            x       y       z     vdW  Elec       q    Type
REMARK                         _______ _______ _______ _____ _____    ______ ____
ROOT
ATOM      1  C   UNL     1       1.840   8.131  19.399  0.00  0.00    +0.000 A 
ATOM      2  C   UNL     1       2.235   6.917  19.977  0.00  0.00    +0.000 A 
ATOM      3  C   UNL     1       3.164   6.087  19.329  0.00  0.00    +0.000 A 
ATOM      4  C   UNL     1       3.728   6.450  18.096  0.00  0.00    +0.000 A 
ATOM      5  C   UNL     1       3.291   7.639  17.498  0.00  0.00    +0.000 A 
ATOM      6  C   UNL     1       2.362   8.470  18.143  0.00  0.00    +0.000 A 
ENDROOT
BRANCH   4   7
ATOM      7  C   UNL     1       4.773   5.619  17.502  0.00  0.00    +0.000 A 
ATOM      8  N   UNL     1       5.690   4.868  18.078  0.00  0.00    +0.000 NA
ATOM      9  N   UNL     1       6.470   4.351  17.060  0.00  0.00    +0.000 NA
ATOM     10  C   UNL     1       5.972   4.816  15.932  0.00  0.00    +0.000 A 
ATOM     11  O   UNL     1       4.887   5.631  16.136  0.00  0.00    +0.000 OA
BRANCH  10  12
ATOM     12  C   UNL     1       6.386   4.583  14.552  0.00  0.00    +0.000 A 
ATOM     13  C   UNL     1       5.693   3.657  13.755  0.00  0.00    +0.000 A 
ATOM     14  C   UNL     1       6.049   3.453  12.417  0.00  0.00    +0.000 A 
ATOM     15  C   UNL     1       7.106   4.170  11.859  0.00  0.00    +0.000 A 
ATOM     16  C   UNL     1       7.815   5.079  12.640  0.00  0.00    +0.000 A 
ATOM     17  C   UNL     1       7.460   5.281  13.977  0.00  0.00    +0.000 A 
ENDBRANCH  10  12
ENDBRANCH   4   7
BRANCH   1  19
ATOM     18  N   UNL     1       0.238   9.997  19.302  0.00  0.00    +0.000 N 
ATOM     19  C   UNL     1       0.955   9.126  20.094  0.00  0.00    +0.000 C 
ATOM     20  O   UNL     1       0.890   9.132  21.318  0.00  0.00    +0.000 OA
ATOM     21  H   UNL     1       0.455  10.071  18.322  0.00  0.00    +0.000 HD
BRANCH  18  22
ATOM     22  C   UNL     1      -0.683  10.997  19.839  0.00  0.00    +0.000 C 
ATOM     23  C   UNL     1      -1.859  11.242  18.884  0.00  0.00    +0.000 C 
BRANCH  22  30
ATOM     24  C   UNL     1      -0.798  12.452  22.501  0.00  0.00    +0.000 C 
ATOM     25  C   UNL     1       0.063  12.932  21.364  0.00  0.00    +0.000 A 
ATOM     26  C   UNL     1       0.849  14.082  21.560  0.00  0.00    +0.000 A 
ATOM     27  C   UNL     1       1.650  14.590  20.538  0.00  0.00    +0.000 A 
ATOM     28  C   UNL     1       1.670  13.967  19.298  0.00  0.00    +0.000 A 
ATOM     29  C   UNL     1       0.897  12.829  19.086  0.00  0.00    +0.000 A 
ATOM     30  C   UNL     1       0.089  12.285  20.109  0.00  0.00    +0.000 A 
ENDBRANCH  22  30
ENDBRANCH  18  22
ENDBRANCH   1  19
TORSDOF 5
ENDMDL
MODEL 7
REMARK VINA RESULT:      -8.4      6.097      7.686
REMARK  Name = 
REMARK  7 active torsions:
REMARK  status: ('A' for Active; 'I' for Inactive)
REMARK    1  A    between atoms: C_1  and  C_2
REMARK    2  A    between atoms: C_7  and  C_8
REMARK    3  A    between atoms: C_8  and  C_9
REMARK    4  A    between atoms: C_8  and  N_10
REMARK    5  A    between atoms: C_11  and  C_13
REMARK    6  A    between atoms: C_16  and  C_17
REMARK    7  A    between atoms: C_20  and  C_21
REMARK                            x       y       z     vdW  Elec       q    Type
REMARK                         _______ _______ _______ _____ _____    ______ ____
ROOT
ATOM      1  C   UNL     1       2.360   7.365  19.196  0.00  0.00    +0.000 A 
ATOM      2  C   UNL     1       2.193   8.142  18.042  0.00  0.00    +0.000 A 
ATOM      3  C   UNL     1       1.464   9.341  18.089  0.00  0.00    +0.000 A 
ATOM      4  C   UNL     1       0.891   9.798  19.286  0.00  0.00    +0.000 A 
ATOM      5  C   UNL     1       1.016   8.992  20.425  0.00  0.00    +0.000 A 
ATOM      6  C   UNL     1       1.743   7.792  20.381  0.00  0.00    +0.000 A 
ENDROOT
BRANCH   4   7
ATOM      7  C   UNL     1       0.234  11.102  19.326  0.00  0.00    +0.000 A 
ATOM      8  N   UNL     1      -1.022  11.413  19.577  0.00  0.00    +0.000 NA
ATOM      9  N   UNL     1      -1.126  12.783  19.417  0.00  0.00    +0.000 NA
ATOM     10  C   UNL     1       0.073  13.216  19.086  0.00  0.00    +0.000 A 
ATOM     11  O   UNL     1       0.993  12.200  19.010  0.00  0.00    +0.000 OA
BRANCH  10  12
ATOM     12  C   UNL     1       0.546  14.570  18.815  0.00  0.00    +0.000 A 
ATOM     13  C   UNL     1       1.918  14.818  18.648  0.00  0.00    +0.000 A 
ATOM     14  C   UNL     1       2.383  16.102  18.345  0.00  0.00    +0.000 A 
ATOM     15  C   UNL     1       1.484  17.158  18.210  0.00  0.00    +0.000 A 
ATOM     16  C   UNL     1       0.121  16.933  18.391  0.00  0.00    +0.000 A 
ATOM     17  C   UNL     1      -0.344  15.650  18.695  0.00  0.00    +0.000 A 
ENDBRANCH  10  12
ENDBRANCH   4   7
BRANCH   1  19
ATOM     18  N   UNL     1       4.442   6.200  18.591  0.00  0.00    +0.000 N 
ATOM     19  C   UNL     1       3.234   6.144  19.250  0.00  0.00    +0.000 C 
ATOM     20  O   UNL     1       2.859   5.155  19.871  0.00  0.00    +0.000 OA
ATOM     21  H   UNL     1       4.626   6.959  17.955  0.00  0.00    +0.000 HD
BRANCH  18  22
ATOM     22  C   UNL     1       5.404   5.100  18.582  0.00  0.00    +0.000 C 
ATOM     23  C   UNL     1       6.674   5.463  19.363  0.00  0.00    +0.000 C 
BRANCH  22  30
ATOM     24  C   UNL     1       3.538   3.451  16.845  0.00  0.00    +0.000 C 
ATOM     25  C   UNL     1       4.835   4.006  16.322  0.00  0.00    +0.000 A 
ATOM     26  C   UNL     1       5.174   3.763  14.979  0.00  0.00    +0.000 A 
ATOM     27  C   UNL     1       6.372   4.230  14.441  0.00  0.00    +0.000 A 
ATOM     28  C   UNL     1       7.260   4.938  15.238  0.00  0.00    +0.000 A 
ATOM     29  C   UNL     1       6.943   5.187  16.571  0.00  0.00    +0.000 A 
ATOM     30  C   UNL     1       5.728   4.738  17.136  0.00  0.00    +0.000 A 
ENDBRANCH  22  30
ENDBRANCH  18  22
ENDBRANCH   1  19
TORSDOF 5
ENDMDL
MODEL 8
REMARK VINA RESULT:      -8.4      7.357     10.053
REMARK  Name = 
REMARK  7 active torsions:
REMARK  status: ('A' for Active; 'I' for Inactive)
REMARK    1  A    between atoms: C_1  and  C_2
REMARK    2  A    between atoms: C_7  and  C_8
REMARK    3  A    between atoms: C_8  and  C_9
REMARK    4  A    between atoms: C_8  and  N_10
REMARK    5  A    between atoms: C_11  and  C_13
REMARK    6  A    between atoms: C_16  and  C_17
REMARK    7  A    between atoms: C_20  and  C_21
REMARK                            x       y       z     vdW  Elec       q    Type
REMARK                         _______ _______ _______ _____ _____    ______ ____
ROOT
ATOM      1  C   UNL     1       1.724   8.714  19.200  0.00  0.00    +0.000 A 
ATOM      2  C   UNL     1       1.430   8.310  20.508  0.00  0.00    +0.000 A 
ATOM      3  C   UNL     1       0.667   9.131  21.354  0.00  0.00    +0.000 A 
ATOM      4  C   UNL     1       0.173  10.369  20.915  0.00  0.00    +0.000 A 
ATOM      5  C   UNL     1       0.514  10.792  19.624  0.00  0.00    +0.000 A 
ATOM      6  C   UNL     1       1.277   9.974  18.776  0.00  0.00    +0.000 A 
ENDROOT
BRANCH   4   7
ATOM      7  C   UNL     1      -0.709  11.148  21.781  0.00  0.00    +0.000 A 
ATOM      8  N   UNL     1      -0.645  11.372  23.078  0.00  0.00    +0.000 NA
ATOM      9  N   UNL     1      -1.764  12.115  23.404  0.00  0.00    +0.000 NA
ATOM     10  C   UNL     1      -2.432  12.300  22.283  0.00  0.00    +0.000 A 
ATOM     11  O   UNL     1      -1.818  11.714  21.205  0.00  0.00    +0.000 OA
BRANCH  10  12
ATOM     12  C   UNL     1      -3.674  13.026  22.034  0.00  0.00    +0.000 A 
ATOM     13  C   UNL     1      -4.395  12.805  20.850  0.00  0.00    +0.000 A 
ATOM     14  C   UNL     1      -5.609  13.459  20.616  0.00  0.00    +0.000 A 
ATOM     15  C   UNL     1      -6.117  14.349  21.561  0.00  0.00    +0.000 A 
ATOM     16  C   UNL     1      -5.406  14.594  22.732  0.00  0.00    +0.000 A 
ATOM     17  C   UNL     1      -4.192  13.941  22.966  0.00  0.00    +0.000 A 
ENDBRANCH  10  12
ENDBRANCH   4   7
BRANCH   1  19
ATOM     18  N   UNL     1       2.716   6.545  18.589  0.00  0.00    +0.000 N 
ATOM     19  C   UNL     1       2.420   7.834  18.201  0.00  0.00    +0.000 C 
ATOM     20  O   UNL     1       2.692   8.273  17.089  0.00  0.00    +0.000 OA
ATOM     21  H   UNL     1       2.633   6.287  19.559  0.00  0.00    +0.000 HD
BRANCH  18  22
ATOM     22  C   UNL     1       3.363   5.571  17.713  0.00  0.00    +0.000 C 
ATOM     23  C   UNL     1       2.858   4.149  17.990  0.00  0.00    +0.000 C 
BRANCH  22  30
ATOM     24  C   UNL     1       5.234   6.464  15.495  0.00  0.00    +0.000 C 
ATOM     25  C   UNL     1       5.733   6.125  16.874  0.00  0.00    +0.000 A 
ATOM     26  C   UNL     1       7.109   6.248  17.136  0.00  0.00    +0.000 A 
ATOM     27  C   UNL     1       7.637   5.927  18.385  0.00  0.00    +0.000 A 
ATOM     28  C   UNL     1       6.801   5.465  19.392  0.00  0.00    +0.000 A 
ATOM     29  C   UNL     1       5.436   5.335  19.151  0.00  0.00    +0.000 A 
ATOM     30  C   UNL     1       4.875   5.669  17.898  0.00  0.00    +0.000 A 
ENDBRANCH  22  30
ENDBRANCH  18  22
ENDBRANCH   1  19
TORSDOF 5
ENDMDL
MODEL 9
REMARK VINA RESULT:      -8.3      6.409      9.485
REMARK  Name = 
REMARK  7 active torsions:
REMARK  status: ('A' for Active; 'I' for Inactive)
REMARK    1  A    between atoms: C_1  and  C_2
REMARK    2  A    between atoms: C_7  and  C_8
REMARK    3  A    between atoms: C_8  and  C_9
REMARK    4  A    between atoms: C_8  and  N_10
REMARK    5  A    between atoms: C_11  and  C_13
REMARK    6  A    between atoms: C_16  and  C_17
REMARK    7  A    between atoms: C_20  and  C_21
REMARK                            x       y       z     vdW  Elec       q    Type
REMARK                         _______ _______ _______ _____ _____    ______ ____
ROOT
ATOM      1  C   UNL     1       2.584   7.129  19.252  0.00  0.00    +0.000 A 
ATOM      2  C   UNL     1       2.301   7.909  18.123  0.00  0.00    +0.000 A 
ATOM      3  C   UNL     1       1.409   8.990  18.208  0.00  0.00    +0.000 A 
ATOM      4  C   UNL     1       0.785   9.325  19.420  0.00  0.00    +0.000 A 
ATOM      5  C   UNL     1       1.031   8.511  20.533  0.00  0.00    +0.000 A 
ATOM      6  C   UNL     1       1.921   7.429  20.451  0.00  0.00    +0.000 A 
ENDROOT
BRANCH   4   7
ATOM      7  C   UNL     1      -0.050  10.521  19.501  0.00  0.00    +0.000 A 
ATOM      8  N   UNL     1       0.223  11.716  19.985  0.00  0.00    +0.000 NA
ATOM      9  N   UNL     1      -0.939  12.458  19.879  0.00  0.00    +0.000 NA
ATOM     10  C   UNL     1      -1.840  11.668  19.331  0.00  0.00    +0.000 A 
ATOM     11  O   UNL     1      -1.345  10.417  19.060  0.00  0.00    +0.000 OA
BRANCH  10  12
ATOM     12  C   UNL     1      -3.231  11.931  18.971  0.00  0.00    +0.000 A 
ATOM     13  C   UNL     1      -4.078  12.597  19.870  0.00  0.00    +0.000 A 
ATOM     14  C   UNL     1      -5.400  12.895  19.524  0.00  0.00    +0.000 A 
ATOM     15  C   UNL     1      -5.895  12.526  18.274  0.00  0.00    +0.000 A 
ATOM     16  C   UNL     1      -5.074  11.848  17.377  0.00  0.00    +0.000 A 
ATOM     17  C   UNL     1      -3.753  11.549  17.724  0.00  0.00    +0.000 A 
ENDBRANCH  10  12
ENDBRANCH   4   7
BRANCH   1  19
ATOM     18  N   UNL     1       4.706   6.193  18.429  0.00  0.00    +0.000 N 
ATOM     19  C   UNL     1       3.623   6.044  19.266  0.00  0.00    +0.000 C 
ATOM     20  O   UNL     1       3.485   5.080  20.012  0.00  0.00    +0.000 OA
ATOM     21  H   UNL     1       4.689   6.904  17.716  0.00  0.00    +0.000 HD
BRANCH  18  22
ATOM     22  C   UNL     1       5.805   5.232  18.359  0.00  0.00    +0.000 C 
ATOM     23  C   UNL     1       7.103   5.827  18.921  0.00  0.00    +0.000 C 
BRANCH  22  30
ATOM     24  C   UNL     1       3.939   3.252  17.011  0.00  0.00    +0.000 C 
ATOM     25  C   UNL     1       5.084   3.898  16.279  0.00  0.00    +0.000 A 
ATOM     26  C   UNL     1       5.273   3.580  14.922  0.00  0.00    +0.000 A 
ATOM     27  C   UNL     1       6.329   4.126  14.194  0.00  0.00    +0.000 A 
ATOM     28  C   UNL     1       7.223   4.990  14.812  0.00  0.00    +0.000 A 
ATOM     29  C   UNL     1       7.052   5.315  16.155  0.00  0.00    +0.000 A 
ATOM     30  C   UNL     1       5.981   4.787  16.910  0.00  0.00    +0.000 A 
ENDBRANCH  22  30
ENDBRANCH  18  22
ENDBRANCH   1  19
TORSDOF 5
ENDMDL
