MODEL 1
REMARK VINA RESULT:      -8.6      0.000      0.000
REMARK  Name = 
REMARK  5 active torsions:
REMARK  status: ('A' for Active; 'I' for Inactive)
REMARK    1  A    between atoms: C_2  and  C_14
REMARK    2  A    between atoms: N_3  and  C_4
REMARK    3  A    between atoms: N_8  and  C_9
REMARK    4  A    between atoms: N_21  and  C_22
REMARK    5  A    between atoms: C_22  and  C_23
REMARK                            x       y       z     vdW  Elec       q    Type
REMARK                         _______ _______ _______ _____ _____    ______ ____
ROOT
ATOM      1  C   UNL     1       1.392   9.588  19.594  0.00  0.00    +0.000 A 
ATOM      2  C   UNL     1       1.020  10.908  19.384  0.00  0.00    +0.000 A 
ATOM      3  N   UNL     1       0.360  11.677  20.292  0.00  0.00    +0.000 NA
ATOM      4  C   UNL     1       0.018  11.005  21.417  0.00  0.00    +0.000 A 
ATOM      5  C   UNL     1       0.370   9.702  21.737  0.00  0.00    +0.000 A 
ATOM      6  C   UNL     1      -0.277   9.429  22.954  0.00  0.00    +0.000 A 
ATOM      7  N   UNL     1      -0.964  10.474  23.412  0.00  0.00    +0.000 NA
ATOM      8  N   UNL     1      -0.750  11.436  22.475  0.00  0.00    +0.000 N 
ATOM      9  C   UNL     1       1.168   8.992  20.842  0.00  0.00    +0.000 A 
ENDROOT
BRANCH   1  11
ATOM     10  O   UNL     1       1.411   8.824  17.322  0.00  0.00    +0.000 OA
ATOM     11  C   UNL     1       1.809   8.718  18.470  0.00  0.00    +0.000 C 
ATOM     12  N   UNL     1       2.686   7.663  18.899  0.00  0.00    +0.000 N 
ATOM     13  H   UNL     1       2.855   7.575  19.891  0.00  0.00    +0.000 HD
BRANCH  12  14
ATOM     14  C   UNL     1       3.312   6.722  18.106  0.00  0.00    +0.000 A 
ATOM     15  C   UNL     1       4.379   6.875  17.251  0.00  0.00    +0.000 A 
ATOM     16  C   UNL     1       4.615   5.588  16.734  0.00  0.00    +0.000 A 
ATOM     17  N   UNL     1       3.771   4.678  17.225  0.00  0.00    +0.000 NA
ATOM     18  N   UNL     1       2.958   5.388  18.028  0.00  0.00    +0.000 N 
BRANCH  18  19
ATOM     19  C   UNL     1       1.863   4.731  18.723  0.00  0.00    +0.000 C 
ATOM     20  C   UNL     1       2.134   4.498  20.210  0.00  0.00    +0.000 C 
ATOM     21  C   UNL     1       1.188   3.375  20.625  0.00  0.00    +0.000 C 
ATOM     22  C   UNL     1       0.715   2.695  19.343  0.00  0.00    +0.000 C 
ATOM     23  C   UNL     1       1.489   3.341  18.202  0.00  0.00    +0.000 C 
ENDBRANCH  18  19
ENDBRANCH  12  14
ENDBRANCH   1  11
BRANCH   8  24
ATOM     24  C   UNL     1      -1.297  12.768  22.687  0.00  0.00    +0.000 C 
BRANCH  24  25
ATOM     25  C   UNL     1      -2.794  12.774  22.524  0.00  0.00    +0.000 A 
ATOM     26  C   UNL     1      -3.376  12.759  21.248  0.00  0.00    +0.000 A 
ATOM     27  C   UNL     1      -4.762  12.845  21.102  0.00  0.00    +0.000 A 
ATOM     28  C   UNL     1      -5.576  12.943  22.229  0.00  0.00    +0.000 A 
ATOM     29  C   UNL     1      -5.009  12.937  23.502  0.00  0.00    +0.000 A 
ATOM     30  C   UNL     1      -3.625  12.850  23.651  0.00  0.00    +0.000 A 
ENDBRANCH  24  25
ENDBRANCH   8  24
TORSDOF 5
ENDMDL
MODEL 2
REMARK VINA RESULT:      -8.5      2.021      3.387
REMARK  Name = 
REMARK  5 active torsions:
REMARK  status: ('A' for Active; 'I' for Inactive)
REMARK    1  A    between atoms: C_2  and  C_14
REMARK    2  A    between atoms: N_3  and  C_4
REMARK    3  A    between atoms: N_8  and  C_9
REMARK    4  A    between atoms: N_21  and  C_22
REMARK    5  A    between atoms: C_22  and  C_23
REMARK                            x       y       z     vdW  Elec       q    Type
REMARK                         _______ _______ _______ _____ _____    ______ ____
ROOT
ATOM      1  C   UNL     1       1.490   8.218  20.414  0.00  0.00    +0.000 A 
ATOM      2  C   UNL     1       1.231   9.112  19.384  0.00  0.00    +0.000 A 
ATOM      3  N   UNL     1       0.543  10.276  19.529  0.00  0.00    +0.000 NA
ATOM      4  C   UNL     1       0.050  10.457  20.778  0.00  0.00    +0.000 A 
ATOM      5  C   UNL     1       0.280   9.646  21.879  0.00  0.00    +0.000 A 
ATOM      6  C   UNL     1      -0.496  10.194  22.914  0.00  0.00    +0.000 A 
ATOM      7  N   UNL     1      -1.150  11.290  22.536  0.00  0.00    +0.000 NA
ATOM      8  N   UNL     1      -0.782  11.453  21.237  0.00  0.00    +0.000 N 
ATOM      9  C   UNL     1       1.108   8.536  21.724  0.00  0.00    +0.000 A 
ENDROOT
BRANCH   1  11
ATOM     10  O   UNL     1       1.999   5.940  20.960  0.00  0.00    +0.000 OA
ATOM     11  C   UNL     1       1.951   6.838  20.136  0.00  0.00    +0.000 C 
ATOM     12  N   UNL     1       2.424   6.687  18.787  0.00  0.00    +0.000 N 
ATOM     13  H   UNL     1       2.470   7.520  18.216  0.00  0.00    +0.000 HD
BRANCH  12  14
ATOM     14  C   UNL     1       2.857   5.527  18.177  0.00  0.00    +0.000 A 
ATOM     15  C   UNL     1       2.121   4.465  17.705  0.00  0.00    +0.000 A 
ATOM     16  C   UNL     1       3.070   3.583  17.157  0.00  0.00    +0.000 A 
ATOM     17  N   UNL     1       4.317   4.045  17.263  0.00  0.00    +0.000 NA
ATOM     18  N   UNL     1       4.178   5.210  17.921  0.00  0.00    +0.000 N 
BRANCH  18  19
ATOM     19  C   UNL     1       5.349   6.001  18.261  0.00  0.00    +0.000 C 
ATOM     20  C   UNL     1       5.930   6.774  17.077  0.00  0.00    +0.000 C 
ATOM     21  C   UNL     1       7.377   7.076  17.457  0.00  0.00    +0.000 C 
ATOM     22  C   UNL     1       7.738   6.140  18.607  0.00  0.00    +0.000 C 
ATOM     23  C   UNL     1       6.546   5.213  18.800  0.00  0.00    +0.000 C 
ENDBRANCH  18  19
ENDBRANCH  12  14
ENDBRANCH   1  11
BRANCH   8  24
ATOM     24  C   UNL     1      -1.253  12.619  20.506  0.00  0.00    +0.000 C 
BRANCH  24  25
ATOM     25  C   UNL     1      -2.585  12.352  19.854  0.00  0.00    +0.000 A 
ATOM     26  C   UNL     1      -2.658  11.682  18.623  0.00  0.00    +0.000 A 
ATOM     27  C   UNL     1      -3.887  11.507  17.986  0.00  0.00    +0.000 A 
ATOM     28  C   UNL     1      -5.052  11.998  18.573  0.00  0.00    +0.000 A 
ATOM     29  C   UNL     1      -4.993  12.646  19.806  0.00  0.00    +0.000 A 
ATOM     30  C   UNL     1      -3.766  12.820  20.446  0.00  0.00    +0.000 A 
ENDBRANCH  24  25
ENDBRANCH   8  24
TORSDOF 5
ENDMDL
MODEL 3
REMARK VINA RESULT:      -8.5      2.610      4.241
REMARK  Name = 
REMARK  5 active torsions:
REMARK  status: ('A' for Active; 'I' for Inactive)
REMARK    1  A    between atoms: C_2  and  C_14
REMARK    2  A    between atoms: N_3  and  C_4
REMARK    3  A    between atoms: N_8  and  C_9
REMARK    4  A    between atoms: N_21  and  C_22
REMARK    5  A    between atoms: C_22  and  C_23
REMARK                            x       y       z     vdW  Elec       q    Type
REMARK                         _______ _______ _______ _____ _____    ______ ____
ROOT
ATOM      1  C   UNL     1       2.204   7.669  19.375  0.00  0.00    +0.000 A 
ATOM      2  C   UNL     1       2.001   8.379  18.200  0.00  0.00    +0.000 A 
ATOM      3  N   UNL     1       1.236   9.499  18.098  0.00  0.00    +0.000 NA
ATOM      4  C   UNL     1       0.608   9.828  19.252  0.00  0.00    +0.000 A 
ATOM      5  C   UNL     1       0.770   9.208  20.482  0.00  0.00    +0.000 A 
ATOM      6  C   UNL     1      -0.138   9.846  21.343  0.00  0.00    +0.000 A 
ATOM      7  N   UNL     1      -0.812  10.824  20.740  0.00  0.00    +0.000 NA
ATOM      8  N   UNL     1      -0.323  10.818  19.471  0.00  0.00    +0.000 N 
ATOM      9  C   UNL     1       1.672   8.150  20.578  0.00  0.00    +0.000 A 
ENDROOT
BRANCH   1  11
ATOM     10  O   UNL     1       3.621   5.888  20.128  0.00  0.00    +0.000 OA
ATOM     11  C   UNL     1       2.769   6.300  19.358  0.00  0.00    +0.000 C 
ATOM     12  N   UNL     1       2.258   5.517  18.266  0.00  0.00    +0.000 N 
ATOM     13  H   UNL     1       1.657   5.985  17.602  0.00  0.00    +0.000 HD
BRANCH  12  14
ATOM     14  C   UNL     1       2.519   4.189  17.995  0.00  0.00    +0.000 A 
ATOM     15  C   UNL     1       1.720   3.087  18.197  0.00  0.00    +0.000 A 
ATOM     16  C   UNL     1       2.473   2.002  17.712  0.00  0.00    +0.000 A 
ATOM     17  N   UNL     1       3.659   2.379  17.229  0.00  0.00    +0.000 NA
ATOM     18  N   UNL     1       3.691   3.706  17.444  0.00  0.00    +0.000 N 
BRANCH  18  19
ATOM     19  C   UNL     1       4.867   4.477  17.076  0.00  0.00    +0.000 C 
ATOM     20  C   UNL     1       5.490   4.046  15.747  0.00  0.00    +0.000 C 
ATOM     21  C   UNL     1       6.932   4.543  15.793  0.00  0.00    +0.000 C 
ATOM     22  C   UNL     1       7.249   4.852  17.254  0.00  0.00    +0.000 C 
ATOM     23  C   UNL     1       6.036   4.410  18.062  0.00  0.00    +0.000 C 
ENDBRANCH  18  19
ENDBRANCH  12  14
ENDBRANCH   1  11
BRANCH   8  24
ATOM     24  C   UNL     1      -0.782  11.825  18.528  0.00  0.00    +0.000 C 
BRANCH  24  25
ATOM     25  C   UNL     1      -2.082  11.417  17.886  0.00  0.00    +0.000 A 
ATOM     26  C   UNL     1      -2.093  10.597  16.748  0.00  0.00    +0.000 A 
ATOM     27  C   UNL     1      -3.295  10.287  16.111  0.00  0.00    +0.000 A 
ATOM     28  C   UNL     1      -4.496  10.792  16.607  0.00  0.00    +0.000 A 
ATOM     29  C   UNL     1      -4.499  11.590  17.750  0.00  0.00    +0.000 A 
ATOM     30  C   UNL     1      -3.298  11.900  18.389  0.00  0.00    +0.000 A 
ENDBRANCH  24  25
ENDBRANCH   8  24
TORSDOF 5
ENDMDL
MODEL 4
REMARK VINA RESULT:      -8.5      2.039      3.462
REMARK  Name = 
REMARK  5 active torsions:
REMARK  status: ('A' for Active; 'I' for Inactive)
REMARK    1  A    between atoms: C_2  and  C_14
REMARK    2  A    between atoms: N_3  and  C_4
REMARK    3  A    between atoms: N_8  and  C_9
REMARK    4  A    between atoms: N_21  and  C_22
REMARK    5  A    between atoms: C_22  and  C_23
REMARK                            x       y       z     vdW  Elec       q    Type
REMARK                         _______ _______ _______ _____ _____    ______ ____
ROOT
ATOM      1  C   UNL     1       1.826   8.231  19.650  0.00  0.00    +0.000 A 
ATOM      2  C   UNL     1       1.541   9.308  18.822  0.00  0.00    +0.000 A 
ATOM      3  N   UNL     1       0.811  10.394  19.194  0.00  0.00    +0.000 NA
ATOM      4  C   UNL     1       0.307  10.299  20.448  0.00  0.00    +0.000 A 
ATOM      5  C   UNL     1       0.561   9.288  21.362  0.00  0.00    +0.000 A 
ATOM      6  C   UNL     1      -0.238   9.587  22.479  0.00  0.00    +0.000 A 
ATOM      7  N   UNL     1      -0.929  10.715  22.325  0.00  0.00    +0.000 NA
ATOM      8  N   UNL     1      -0.562  11.152  21.091  0.00  0.00    +0.000 N 
ATOM      9  C   UNL     1       1.428   8.262  20.993  0.00  0.00    +0.000 A 
ENDROOT
BRANCH   1  11
ATOM     10  O   UNL     1       2.279   6.626  17.928  0.00  0.00    +0.000 OA
ATOM     11  C   UNL     1       2.336   6.953  19.102  0.00  0.00    +0.000 C 
ATOM     12  N   UNL     1       2.839   6.085  20.131  0.00  0.00    +0.000 N 
ATOM     13  H   UNL     1       2.723   6.386  21.089  0.00  0.00    +0.000 HD
BRANCH  12  14
ATOM     14  C   UNL     1       3.446   4.856  19.966  0.00  0.00    +0.000 A 
ATOM     15  C   UNL     1       2.967   3.602  20.270  0.00  0.00    +0.000 A 
ATOM     16  C   UNL     1       3.985   2.720  19.864  0.00  0.00    +0.000 A 
ATOM     17  N   UNL     1       5.031   3.356  19.334  0.00  0.00    +0.000 NA
ATOM     18  N   UNL     1       4.708   4.658  19.439  0.00  0.00    +0.000 N 
BRANCH  18  19
ATOM     19  C   UNL     1       5.639   5.680  18.991  0.00  0.00    +0.000 C 
ATOM     20  C   UNL     1       5.784   5.753  17.471  0.00  0.00    +0.000 C 
ATOM     21  C   UNL     1       7.123   6.441  17.221  0.00  0.00    +0.000 C 
ATOM     22  C   UNL     1       7.911   6.367  18.526  0.00  0.00    +0.000 C 
ATOM     23  C   UNL     1       7.080   5.523  19.484  0.00  0.00    +0.000 C 
ENDBRANCH  18  19
ENDBRANCH  12  14
ENDBRANCH   1  11
BRANCH   8  24
ATOM     24  C   UNL     1      -1.070  12.427  20.608  0.00  0.00    +0.000 C 
BRANCH  24  25
ATOM     25  C   UNL     1      -2.453  12.277  20.030  0.00  0.00    +0.000 A 
ATOM     26  C   UNL     1      -2.646  11.661  18.784  0.00  0.00    +0.000 A 
ATOM     27  C   UNL     1      -3.920  11.596  18.217  0.00  0.00    +0.000 A 
ATOM     28  C   UNL     1      -5.010  12.144  18.891  0.00  0.00    +0.000 A 
ATOM     29  C   UNL     1      -4.833  12.739  20.139  0.00  0.00    +0.000 A 
ATOM     30  C   UNL     1      -3.561  12.803  20.708  0.00  0.00    +0.000 A 
ENDBRANCH  24  25
ENDBRANCH   8  24
TORSDOF 5
ENDMDL
MODEL 5
REMARK VINA RESULT:      -8.5      2.935      4.586
REMARK  Name = 
REMARK  5 active torsions:
REMARK  status: ('A' for Active; 'I' for Inactive)
REMARK    1  A    between atoms: C_2  and  C_14
REMARK    2  A    between atoms: N_3  and  C_4
REMARK    3  A    between atoms: N_8  and  C_9
REMARK    4  A    between atoms: N_21  and  C_22
REMARK    5  A    between atoms: C_22  and  C_23
REMARK                            x       y       z     vdW  Elec       q    Type
REMARK                         _______ _______ _______ _____ _____    ______ ____
ROOT
ATOM      1  C   UNL     1       3.037   7.184  18.290  0.00  0.00    +0.000 A 
ATOM      2  C   UNL     1       2.728   8.298  17.523  0.00  0.00    +0.000 A 
ATOM      3  N   UNL     1       1.926   9.318  17.932  0.00  0.00    +0.000 NA
ATOM      4  C   UNL     1       1.377   9.112  19.153  0.00  0.00    +0.000 A 
ATOM      5  C   UNL     1       1.648   8.056  20.010  0.00  0.00    +0.000 A 
ATOM      6  C   UNL     1       0.788   8.236  21.107  0.00  0.00    +0.000 A 
ATOM      7  N   UNL     1       0.044   9.335  20.997  0.00  0.00    +0.000 NA
ATOM      8  N   UNL     1       0.437   9.873  19.812  0.00  0.00    +0.000 N 
ATOM      9  C   UNL     1       2.583   7.102  19.613  0.00  0.00    +0.000 A 
ENDROOT
BRANCH   1  11
ATOM     10  O   UNL     1       3.416   4.830  18.042  0.00  0.00    +0.000 OA
ATOM     11  C   UNL     1       3.638   5.974  17.682  0.00  0.00    +0.000 C 
ATOM     12  N   UNL     1       4.593   6.300  16.658  0.00  0.00    +0.000 N 
ATOM     13  H   UNL     1       4.809   7.278  16.521  0.00  0.00    +0.000 HD
BRANCH  12  14
ATOM     14  C   UNL     1       5.282   5.422  15.847  0.00  0.00    +0.000 A 
ATOM     15  C   UNL     1       4.838   4.721  14.749  0.00  0.00    +0.000 A 
ATOM     16  C   UNL     1       5.965   4.011  14.295  0.00  0.00    +0.000 A 
ATOM     17  N   UNL     1       7.049   4.244  15.038  0.00  0.00    +0.000 NA
ATOM     18  N   UNL     1       6.610   5.072  16.003  0.00  0.00    +0.000 N 
BRANCH  18  19
ATOM     19  C   UNL     1       7.517   5.524  17.045  0.00  0.00    +0.000 C 
ATOM     20  C   UNL     1       7.217   4.927  18.420  0.00  0.00    +0.000 C 
ATOM     21  C   UNL     1       7.862   5.876  19.427  0.00  0.00    +0.000 C 
ATOM     22  C   UNL     1       8.136   7.184  18.691  0.00  0.00    +0.000 C 
ATOM     23  C   UNL     1       7.531   7.033  17.301  0.00  0.00    +0.000 C 
ENDBRANCH  18  19
ENDBRANCH  12  14
ENDBRANCH   1  11
BRANCH   8  24
ATOM     24  C   UNL     1      -0.119  11.150  19.392  0.00  0.00    +0.000 C 
BRANCH  24  25
ATOM     25  C   UNL     1      -1.448  10.965  18.707  0.00  0.00    +0.000 A 
ATOM     26  C   UNL     1      -1.589  10.050  17.653  0.00  0.00    +0.000 A 
ATOM     27  C   UNL     1      -2.801   9.940  16.969  0.00  0.00    +0.000 A 
ATOM     28  C   UNL     1      -3.881  10.743  17.334  0.00  0.00    +0.000 A 
ATOM     29  C   UNL     1      -3.758  11.640  18.394  0.00  0.00    +0.000 A 
ATOM     30  C   UNL     1      -2.548  11.750  19.079  0.00  0.00    +0.000 A 
ENDBRANCH  24  25
ENDBRANCH   8  24
TORSDOF 5
ENDMDL
MODEL 6
REMARK VINA RESULT:      -8.4      2.313      3.779
REMARK  Name = 
REMARK  5 active torsions:
REMARK  status: ('A' for Active; 'I' for Inactive)
REMARK    1  A    between atoms: C_2  and  C_14
REMARK    2  A    between atoms: N_3  and  C_4
REMARK    3  A    between atoms: N_8  and  C_9
REMARK    4  A    between atoms: N_21  and  C_22
REMARK    5  A    between atoms: C_22  and  C_23
REMARK                            x       y       z     vdW  Elec       q    Type
REMARK                         _______ _______ _______ _____ _____    ______ ____
ROOT
ATOM      1  C   UNL     1       1.718   7.777  20.179  0.00  0.00    +0.000 A 
ATOM      2  C   UNL     1       1.595   8.602  19.070  0.00  0.00    +0.000 A 
ATOM      3  N   UNL     1       0.968   9.809  19.072  0.00  0.00    +0.000 NA
ATOM      4  C   UNL     1       0.391  10.112  20.259  0.00  0.00    +0.000 A 
ATOM      5  C   UNL     1       0.485   9.377  21.432  0.00  0.00    +0.000 A 
ATOM      6  C   UNL     1      -0.336  10.044  22.357  0.00  0.00    +0.000 A 
ATOM      7  N   UNL     1      -0.892  11.142  21.847  0.00  0.00    +0.000 NA
ATOM      8  N   UNL     1      -0.414  11.184  20.574  0.00  0.00    +0.000 N 
ATOM      9  C   UNL     1       1.254   8.215  21.427  0.00  0.00    +0.000 A 
ENDROOT
BRANCH   1  11
ATOM     10  O   UNL     1       2.315   5.596  20.973  0.00  0.00    +0.000 OA
ATOM     11  C   UNL     1       2.115   6.357  20.042  0.00  0.00    +0.000 C 
ATOM     12  N   UNL     1       2.328   5.985  18.669  0.00  0.00    +0.000 N 
ATOM     13  H   UNL     1       2.268   6.718  17.976  0.00  0.00    +0.000 HD
BRANCH  12  14
ATOM     14  C   UNL     1       2.637   4.732  18.181  0.00  0.00    +0.000 A 
ATOM     15  C   UNL     1       1.808   3.656  17.959  0.00  0.00    +0.000 A 
ATOM     16  C   UNL     1       2.646   2.659  17.427  0.00  0.00    +0.000 A 
ATOM     17  N   UNL     1       3.912   3.065  17.309  0.00  0.00    +0.000 NA
ATOM     18  N   UNL     1       3.901   4.315  17.808  0.00  0.00    +0.000 N 
BRANCH  18  19
ATOM     19  C   UNL     1       5.133   5.081  17.883  0.00  0.00    +0.000 C 
ATOM     20  C   UNL     1       6.279   4.481  17.068  0.00  0.00    +0.000 C 
ATOM     21  C   UNL     1       7.556   5.059  17.672  0.00  0.00    +0.000 C 
ATOM     22  C   UNL     1       7.186   5.614  19.044  0.00  0.00    +0.000 C 
ATOM     23  C   UNL     1       5.730   5.239  19.284  0.00  0.00    +0.000 C 
ENDBRANCH  18  19
ENDBRANCH  12  14
ENDBRANCH   1  11
BRANCH   8  24
ATOM     24  C   UNL     1      -0.756  12.314  19.724  0.00  0.00    +0.000 C 
BRANCH  24  25
ATOM     25  C   UNL     1      -2.013  12.044  18.939  0.00  0.00    +0.000 A 
ATOM     26  C   UNL     1      -3.275  12.258  19.512  0.00  0.00    +0.000 A 
ATOM     27  C   UNL     1      -4.436  11.931  18.808  0.00  0.00    +0.000 A 
ATOM     28  C   UNL     1      -4.344  11.389  17.527  0.00  0.00    +0.000 A 
ATOM     29  C   UNL     1      -3.094  11.192  16.941  0.00  0.00    +0.000 A 
ATOM     30  C   UNL     1      -1.934  11.520  17.642  0.00  0.00    +0.000 A 
ENDBRANCH  24  25
ENDBRANCH   8  24
TORSDOF 5
ENDMDL
MODEL 7
REMARK VINA RESULT:      -8.3      1.293      2.896
REMARK  Name = 
REMARK  5 active torsions:
REMARK  status: ('A' for Active; 'I' for Inactive)
REMARK    1  A    between atoms: C_2  and  C_14
REMARK    2  A    between atoms: N_3  and  C_4
REMARK    3  A    between atoms: N_8  and  C_9
REMARK    4  A    between atoms: N_21  and  C_22
REMARK    5  A    between atoms: C_22  and  C_23
REMARK                            x       y       z     vdW  Elec       q    Type
REMARK                         _______ _______ _______ _____ _____    ______ ____
ROOT
ATOM      1  C   UNL     1       1.711   9.019  19.513  0.00  0.00    +0.000 A 
ATOM      2  C   UNL     1       1.408  10.335  19.191  0.00  0.00    +0.000 A 
ATOM      3  N   UNL     1       0.788  11.211  20.027  0.00  0.00    +0.000 NA
ATOM      4  C   UNL     1       0.410  10.654  21.203  0.00  0.00    +0.000 A 
ATOM      5  C   UNL     1       0.693   9.367  21.633  0.00  0.00    +0.000 A 
ATOM      6  C   UNL     1       0.032   9.231  22.865  0.00  0.00    +0.000 A 
ATOM      7  N   UNL     1      -0.601  10.345  23.230  0.00  0.00    +0.000 NA
ATOM      8  N   UNL     1      -0.335  11.213  22.217  0.00  0.00    +0.000 N 
ATOM      9  C   UNL     1       1.454   8.543  20.805  0.00  0.00    +0.000 A 
ENDROOT
BRANCH   1  11
ATOM     10  O   UNL     1       2.198   8.294  17.281  0.00  0.00    +0.000 OA
ATOM     11  C   UNL     1       2.083   8.038  18.468  0.00  0.00    +0.000 C 
ATOM     12  N   UNL     1       2.215   6.708  18.997  0.00  0.00    +0.000 N 
ATOM     13  H   UNL     1       1.970   6.569  19.968  0.00  0.00    +0.000 HD
BRANCH  12  14
ATOM     14  C   UNL     1       2.615   5.574  18.320  0.00  0.00    +0.000 A 
ATOM     15  C   UNL     1       1.853   4.533  17.840  0.00  0.00    +0.000 A 
ATOM     16  C   UNL     1       2.772   3.675  17.210  0.00  0.00    +0.000 A 
ATOM     17  N   UNL     1       4.024   4.131  17.273  0.00  0.00    +0.000 NA
ATOM     18  N   UNL     1       3.921   5.268  17.986  0.00  0.00    +0.000 N 
BRANCH  18  19
ATOM     19  C   UNL     1       5.109   6.043  18.300  0.00  0.00    +0.000 C 
ATOM     20  C   UNL     1       5.708   6.763  17.092  0.00  0.00    +0.000 C 
ATOM     21  C   UNL     1       7.161   7.045  17.463  0.00  0.00    +0.000 C 
ATOM     22  C   UNL     1       7.501   6.140  18.644  0.00  0.00    +0.000 C 
ATOM     23  C   UNL     1       6.288   5.247  18.867  0.00  0.00    +0.000 C 
ENDBRANCH  18  19
ENDBRANCH  12  14
ENDBRANCH   1  11
BRANCH   8  24
ATOM     24  C   UNL     1      -0.812  12.584  22.314  0.00  0.00    +0.000 C 
BRANCH  24  25
ATOM     25  C   UNL     1      -2.256  12.688  21.900  0.00  0.00    +0.000 A 
ATOM     26  C   UNL     1      -3.274  12.768  22.862  0.00  0.00    +0.000 A 
ATOM     27  C   UNL     1      -4.614  12.784  22.474  0.00  0.00    +0.000 A 
ATOM     28  C   UNL     1      -4.949  12.723  21.122  0.00  0.00    +0.000 A 
ATOM     29  C   UNL     1      -3.945  12.665  20.157  0.00  0.00    +0.000 A 
ATOM     30  C   UNL     1      -2.604  12.651  20.542  0.00  0.00    +0.000 A 
ENDBRANCH  24  25
ENDBRANCH   8  24
TORSDOF 5
ENDMDL
MODEL 8
REMARK VINA RESULT:      -8.2      1.866      3.412
REMARK  Name = 
REMARK  5 active torsions:
REMARK  status: ('A' for Active; 'I' for Inactive)
REMARK    1  A    between atoms: C_2  and  C_14
REMARK    2  A    between atoms: N_3  and  C_4
REMARK    3  A    between atoms: N_8  and  C_9
REMARK    4  A    between atoms: N_21  and  C_22
REMARK    5  A    between atoms: C_22  and  C_23
REMARK                            x       y       z     vdW  Elec       q    Type
REMARK                         _______ _______ _______ _____ _____    ______ ____
ROOT
ATOM      1  C   UNL     1       1.785   8.190  19.802  0.00  0.00    +0.000 A 
ATOM      2  C   UNL     1       1.335   9.244  19.019  0.00  0.00    +0.000 A 
ATOM      3  N   UNL     1       0.565  10.269  19.474  0.00  0.00    +0.000 NA
ATOM      4  C   UNL     1       0.200  10.132  20.771  0.00  0.00    +0.000 A 
ATOM      5  C   UNL     1       0.623   9.141  21.645  0.00  0.00    +0.000 A 
ATOM      6  C   UNL     1      -0.079   9.374  22.840  0.00  0.00    +0.000 A 
ATOM      7  N   UNL     1      -0.867  10.445  22.769  0.00  0.00    +0.000 NA
ATOM      8  N   UNL     1      -0.662  10.913  21.508  0.00  0.00    +0.000 N 
ATOM      9  C   UNL     1       1.524   8.186  21.179  0.00  0.00    +0.000 A 
ENDROOT
BRANCH   1  11
ATOM     10  O   UNL     1       2.320   6.706  17.998  0.00  0.00    +0.000 OA
ATOM     11  C   UNL     1       2.333   6.957  19.192  0.00  0.00    +0.000 C 
ATOM     12  N   UNL     1       2.814   6.031  20.181  0.00  0.00    +0.000 N 
ATOM     13  H   UNL     1       2.661   6.269  21.151  0.00  0.00    +0.000 HD
BRANCH  12  14
ATOM     14  C   UNL     1       3.445   4.824  19.959  0.00  0.00    +0.000 A 
ATOM     15  C   UNL     1       2.991   3.548  20.202  0.00  0.00    +0.000 A 
ATOM     16  C   UNL     1       4.027   2.706  19.757  0.00  0.00    +0.000 A 
ATOM     17  N   UNL     1       5.061   3.387  19.260  0.00  0.00    +0.000 NA
ATOM     18  N   UNL     1       4.712   4.676  19.425  0.00  0.00    +0.000 N 
BRANCH  18  19
ATOM     19  C   UNL     1       5.623   5.736  19.029  0.00  0.00    +0.000 C 
ATOM     20  C   UNL     1       5.704   5.940  17.515  0.00  0.00    +0.000 C 
ATOM     21  C   UNL     1       7.031   6.653  17.270  0.00  0.00    +0.000 C 
ATOM     22  C   UNL     1       7.873   6.469  18.530  0.00  0.00    +0.000 C 
ATOM     23  C   UNL     1       7.083   5.543  19.446  0.00  0.00    +0.000 C 
ENDBRANCH  18  19
ENDBRANCH  12  14
ENDBRANCH   1  11
BRANCH   8  24
ATOM     24  C   UNL     1      -1.313  12.146  21.093  0.00  0.00    +0.000 C 
BRANCH  24  25
ATOM     25  C   UNL     1      -1.833  12.912  22.281  0.00  0.00    +0.000 A 
ATOM     26  C   UNL     1      -0.994  13.776  23.001  0.00  0.00    +0.000 A 
ATOM     27  C   UNL     1      -1.459  14.422  24.147  0.00  0.00    +0.000 A 
ATOM     28  C   UNL     1      -2.766  14.212  24.583  0.00  0.00    +0.000 A 
ATOM     29  C   UNL     1      -3.615  13.372  23.863  0.00  0.00    +0.000 A 
ATOM     30  C   UNL     1      -3.153  12.727  22.716  0.00  0.00    +0.000 A 
ENDBRANCH  24  25
ENDBRANCH   8  24
TORSDOF 5
ENDMDL
MODEL 9
REMARK VINA RESULT:      -8.1      2.822      4.830
REMARK  Name = 
REMARK  5 active torsions:
REMARK  status: ('A' for Active; 'I' for Inactive)
REMARK    1  A    between atoms: C_2  and  C_14
REMARK    2  A    between atoms: N_3  and  C_4
REMARK    3  A    between atoms: N_8  and  C_9
REMARK    4  A    between atoms: N_21  and  C_22
REMARK    5  A    between atoms: C_22  and  C_23
REMARK                            x       y       z     vdW  Elec       q    Type
REMARK                         _______ _______ _______ _____ _____    ______ ____
ROOT
ATOM      1  C   UNL     1       1.872   7.722  19.774  0.00  0.00    +0.000 A 
ATOM      2  C   UNL     1       1.911   8.409  18.569  0.00  0.00    +0.000 A 
ATOM      3  N   UNL     1       1.400   9.655  18.375  0.00  0.00    +0.000 NA
ATOM      4  C   UNL     1       0.764  10.150  19.463  0.00  0.00    +0.000 A 
ATOM      5  C   UNL     1       0.699   9.562  20.717  0.00  0.00    +0.000 A 
ATOM      6  C   UNL     1      -0.125  10.404  21.482  0.00  0.00    +0.000 A 
ATOM      7  N   UNL     1      -0.537  11.472  20.800  0.00  0.00    +0.000 NA
ATOM      8  N   UNL     1       0.039  11.315  19.578  0.00  0.00    +0.000 N 
ATOM      9  C   UNL     1       1.356   8.349  20.916  0.00  0.00    +0.000 A 
ENDROOT
BRANCH   1  11
ATOM     10  O   UNL     1       2.240   5.622  20.870  0.00  0.00    +0.000 OA
ATOM     11  C   UNL     1       2.146   6.268  19.839  0.00  0.00    +0.000 C 
ATOM     12  N   UNL     1       2.379   5.702  18.538  0.00  0.00    +0.000 N 
ATOM     13  H   UNL     1       2.412   6.340  17.755  0.00  0.00    +0.000 HD
BRANCH  12  14
ATOM     14  C   UNL     1       2.593   4.374  18.230  0.00  0.00    +0.000 A 
ATOM     15  C   UNL     1       1.742   3.301  18.363  0.00  0.00    +0.000 A 
ATOM     16  C   UNL     1       2.467   2.202  17.868  0.00  0.00    +0.000 A 
ATOM     17  N   UNL     1       3.685   2.543  17.442  0.00  0.00    +0.000 NA
ATOM     18  N   UNL     1       3.765   3.861  17.705  0.00  0.00    +0.000 N 
BRANCH  18  19
ATOM     19  C   UNL     1       4.985   4.591  17.409  0.00  0.00    +0.000 C 
ATOM     20  C   UNL     1       5.730   4.067  16.180  0.00  0.00    +0.000 C 
ATOM     21  C   UNL     1       7.169   4.550  16.338  0.00  0.00    +0.000 C 
ATOM     22  C   UNL     1       7.344   4.951  17.800  0.00  0.00    +0.000 C 
ATOM     23  C   UNL     1       6.049   4.577  18.509  0.00  0.00    +0.000 C 
ENDBRANCH  18  19
ENDBRANCH  12  14
ENDBRANCH   1  11
BRANCH   8  24
ATOM     24  C   UNL     1      -0.130  12.355  18.575  0.00  0.00    +0.000 C 
BRANCH  24  25
ATOM     25  C   UNL     1       0.929  13.417  18.708  0.00  0.00    +0.000 A 
ATOM     26  C   UNL     1       0.625  14.667  19.266  0.00  0.00    +0.000 A 
ATOM     27  C   UNL     1       1.589  15.675  19.315  0.00  0.00    +0.000 A 
ATOM     28  C   UNL     1       2.867  15.440  18.808  0.00  0.00    +0.000 A 
ATOM     29  C   UNL     1       3.187  14.194  18.271  0.00  0.00    +0.000 A 
ATOM     30  C   UNL     1       2.224  13.186  18.223  0.00  0.00    +0.000 A 
ENDBRANCH  24  25
ENDBRANCH   8  24
TORSDOF 5
ENDMDL
