MODEL 1
REMARK VINA RESULT:      -8.2      0.000      0.000
REMARK  Name = 
REMARK  5 active torsions:
REMARK  status: ('A' for Active; 'I' for Inactive)
REMARK    1  A    between atoms: C_1  and  C_2
REMARK    2  A    between atoms: C_6  and  N_7
REMARK    3  A    between atoms: C_12  and  C_13
REMARK    4  A    between atoms: C_13  and  C_14
REMARK    5  A    between atoms: C_17  and  C_18
REMARK                            x       y       z     vdW  Elec       q    Type
REMARK                         _______ _______ _______ _____ _____    ______ ____
ROOT
ATOM      1  N   UNL     1       6.014   5.373  15.695  0.00  0.00    +0.000 N 
ATOM      2  C   UNL     1       4.817   6.216  15.888  0.00  0.00    +0.000 C 
ATOM      3  C   UNL     1       4.020   5.406  16.866  0.00  0.00    +0.000 A 
ATOM      4  C   UNL     1       4.360   4.066  16.664  0.00  0.00    +0.000 A 
ATOM      5  C   UNL     1       3.940   3.046  17.501  0.00  0.00    +0.000 A 
ATOM      6  C   UNL     1       3.157   3.391  18.607  0.00  0.00    +0.000 A 
ATOM      7  C   UNL     1       2.825   4.752  18.829  0.00  0.00    +0.000 A 
ATOM      8  C   UNL     1       3.260   5.784  17.968  0.00  0.00    +0.000 A 
ATOM      9  C   UNL     1       5.558   4.031  15.791  0.00  0.00    +0.000 C 
ATOM     10  O   UNL     1       6.105   3.013  15.426  0.00  0.00    +0.000 OA
ENDROOT
BRANCH   1  16
ATOM     11  C   UNL     1       8.203   9.095  18.051  0.00  0.00    +0.000 C 
ATOM     12  C   UNL     1       7.889   7.635  17.936  0.00  0.00    +0.000 A 
ATOM     13  C   UNL     1       8.058   6.784  19.034  0.00  0.00    +0.000 A 
ATOM     14  C   UNL     1       7.845   5.416  18.902  0.00  0.00    +0.000 A 
ATOM     15  C   UNL     1       7.397   4.894  17.693  0.00  0.00    +0.000 A 
ATOM     16  C   UNL     1       7.050   5.757  16.641  0.00  0.00    +0.000 A 
ATOM     17  C   UNL     1       7.400   7.110  16.731  0.00  0.00    +0.000 A 
ENDBRANCH   1  16
BRANCH   8  18
ATOM     18  C   UNL     1       3.006   7.219  18.360  0.00  0.00    +0.000 C 
ATOM     19  F   UNL     1       4.035   8.066  18.097  0.00  0.00    +0.000 F 
ATOM     20  F   UNL     1       1.928   7.742  17.711  0.00  0.00    +0.000 F 
ATOM     21  F   UNL     1       2.741   7.358  19.690  0.00  0.00    +0.000 F 
ENDBRANCH   8  18
BRANCH   6  22
ATOM     22  C   UNL     1       2.803   2.351  19.643  0.00  0.00    +0.000 C 
BRANCH  22  23
ATOM     23  C   UNL     1       2.208   2.915  20.912  0.00  0.00    +0.000 C 
ATOM     24  O   UNL     1       2.613   2.699  22.050  0.00  0.00    +0.000 OA
ENDBRANCH  22  23
ENDBRANCH   6  22
TORSDOF 4
ENDMDL
MODEL 2
REMARK VINA RESULT:      -7.9      0.937      1.242
REMARK  Name = 
REMARK  5 active torsions:
REMARK  status: ('A' for Active; 'I' for Inactive)
REMARK    1  A    between atoms: C_1  and  C_2
REMARK    2  A    between atoms: C_6  and  N_7
REMARK    3  A    between atoms: C_12  and  C_13
REMARK    4  A    between atoms: C_13  and  C_14
REMARK    5  A    between atoms: C_17  and  C_18
REMARK                            x       y       z     vdW  Elec       q    Type
REMARK                         _______ _______ _______ _____ _____    ______ ____
ROOT
ATOM      1  N   UNL     1       6.094   5.455  15.669  0.00  0.00    +0.000 N 
ATOM      2  C   UNL     1       4.918   6.336  15.820  0.00  0.00    +0.000 C 
ATOM      3  C   UNL     1       4.059   5.551  16.765  0.00  0.00    +0.000 A 
ATOM      4  C   UNL     1       4.363   4.201  16.571  0.00  0.00    +0.000 A 
ATOM      5  C   UNL     1       3.879   3.193  17.389  0.00  0.00    +0.000 A 
ATOM      6  C   UNL     1       3.066   3.562  18.466  0.00  0.00    +0.000 A 
ATOM      7  C   UNL     1       2.770   4.932  18.679  0.00  0.00    +0.000 A 
ATOM      8  C   UNL     1       3.271   5.951  17.838  0.00  0.00    +0.000 A 
ATOM      9  C   UNL     1       5.591   4.128  15.743  0.00  0.00    +0.000 C 
ATOM     10  O   UNL     1       6.119   3.094  15.396  0.00  0.00    +0.000 OA
ENDROOT
BRANCH   1  16
ATOM     11  C   UNL     1       8.275   9.095  18.158  0.00  0.00    +0.000 C 
ATOM     12  C   UNL     1       7.937   7.643  18.008  0.00  0.00    +0.000 A 
ATOM     13  C   UNL     1       8.054   6.772  19.096  0.00  0.00    +0.000 A 
ATOM     14  C   UNL     1       7.820   5.410  18.935  0.00  0.00    +0.000 A 
ATOM     15  C   UNL     1       7.401   4.916  17.703  0.00  0.00    +0.000 A 
ATOM     16  C   UNL     1       7.106   5.803  16.655  0.00  0.00    +0.000 A 
ATOM     17  C   UNL     1       7.478   7.148  16.779  0.00  0.00    +0.000 A 
ENDBRANCH   1  16
BRANCH   8  18
ATOM     18  C   UNL     1       3.050   7.393  18.225  0.00  0.00    +0.000 C 
ATOM     19  F   UNL     1       2.650   7.578  19.510  0.00  0.00    +0.000 F 
ATOM     20  F   UNL     1       4.182   8.138  18.084  0.00  0.00    +0.000 F 
ATOM     21  F   UNL     1       2.108   8.003  17.451  0.00  0.00    +0.000 F 
ENDBRANCH   8  18
BRANCH   6  22
ATOM     22  C   UNL     1       2.640   2.531  19.484  0.00  0.00    +0.000 C 
BRANCH  22  23
ATOM     23  C   UNL     1       1.161   2.223  19.473  0.00  0.00    +0.000 C 
ATOM     24  O   UNL     1       0.415   2.328  18.504  0.00  0.00    +0.000 OA
ENDBRANCH  22  23
ENDBRANCH   6  22
TORSDOF 4
ENDMDL
MODEL 3
REMARK VINA RESULT:      -7.9      0.706      1.031
REMARK  Name = 
REMARK  5 active torsions:
REMARK  status: ('A' for Active; 'I' for Inactive)
REMARK    1  A    between atoms: C_1  and  C_2
REMARK    2  A    between atoms: C_6  and  N_7
REMARK    3  A    between atoms: C_12  and  C_13
REMARK    4  A    between atoms: C_13  and  C_14
REMARK    5  A    between atoms: C_17  and  C_18
REMARK                            x       y       z     vdW  Elec       q    Type
REMARK                         _______ _______ _______ _____ _____    ______ ____
ROOT
ATOM      1  N   UNL     1       6.134   5.471  15.642  0.00  0.00    +0.000 N 
ATOM      2  C   UNL     1       4.950   6.343  15.785  0.00  0.00    +0.000 C 
ATOM      3  C   UNL     1       4.097   5.557  16.733  0.00  0.00    +0.000 A 
ATOM      4  C   UNL     1       4.412   4.208  16.549  0.00  0.00    +0.000 A 
ATOM      5  C   UNL     1       3.935   3.201  17.372  0.00  0.00    +0.000 A 
ATOM      6  C   UNL     1       3.117   3.570  18.444  0.00  0.00    +0.000 A 
ATOM      7  C   UNL     1       2.809   4.939  18.649  0.00  0.00    +0.000 A 
ATOM      8  C   UNL     1       3.302   5.957  17.803  0.00  0.00    +0.000 A 
ATOM      9  C   UNL     1       5.642   4.141  15.724  0.00  0.00    +0.000 C 
ATOM     10  O   UNL     1       6.179   3.109  15.384  0.00  0.00    +0.000 OA
ENDROOT
BRANCH   1  16
ATOM     11  C   UNL     1       8.266   9.143  18.126  0.00  0.00    +0.000 C 
ATOM     12  C   UNL     1       7.947   7.687  17.978  0.00  0.00    +0.000 A 
ATOM     13  C   UNL     1       8.075   6.819  19.068  0.00  0.00    +0.000 A 
ATOM     14  C   UNL     1       7.859   5.454  18.908  0.00  0.00    +0.000 A 
ATOM     15  C   UNL     1       7.448   4.953  17.677  0.00  0.00    +0.000 A 
ATOM     16  C   UNL     1       7.141   5.834  16.628  0.00  0.00    +0.000 A 
ATOM     17  C   UNL     1       7.495   7.184  16.750  0.00  0.00    +0.000 A 
ENDBRANCH   1  16
BRANCH   8  18
ATOM     18  C   UNL     1       3.068   7.399  18.180  0.00  0.00    +0.000 C 
ATOM     19  F   UNL     1       2.097   8.020  17.462  0.00  0.00    +0.000 F 
ATOM     20  F   UNL     1       2.698   7.531  19.485  0.00  0.00    +0.000 F 
ATOM     21  F   UNL     1       4.186   8.165  18.034  0.00  0.00    +0.000 F 
ENDBRANCH   8  18
BRANCH   6  22
ATOM     22  C   UNL     1       2.697   2.542  19.469  0.00  0.00    +0.000 C 
BRANCH  22  23
ATOM     23  C   UNL     1       3.729   2.277  20.540  0.00  0.00    +0.000 C 
ATOM     24  O   UNL     1       4.932   2.123  20.353  0.00  0.00    +0.000 OA
ENDBRANCH  22  23
ENDBRANCH   6  22
TORSDOF 4
ENDMDL
MODEL 4
REMARK VINA RESULT:      -7.9      2.387      5.379
REMARK  Name = 
REMARK  5 active torsions:
REMARK  status: ('A' for Active; 'I' for Inactive)
REMARK    1  A    between atoms: C_1  and  C_2
REMARK    2  A    between atoms: C_6  and  N_7
REMARK    3  A    between atoms: C_12  and  C_13
REMARK    4  A    between atoms: C_13  and  C_14
REMARK    5  A    between atoms: C_17  and  C_18
REMARK                            x       y       z     vdW  Elec       q    Type
REMARK                         _______ _______ _______ _____ _____    ______ ____
ROOT
ATOM      1  N   UNL     1       4.206   4.560  19.073  0.00  0.00    +0.000 N 
ATOM      2  C   UNL     1       5.559   5.127  19.245  0.00  0.00    +0.000 C 
ATOM      3  C   UNL     1       6.118   5.027  17.858  0.00  0.00    +0.000 A 
ATOM      4  C   UNL     1       5.484   3.949  17.236  0.00  0.00    +0.000 A 
ATOM      5  C   UNL     1       5.632   3.660  15.889  0.00  0.00    +0.000 A 
ATOM      6  C   UNL     1       6.440   4.509  15.126  0.00  0.00    +0.000 A 
ATOM      7  C   UNL     1       7.071   5.616  15.747  0.00  0.00    +0.000 A 
ATOM      8  C   UNL     1       6.912   5.901  17.122  0.00  0.00    +0.000 A 
ATOM      9  C   UNL     1       4.337   3.548  18.086  0.00  0.00    +0.000 C 
ATOM     10  O   UNL     1       3.580   2.638  17.824  0.00  0.00    +0.000 OA
ENDROOT
BRANCH   1  16
ATOM     11  C   UNL     1       1.297   8.078  20.908  0.00  0.00    +0.000 C 
ATOM     12  C   UNL     1       2.055   7.486  19.759  0.00  0.00    +0.000 A 
ATOM     13  C   UNL     1       2.346   8.257  18.628  0.00  0.00    +0.000 A 
ATOM     14  C   UNL     1       2.976   7.683  17.529  0.00  0.00    +0.000 A 
ATOM     15  C   UNL     1       3.381   6.352  17.575  0.00  0.00    +0.000 A 
ATOM     16  C   UNL     1       3.258   5.622  18.767  0.00  0.00    +0.000 A 
ATOM     17  C   UNL     1       2.499   6.158  19.816  0.00  0.00    +0.000 A 
ENDBRANCH   1  16
BRANCH   8  18
ATOM     18  C   UNL     1       7.477   7.186  17.673  0.00  0.00    +0.000 C 
ATOM     19  F   UNL     1       8.208   7.041  18.809  0.00  0.00    +0.000 F 
ATOM     20  F   UNL     1       8.306   7.802  16.783  0.00  0.00    +0.000 F 
ATOM     21  F   UNL     1       6.509   8.099  17.968  0.00  0.00    +0.000 F 
ENDBRANCH   8  18
BRANCH   6  22
ATOM     22  C   UNL     1       6.513   4.344  13.627  0.00  0.00    +0.000 C 
BRANCH  22  23
ATOM     23  C   UNL     1       5.368   3.557  13.032  0.00  0.00    +0.000 C 
ATOM     24  O   UNL     1       5.328   3.101  11.893  0.00  0.00    +0.000 OA
ENDBRANCH  22  23
ENDBRANCH   6  22
TORSDOF 4
ENDMDL
MODEL 5
REMARK VINA RESULT:      -7.8      2.453      5.491
REMARK  Name = 
REMARK  5 active torsions:
REMARK  status: ('A' for Active; 'I' for Inactive)
REMARK    1  A    between atoms: C_1  and  C_2
REMARK    2  A    between atoms: C_6  and  N_7
REMARK    3  A    between atoms: C_12  and  C_13
REMARK    4  A    between atoms: C_13  and  C_14
REMARK    5  A    between atoms: C_17  and  C_18
REMARK                            x       y       z     vdW  Elec       q    Type
REMARK                         _______ _______ _______ _____ _____    ______ ____
ROOT
ATOM      1  N   UNL     1       4.026   4.660  19.318  0.00  0.00    +0.000 N 
ATOM      2  C   UNL     1       5.406   5.186  19.373  0.00  0.00    +0.000 C 
ATOM      3  C   UNL     1       5.876   4.974  17.965  0.00  0.00    +0.000 A 
ATOM      4  C   UNL     1       5.170   3.881  17.456  0.00  0.00    +0.000 A 
ATOM      5  C   UNL     1       5.227   3.498  16.126  0.00  0.00    +0.000 A 
ATOM      6  C   UNL     1       6.016   4.263  15.262  0.00  0.00    +0.000 A 
ATOM      7  C   UNL     1       6.720   5.385  15.768  0.00  0.00    +0.000 A 
ATOM      8  C   UNL     1       6.653   5.766  17.127  0.00  0.00    +0.000 A 
ATOM      9  C   UNL     1       4.064   3.580  18.397  0.00  0.00    +0.000 C 
ATOM     10  O   UNL     1       3.263   2.684  18.242  0.00  0.00    +0.000 OA
ENDROOT
BRANCH   1  16
ATOM     11  C   UNL     1       1.153   8.235  21.099  0.00  0.00    +0.000 C 
ATOM     12  C   UNL     1       1.913   7.623  19.962  0.00  0.00    +0.000 A 
ATOM     13  C   UNL     1       2.227   8.381  18.829  0.00  0.00    +0.000 A 
ATOM     14  C   UNL     1       2.859   7.790  17.740  0.00  0.00    +0.000 A 
ATOM     15  C   UNL     1       3.244   6.454  17.799  0.00  0.00    +0.000 A 
ATOM     16  C   UNL     1       3.098   5.734  18.995  0.00  0.00    +0.000 A 
ATOM     17  C   UNL     1       2.336   6.288  20.032  0.00  0.00    +0.000 A 
ENDBRANCH   1  16
BRANCH   8  18
ATOM     18  C   UNL     1       7.294   7.063  17.555  0.00  0.00    +0.000 C 
ATOM     19  F   UNL     1       8.158   7.592  16.651  0.00  0.00    +0.000 F 
ATOM     20  F   UNL     1       6.368   8.037  17.787  0.00  0.00    +0.000 F 
ATOM     21  F   UNL     1       7.998   6.940  18.715  0.00  0.00    +0.000 F 
ENDBRANCH   8  18
BRANCH   6  22
ATOM     22  C   UNL     1       5.993   3.996  13.775  0.00  0.00    +0.000 C 
BRANCH  22  23
ATOM     23  C   UNL     1       7.110   4.664  13.007  0.00  0.00    +0.000 C 
ATOM     24  O   UNL     1       7.445   4.399  11.857  0.00  0.00    +0.000 OA
ENDBRANCH  22  23
ENDBRANCH   6  22
TORSDOF 4
ENDMDL
MODEL 6
REMARK VINA RESULT:      -7.5      2.660      5.480
REMARK  Name = 
REMARK  5 active torsions:
REMARK  status: ('A' for Active; 'I' for Inactive)
REMARK    1  A    between atoms: C_1  and  C_2
REMARK    2  A    between atoms: C_6  and  N_7
REMARK    3  A    between atoms: C_12  and  C_13
REMARK    4  A    between atoms: C_13  and  C_14
REMARK    5  A    between atoms: C_17  and  C_18
REMARK                            x       y       z     vdW  Elec       q    Type
REMARK                         _______ _______ _______ _____ _____    ______ ____
ROOT
ATOM      1  N   UNL     1       3.229   3.983  18.716  0.00  0.00    +0.000 N 
ATOM      2  C   UNL     1       4.591   4.049  19.284  0.00  0.00    +0.000 C 
ATOM      3  C   UNL     1       5.438   4.155  18.052  0.00  0.00    +0.000 A 
ATOM      4  C   UNL     1       4.743   3.522  17.019  0.00  0.00    +0.000 A 
ATOM      5  C   UNL     1       5.149   3.568  15.696  0.00  0.00    +0.000 A 
ATOM      6  C   UNL     1       6.299   4.303  15.393  0.00  0.00    +0.000 A 
ATOM      7  C   UNL     1       6.999   4.964  16.435  0.00  0.00    +0.000 A 
ATOM      8  C   UNL     1       6.574   4.910  17.781  0.00  0.00    +0.000 A 
ATOM      9  C   UNL     1       3.359   3.276  17.491  0.00  0.00    +0.000 C 
ATOM     10  O   UNL     1       2.498   2.740  16.828  0.00  0.00    +0.000 OA
ENDROOT
BRANCH   1  16
ATOM     11  C   UNL     1       1.394   7.825  21.181  0.00  0.00    +0.000 C 
ATOM     12  C   UNL     1       2.015   7.250  19.944  0.00  0.00    +0.000 A 
ATOM     13  C   UNL     1       2.601   8.088  18.990  0.00  0.00    +0.000 A 
ATOM     14  C   UNL     1       3.103   7.561  17.804  0.00  0.00    +0.000 A 
ATOM     15  C   UNL     1       3.085   6.186  17.592  0.00  0.00    +0.000 A 
ATOM     16  C   UNL     1       2.667   5.322  18.617  0.00  0.00    +0.000 A 
ATOM     17  C   UNL     1       2.034   5.863  19.743  0.00  0.00    +0.000 A 
ENDBRANCH   1  16
BRANCH   8  18
ATOM     18  C   UNL     1       7.273   5.772  18.804  0.00  0.00    +0.000 C 
ATOM     19  F   UNL     1       6.551   6.009  19.930  0.00  0.00    +0.000 F 
ATOM     20  F   UNL     1       8.441   5.213  19.230  0.00  0.00    +0.000 F 
ATOM     21  F   UNL     1       7.608   6.998  18.312  0.00  0.00    +0.000 F 
ENDBRANCH   8  18
BRANCH   6  22
ATOM     22  C   UNL     1       6.703   4.526  13.955  0.00  0.00    +0.000 C 
BRANCH  22  23
ATOM     23  C   UNL     1       5.969   3.654  12.962  0.00  0.00    +0.000 C 
ATOM     24  O   UNL     1       6.486   3.021  12.047  0.00  0.00    +0.000 OA
ENDBRANCH  22  23
ENDBRANCH   6  22
TORSDOF 4
ENDMDL
MODEL 7
REMARK VINA RESULT:      -7.1      2.934      4.535
REMARK  Name = 
REMARK  5 active torsions:
REMARK  status: ('A' for Active; 'I' for Inactive)
REMARK    1  A    between atoms: C_1  and  C_2
REMARK    2  A    between atoms: C_6  and  N_7
REMARK    3  A    between atoms: C_12  and  C_13
REMARK    4  A    between atoms: C_13  and  C_14
REMARK    5  A    between atoms: C_17  and  C_18
REMARK                            x       y       z     vdW  Elec       q    Type
REMARK                         _______ _______ _______ _____ _____    ______ ____
ROOT
ATOM      1  N   UNL     1       6.519   5.109  16.760  0.00  0.00    +0.000 N 
ATOM      2  C   UNL     1       5.609   4.254  17.551  0.00  0.00    +0.000 C 
ATOM      3  C   UNL     1       4.466   5.184  17.823  0.00  0.00    +0.000 A 
ATOM      4  C   UNL     1       4.983   6.482  17.827  0.00  0.00    +0.000 A 
ATOM      5  C   UNL     1       4.185   7.613  17.885  0.00  0.00    +0.000 A 
ATOM      6  C   UNL     1       2.799   7.431  17.919  0.00  0.00    +0.000 A 
ATOM      7  C   UNL     1       2.267   6.117  17.895  0.00  0.00    +0.000 A 
ATOM      8  C   UNL     1       3.091   4.971  17.836  0.00  0.00    +0.000 A 
ATOM      9  C   UNL     1       6.360   6.421  17.280  0.00  0.00    +0.000 C 
ATOM     10  O   UNL     1       7.085   7.384  17.149  0.00  0.00    +0.000 OA
ENDROOT
BRANCH   1  16
ATOM     11  C   UNL     1       8.240   5.652  12.184  0.00  0.00    +0.000 C 
ATOM     12  C   UNL     1       7.277   5.025  13.145  0.00  0.00    +0.000 A 
ATOM     13  C   UNL     1       6.565   3.875  12.786  0.00  0.00    +0.000 A 
ATOM     14  C   UNL     1       5.610   3.342  13.646  0.00  0.00    +0.000 A 
ATOM     15  C   UNL     1       5.406   3.912  14.898  0.00  0.00    +0.000 A 
ATOM     16  C   UNL     1       6.239   4.952  15.341  0.00  0.00    +0.000 A 
ATOM     17  C   UNL     1       7.095   5.573  14.422  0.00  0.00    +0.000 A 
ENDBRANCH   1  16
BRANCH   8  18
ATOM     18  C   UNL     1       2.450   3.618  17.646  0.00  0.00    +0.000 C 
ATOM     19  F   UNL     1       2.649   3.066  16.421  0.00  0.00    +0.000 F 
ATOM     20  F   UNL     1       2.920   2.702  18.540  0.00  0.00    +0.000 F 
ATOM     21  F   UNL     1       1.099   3.651  17.825  0.00  0.00    +0.000 F 
ENDBRANCH   8  18
BRANCH   6  22
ATOM     22  C   UNL     1       1.874   8.621  17.820  0.00  0.00    +0.000 C 
BRANCH  22  23
ATOM     23  C   UNL     1       1.442   9.184  19.154  0.00  0.00    +0.000 C 
ATOM     24  O   UNL     1       1.397   8.563  20.211  0.00  0.00    +0.000 OA
ENDBRANCH  22  23
ENDBRANCH   6  22
TORSDOF 4
ENDMDL
MODEL 8
REMARK VINA RESULT:      -7.0      2.571      5.466
REMARK  Name = 
REMARK  5 active torsions:
REMARK  status: ('A' for Active; 'I' for Inactive)
REMARK    1  A    between atoms: C_1  and  C_2
REMARK    2  A    between atoms: C_6  and  N_7
REMARK    3  A    between atoms: C_12  and  C_13
REMARK    4  A    between atoms: C_13  and  C_14
REMARK    5  A    between atoms: C_17  and  C_18
REMARK                            x       y       z     vdW  Elec       q    Type
REMARK                         _______ _______ _______ _____ _____    ______ ____
ROOT
ATOM      1  N   UNL     1       2.920   4.036  19.135  0.00  0.00    +0.000 N 
ATOM      2  C   UNL     1       4.335   4.158  19.540  0.00  0.00    +0.000 C 
ATOM      3  C   UNL     1       5.039   4.157  18.217  0.00  0.00    +0.000 A 
ATOM      4  C   UNL     1       4.243   3.431  17.328  0.00  0.00    +0.000 A 
ATOM      5  C   UNL     1       4.501   3.360  15.969  0.00  0.00    +0.000 A 
ATOM      6  C   UNL     1       5.600   4.070  15.477  0.00  0.00    +0.000 A 
ATOM      7  C   UNL     1       6.402   4.824  16.371  0.00  0.00    +0.000 A 
ATOM      8  C   UNL     1       6.128   4.889  17.756  0.00  0.00    +0.000 A 
ATOM      9  C   UNL     1       2.923   3.223  17.970  0.00  0.00    +0.000 C 
ATOM     10  O   UNL     1       2.002   2.626  17.457  0.00  0.00    +0.000 OA
ENDROOT
BRANCH   1  16
ATOM     11  C   UNL     1       1.536   8.172  21.412  0.00  0.00    +0.000 C 
ATOM     12  C   UNL     1       1.918   7.442  20.160  0.00  0.00    +0.000 A 
ATOM     13  C   UNL     1       2.301   8.150  19.016  0.00  0.00    +0.000 A 
ATOM     14  C   UNL     1       2.576   7.475  17.831  0.00  0.00    +0.000 A 
ATOM     15  C   UNL     1       2.536   6.085  17.796  0.00  0.00    +0.000 A 
ATOM     16  C   UNL     1       2.332   5.358  18.980  0.00  0.00    +0.000 A 
ATOM     17  C   UNL     1       1.917   6.041  20.131  0.00  0.00    +0.000 A 
ENDBRANCH   1  16
BRANCH   8  18
ATOM     18  C   UNL     1       6.923   5.842  18.614  0.00  0.00    +0.000 C 
ATOM     19  F   UNL     1       8.270   5.751  18.461  0.00  0.00    +0.000 F 
ATOM     20  F   UNL     1       6.613   7.143  18.353  0.00  0.00    +0.000 F 
ATOM     21  F   UNL     1       6.688   5.666  19.945  0.00  0.00    +0.000 F 
ENDBRANCH   8  18
BRANCH   6  22
ATOM     22  C   UNL     1       5.840   4.164  13.988  0.00  0.00    +0.000 C 
BRANCH  22  23
ATOM     23  C   UNL     1       7.196   4.715  13.611  0.00  0.00    +0.000 C 
ATOM     24  O   UNL     1       7.590   4.924  12.468  0.00  0.00    +0.000 OA
ENDBRANCH  22  23
ENDBRANCH   6  22
TORSDOF 4
ENDMDL
MODEL 9
REMARK VINA RESULT:      -6.8      2.830      5.605
REMARK  Name = 
REMARK  5 active torsions:
REMARK  status: ('A' for Active; 'I' for Inactive)
REMARK    1  A    between atoms: C_1  and  C_2
REMARK    2  A    between atoms: C_6  and  N_7
REMARK    3  A    between atoms: C_12  and  C_13
REMARK    4  A    between atoms: C_13  and  C_14
REMARK    5  A    between atoms: C_17  and  C_18
REMARK                            x       y       z     vdW  Elec       q    Type
REMARK                         _______ _______ _______ _____ _____    ______ ____
ROOT
ATOM      1  N   UNL     1       3.545   4.126  19.420  0.00  0.00    +0.000 N 
ATOM      2  C   UNL     1       4.989   3.941  19.669  0.00  0.00    +0.000 C 
ATOM      3  C   UNL     1       5.576   4.215  18.317  0.00  0.00    +0.000 A 
ATOM      4  C   UNL     1       4.605   3.879  17.371  0.00  0.00    +0.000 A 
ATOM      5  C   UNL     1       4.738   4.157  16.020  0.00  0.00    +0.000 A 
ATOM      6  C   UNL     1       5.895   4.824  15.604  0.00  0.00    +0.000 A 
ATOM      7  C   UNL     1       6.876   5.185  16.562  0.00  0.00    +0.000 A 
ATOM      8  C   UNL     1       6.728   4.896  17.937  0.00  0.00    +0.000 A 
ATOM      9  C   UNL     1       3.325   3.677  18.090  0.00  0.00    +0.000 C 
ATOM     10  O   UNL     1       2.281   3.375  17.553  0.00  0.00    +0.000 OA
ENDROOT
BRANCH   1  16
ATOM     11  C   UNL     1       2.511   8.527  17.478  0.00  0.00    +0.000 C 
ATOM     12  C   UNL     1       2.433   7.558  18.618  0.00  0.00    +0.000 A 
ATOM     13  C   UNL     1       1.499   7.743  19.643  0.00  0.00    +0.000 A 
ATOM     14  C   UNL     1       1.483   6.891  20.742  0.00  0.00    +0.000 A 
ATOM     15  C   UNL     1       2.353   5.806  20.795  0.00  0.00    +0.000 A 
ATOM     16  C   UNL     1       3.167   5.504  19.692  0.00  0.00    +0.000 A 
ATOM     17  C   UNL     1       3.281   6.442  18.657  0.00  0.00    +0.000 A 
ENDBRANCH   1  16
BRANCH   8  18
ATOM     18  C   UNL     1       7.732   5.457  18.914  0.00  0.00    +0.000 C 
ATOM     19  F   UNL     1       8.221   6.680  18.582  0.00  0.00    +0.000 F 
ATOM     20  F   UNL     1       7.203   5.603  20.162  0.00  0.00    +0.000 F 
ATOM     21  F   UNL     1       8.820   4.650  19.066  0.00  0.00    +0.000 F 
ENDBRANCH   8  18
BRANCH   6  22
ATOM     22  C   UNL     1       6.027   5.297  14.176  0.00  0.00    +0.000 C 
BRANCH  22  23
ATOM     23  C   UNL     1       7.339   4.935  13.520  0.00  0.00    +0.000 C 
ATOM     24  O   UNL     1       8.097   5.719  12.955  0.00  0.00    +0.000 OA
ENDBRANCH  22  23
ENDBRANCH   6  22
TORSDOF 4
ENDMDL
