MODEL 1
REMARK VINA RESULT:      -7.8      0.000      0.000
REMARK  Name = 
REMARK  5 active torsions:
REMARK  status: ('A' for Active; 'I' for Inactive)
REMARK    1  A    between atoms: C_1  and  C_2
REMARK    2  A    between atoms: C_5  and  C_6
REMARK    3  A    between atoms: C_15  and  O_16
REMARK    4  A    between atoms: C_17  and  N_18
REMARK    5  A    between atoms: C_19  and  C_21
REMARK                            x       y       z     vdW  Elec       q    Type
REMARK                         _______ _______ _______ _____ _____    ______ ____
ROOT
ATOM      1  C   UNL     1       4.967   2.982  11.957  0.00  0.00    +0.000 C 
ATOM      2  C   UNL     1       5.455   3.721  13.167  0.00  0.00    +0.000 A 
ATOM      3  C   UNL     1       6.741   4.255  13.194  0.00  0.00    +0.000 A 
ATOM      4  C   UNL     1       7.212   4.894  14.341  0.00  0.00    +0.000 A 
ATOM      5  C   UNL     1       6.415   5.054  15.496  0.00  0.00    +0.000 A 
ATOM      6  C   UNL     1       5.101   4.517  15.453  0.00  0.00    +0.000 A 
ATOM      7  C   UNL     1       4.639   3.860  14.297  0.00  0.00    +0.000 A 
ENDROOT
BRANCH   5   8
ATOM      8  C   UNL     1       6.914   5.869  16.635  0.00  0.00    +0.000 A 
ATOM      9  N   UNL     1       6.938   7.223  16.455  0.00  0.00    +0.000 NA
ATOM     10  C   UNL     1       7.553   7.964  17.403  0.00  0.00    +0.000 A 
ATOM     11  C   UNL     1       7.692   9.336  17.231  0.00  0.00    +0.000 A 
ATOM     12  C   UNL     1       8.437  10.111  18.121  0.00  0.00    +0.000 A 
ATOM     13  C   UNL     1       9.017   9.513  19.232  0.00  0.00    +0.000 A 
ATOM     14  C   UNL     1       8.828   8.150  19.455  0.00  0.00    +0.000 A 
ATOM     15  C   UNL     1       8.121   7.367  18.557  0.00  0.00    +0.000 A 
ATOM     16  N   UNL     1       8.037   6.048  18.779  0.00  0.00    +0.000 NA
ATOM     17  C   UNL     1       7.452   5.328  17.805  0.00  0.00    +0.000 A 
BRANCH  17  18
ATOM     18  O   UNL     1       7.520   4.001  18.067  0.00  0.00    +0.000 OA
ATOM     19  H   UNL     1       8.193   4.001  18.772  0.00  0.00    +0.000 HD
ENDBRANCH  17  18
ENDBRANCH   5   8
BRANCH   6  20
ATOM     20  N   UNL     1       4.268   4.619  16.598  0.00  0.00    +0.000 N 
ATOM     21  C   UNL     1       3.950   3.589  17.462  0.00  0.00    +0.000 C 
ATOM     22  O   UNL     1       4.323   2.423  17.326  0.00  0.00    +0.000 OA
ATOM     23  H   UNL     1       3.700   5.469  16.632  0.00  0.00    +0.000 HD
BRANCH  21  24
ATOM     24  C   UNL     1       3.008   3.898  18.581  0.00  0.00    +0.000 A 
ATOM     25  C   UNL     1       1.754   3.258  18.614  0.00  0.00    +0.000 A 
ATOM     26  C   UNL     1       0.838   3.533  19.634  0.00  0.00    +0.000 A 
ATOM     27  C   UNL     1       1.157   4.450  20.637  0.00  0.00    +0.000 A 
ATOM     28  C   UNL     1       2.401   5.081  20.617  0.00  0.00    +0.000 A 
ATOM     29  C   UNL     1       3.313   4.797  19.602  0.00  0.00    +0.000 A 
ATOM     30  F   UNL     1       4.508   5.408  19.649  0.00  0.00    +0.000 F 
ENDBRANCH  21  24
ENDBRANCH   6  20
TORSDOF 4
ENDMDL
MODEL 2
REMARK VINA RESULT:      -7.7      0.914      1.251
REMARK  Name = 
REMARK  5 active torsions:
REMARK  status: ('A' for Active; 'I' for Inactive)
REMARK    1  A    between atoms: C_1  and  C_2
REMARK    2  A    between atoms: C_5  and  C_6
REMARK    3  A    between atoms: C_15  and  O_16
REMARK    4  A    between atoms: C_17  and  N_18
REMARK    5  A    between atoms: C_19  and  C_21
REMARK                            x       y       z     vdW  Elec       q    Type
REMARK                         _______ _______ _______ _____ _____    ______ ____
ROOT
ATOM      1  C   UNL     1       5.284   3.085  12.065  0.00  0.00    +0.000 C 
ATOM      2  C   UNL     1       5.733   3.848  13.275  0.00  0.00    +0.000 A 
ATOM      3  C   UNL     1       7.028   4.358  13.345  0.00  0.00    +0.000 A 
ATOM      4  C   UNL     1       7.460   5.019  14.494  0.00  0.00    +0.000 A 
ATOM      5  C   UNL     1       6.616   5.228  15.607  0.00  0.00    +0.000 A 
ATOM      6  C   UNL     1       5.295   4.715  15.520  0.00  0.00    +0.000 A 
ATOM      7  C   UNL     1       4.871   4.035  14.363  0.00  0.00    +0.000 A 
ENDROOT
BRANCH   5   8
ATOM      8  C   UNL     1       7.082   6.065  16.744  0.00  0.00    +0.000 A 
ATOM      9  N   UNL     1       7.087   7.417  16.547  0.00  0.00    +0.000 NA
ATOM     10  C   UNL     1       7.673   8.179  17.497  0.00  0.00    +0.000 A 
ATOM     11  C   UNL     1       7.793   9.551  17.310  0.00  0.00    +0.000 A 
ATOM     12  C   UNL     1       8.509  10.349  18.202  0.00  0.00    +0.000 A 
ATOM     13  C   UNL     1       9.078   9.774  19.332  0.00  0.00    +0.000 A 
ATOM     14  C   UNL     1       8.907   8.412  19.569  0.00  0.00    +0.000 A 
ATOM     15  C   UNL     1       8.228   7.606  18.668  0.00  0.00    +0.000 A 
ATOM     16  N   UNL     1       8.161   6.289  18.906  0.00  0.00    +0.000 NA
ATOM     17  C   UNL     1       7.606   5.548  17.931  0.00  0.00    +0.000 A 
BRANCH  17  18
ATOM     18  O   UNL     1       7.690   4.225  18.211  0.00  0.00    +0.000 OA
ATOM     19  H   UNL     1       8.311   3.943  17.516  0.00  0.00    +0.000 HD
ENDBRANCH  17  18
ENDBRANCH   5   8
BRANCH   6  20
ATOM     20  N   UNL     1       4.414   4.866  16.623  0.00  0.00    +0.000 N 
ATOM     21  C   UNL     1       4.004   3.858  17.475  0.00  0.00    +0.000 C 
ATOM     22  O   UNL     1       4.324   2.674  17.361  0.00  0.00    +0.000 OA
ATOM     23  H   UNL     1       3.890   5.743  16.628  0.00  0.00    +0.000 HD
BRANCH  21  24
ATOM     24  C   UNL     1       3.027   4.220  18.546  0.00  0.00    +0.000 A 
ATOM     25  C   UNL     1       3.100   5.498  19.134  0.00  0.00    +0.000 A 
ATOM     26  C   UNL     1       2.216   5.868  20.151  0.00  0.00    +0.000 A 
ATOM     27  C   UNL     1       1.245   4.971  20.599  0.00  0.00    +0.000 A 
ATOM     28  C   UNL     1       1.158   3.708  20.016  0.00  0.00    +0.000 A 
ATOM     29  C   UNL     1       2.038   3.346  18.997  0.00  0.00    +0.000 A 
ATOM     30  F   UNL     1       1.890   2.130  18.448  0.00  0.00    +0.000 F 
ENDBRANCH  21  24
ENDBRANCH   6  20
TORSDOF 4
ENDMDL
MODEL 3
REMARK VINA RESULT:      -7.5      3.104      5.855
REMARK  Name = 
REMARK  5 active torsions:
REMARK  status: ('A' for Active; 'I' for Inactive)
REMARK    1  A    between atoms: C_1  and  C_2
REMARK    2  A    between atoms: C_5  and  C_6
REMARK    3  A    between atoms: C_15  and  O_16
REMARK    4  A    between atoms: C_17  and  N_18
REMARK    5  A    between atoms: C_19  and  C_21
REMARK                            x       y       z     vdW  Elec       q    Type
REMARK                         _______ _______ _______ _____ _____    ______ ____
ROOT
ATOM      1  C   UNL     1       1.245   2.195  22.346  0.00  0.00    +0.000 C 
ATOM      2  C   UNL     1       2.169   2.783  21.322  0.00  0.00    +0.000 A 
ATOM      3  C   UNL     1       3.257   2.051  20.853  0.00  0.00    +0.000 A 
ATOM      4  C   UNL     1       4.147   2.620  19.942  0.00  0.00    +0.000 A 
ATOM      5  C   UNL     1       3.974   3.928  19.437  0.00  0.00    +0.000 A 
ATOM      6  C   UNL     1       2.855   4.661  19.912  0.00  0.00    +0.000 A 
ATOM      7  C   UNL     1       1.971   4.085  20.843  0.00  0.00    +0.000 A 
ENDROOT
BRANCH   5   8
ATOM      8  C   UNL     1       4.867   4.430  18.360  0.00  0.00    +0.000 A 
ATOM      9  N   UNL     1       4.485   4.168  17.075  0.00  0.00    +0.000 NA
ATOM     10  C   UNL     1       5.368   4.457  16.094  0.00  0.00    +0.000 A 
ATOM     11  C   UNL     1       5.075   4.127  14.776  0.00  0.00    +0.000 A 
ATOM     12  C   UNL     1       6.015   4.285  13.758  0.00  0.00    +0.000 A 
ATOM     13  C   UNL     1       7.259   4.829  14.052  0.00  0.00    +0.000 A 
ATOM     14  C   UNL     1       7.543   5.229  15.356  0.00  0.00    +0.000 A 
ATOM     15  C   UNL     1       6.628   5.041  16.380  0.00  0.00    +0.000 A 
ATOM     16  N   UNL     1       6.982   5.371  17.629  0.00  0.00    +0.000 NA
ATOM     17  C   UNL     1       6.101   5.042  18.591  0.00  0.00    +0.000 A 
BRANCH  17  18
ATOM     18  O   UNL     1       6.598   5.308  19.823  0.00  0.00    +0.000 OA
ATOM     19  H   UNL     1       7.343   4.681  19.845  0.00  0.00    +0.000 HD
ENDBRANCH  17  18
ENDBRANCH   5   8
BRANCH   6  20
ATOM     20  N   UNL     1       2.652   5.993  19.464  0.00  0.00    +0.000 N 
ATOM     21  C   UNL     1       1.929   6.967  20.125  0.00  0.00    +0.000 C 
ATOM     22  O   UNL     1       1.326   6.792  21.185  0.00  0.00    +0.000 OA
ATOM     23  H   UNL     1       2.878   6.146  18.479  0.00  0.00    +0.000 HD
BRANCH  21  24
ATOM     24  C   UNL     1       1.792   8.295  19.452  0.00  0.00    +0.000 A 
ATOM     25  C   UNL     1       1.048   9.308  20.086  0.00  0.00    +0.000 A 
ATOM     26  C   UNL     1       0.881  10.558  19.482  0.00  0.00    +0.000 A 
ATOM     27  C   UNL     1       1.454  10.817  18.235  0.00  0.00    +0.000 A 
ATOM     28  C   UNL     1       2.202   9.824  17.605  0.00  0.00    +0.000 A 
ATOM     29  C   UNL     1       2.370   8.581  18.216  0.00  0.00    +0.000 A 
ATOM     30  F   UNL     1       3.126   7.671  17.580  0.00  0.00    +0.000 F 
ENDBRANCH  21  24
ENDBRANCH   6  20
TORSDOF 4
ENDMDL
MODEL 4
REMARK VINA RESULT:      -7.4      3.221      5.915
REMARK  Name = 
REMARK  5 active torsions:
REMARK  status: ('A' for Active; 'I' for Inactive)
REMARK    1  A    between atoms: C_1  and  C_2
REMARK    2  A    between atoms: C_5  and  C_6
REMARK    3  A    between atoms: C_15  and  O_16
REMARK    4  A    between atoms: C_17  and  N_18
REMARK    5  A    between atoms: C_19  and  C_21
REMARK                            x       y       z     vdW  Elec       q    Type
REMARK                         _______ _______ _______ _____ _____    ______ ____
ROOT
ATOM      1  C   UNL     1       1.225   2.199  22.354  0.00  0.00    +0.000 C 
ATOM      2  C   UNL     1       2.153   2.783  21.331  0.00  0.00    +0.000 A 
ATOM      3  C   UNL     1       3.250   2.054  20.877  0.00  0.00    +0.000 A 
ATOM      4  C   UNL     1       4.142   2.621  19.967  0.00  0.00    +0.000 A 
ATOM      5  C   UNL     1       3.964   3.922  19.447  0.00  0.00    +0.000 A 
ATOM      6  C   UNL     1       2.836   4.651  19.907  0.00  0.00    +0.000 A 
ATOM      7  C   UNL     1       1.949   4.078  20.837  0.00  0.00    +0.000 A 
ENDROOT
BRANCH   5   8
ATOM      8  C   UNL     1       4.861   4.420  18.372  0.00  0.00    +0.000 A 
ATOM      9  N   UNL     1       4.483   4.154  17.087  0.00  0.00    +0.000 NA
ATOM     10  C   UNL     1       5.371   4.439  16.108  0.00  0.00    +0.000 A 
ATOM     11  C   UNL     1       5.081   4.105  14.790  0.00  0.00    +0.000 A 
ATOM     12  C   UNL     1       6.026   4.259  13.775  0.00  0.00    +0.000 A 
ATOM     13  C   UNL     1       7.269   4.803  14.071  0.00  0.00    +0.000 A 
ATOM     14  C   UNL     1       7.549   5.206  15.375  0.00  0.00    +0.000 A 
ATOM     15  C   UNL     1       6.629   5.023  16.397  0.00  0.00    +0.000 A 
ATOM     16  N   UNL     1       6.980   5.357  17.646  0.00  0.00    +0.000 NA
ATOM     17  C   UNL     1       6.095   5.031  18.606  0.00  0.00    +0.000 A 
BRANCH  17  18
ATOM     18  O   UNL     1       6.588   5.301  19.839  0.00  0.00    +0.000 OA
ATOM     19  H   UNL     1       5.760   5.323  20.352  0.00  0.00    +0.000 HD
ENDBRANCH  17  18
ENDBRANCH   5   8
BRANCH   6  20
ATOM     20  N   UNL     1       2.626   5.977  19.444  0.00  0.00    +0.000 N 
ATOM     21  C   UNL     1       1.961   6.977  20.126  0.00  0.00    +0.000 C 
ATOM     22  O   UNL     1       1.422   6.833  21.225  0.00  0.00    +0.000 OA
ATOM     23  H   UNL     1       2.793   6.106  18.444  0.00  0.00    +0.000 HD
BRANCH  21  24
ATOM     24  C   UNL     1       1.803   8.293  19.435  0.00  0.00    +0.000 A 
ATOM     25  C   UNL     1       2.458   8.501  18.206  0.00  0.00    +0.000 A 
ATOM     26  C   UNL     1       2.350   9.724  17.537  0.00  0.00    +0.000 A 
ATOM     27  C   UNL     1       1.589  10.758  18.082  0.00  0.00    +0.000 A 
ATOM     28  C   UNL     1       0.928  10.557  19.293  0.00  0.00    +0.000 A 
ATOM     29  C   UNL     1       1.033   9.333  19.953  0.00  0.00    +0.000 A 
ATOM     30  F   UNL     1       0.352   9.183  21.100  0.00  0.00    +0.000 F 
ENDBRANCH  21  24
ENDBRANCH   6  20
TORSDOF 4
ENDMDL
MODEL 5
REMARK VINA RESULT:      -7.4      9.176     11.495
REMARK  Name = 
REMARK  5 active torsions:
REMARK  status: ('A' for Active; 'I' for Inactive)
REMARK    1  A    between atoms: C_1  and  C_2
REMARK    2  A    between atoms: C_5  and  C_6
REMARK    3  A    between atoms: C_15  and  O_16
REMARK    4  A    between atoms: C_17  and  N_18
REMARK    5  A    between atoms: C_19  and  C_21
REMARK                            x       y       z     vdW  Elec       q    Type
REMARK                         _______ _______ _______ _____ _____    ______ ____
ROOT
ATOM      1  C   UNL     1      -2.694   9.724  14.042  0.00  0.00    +0.000 C 
ATOM      2  C   UNL     1      -3.135  10.281  15.363  0.00  0.00    +0.000 A 
ATOM      3  C   UNL     1      -4.208  11.167  15.430  0.00  0.00    +0.000 A 
ATOM      4  C   UNL     1      -4.581  11.726  16.652  0.00  0.00    +0.000 A 
ATOM      5  C   UNL     1      -3.924  11.405  17.860  0.00  0.00    +0.000 A 
ATOM      6  C   UNL     1      -2.839  10.492  17.782  0.00  0.00    +0.000 A 
ATOM      7  C   UNL     1      -2.459   9.944  16.543  0.00  0.00    +0.000 A 
ENDROOT
BRANCH   5   8
ATOM      8  C   UNL     1      -4.454  11.915  19.152  0.00  0.00    +0.000 A 
ATOM      9  N   UNL     1      -3.579  12.599  19.947  0.00  0.00    +0.000 NA
ATOM     10  C   UNL     1      -3.990  12.912  21.195  0.00  0.00    +0.000 A 
ATOM     11  C   UNL     1      -3.112  13.524  22.082  0.00  0.00    +0.000 A 
ATOM     12  C   UNL     1      -3.456  13.739  23.417  0.00  0.00    +0.000 A 
ATOM     13  C   UNL     1      -4.720  13.380  23.866  0.00  0.00    +0.000 A 
ATOM     14  C   UNL     1      -5.635  12.829  22.971  0.00  0.00    +0.000 A 
ATOM     15  C   UNL     1      -5.289  12.578  21.653  0.00  0.00    +0.000 A 
ATOM     16  N   UNL     1      -6.182  11.975  20.856  0.00  0.00    +0.000 NA
ATOM     17  C   UNL     1      -5.738  11.642  19.631  0.00  0.00    +0.000 A 
BRANCH  17  18
ATOM     18  O   UNL     1      -6.670  10.936  18.946  0.00  0.00    +0.000 OA
ATOM     19  H   UNL     1      -6.224  10.858  18.084  0.00  0.00    +0.000 HD
ENDBRANCH  17  18
ENDBRANCH   5   8
BRANCH   6  20
ATOM     20  N   UNL     1      -2.121  10.159  18.960  0.00  0.00    +0.000 N 
ATOM     21  C   UNL     1      -0.866  10.626  19.301  0.00  0.00    +0.000 C 
ATOM     22  O   UNL     1      -0.182  11.371  18.597  0.00  0.00    +0.000 OA
ATOM     23  H   UNL     1      -2.484   9.345  19.461  0.00  0.00    +0.000 HD
BRANCH  21  24
ATOM     24  C   UNL     1      -0.262  10.108  20.567  0.00  0.00    +0.000 A 
ATOM     25  C   UNL     1      -0.799  10.524  21.800  0.00  0.00    +0.000 A 
ATOM     26  C   UNL     1      -0.251  10.077  23.006  0.00  0.00    +0.000 A 
ATOM     27  C   UNL     1       0.842   9.208  23.002  0.00  0.00    +0.000 A 
ATOM     28  C   UNL     1       1.373   8.783  21.786  0.00  0.00    +0.000 A 
ATOM     29  C   UNL     1       0.818   9.226  20.586  0.00  0.00    +0.000 A 
ATOM     30  F   UNL     1       1.349   8.760  19.443  0.00  0.00    +0.000 F 
ENDBRANCH  21  24
ENDBRANCH   6  20
TORSDOF 4
ENDMDL
MODEL 6
REMARK VINA RESULT:      -7.2      2.886      5.262
REMARK  Name = 
REMARK  5 active torsions:
REMARK  status: ('A' for Active; 'I' for Inactive)
REMARK    1  A    between atoms: C_1  and  C_2
REMARK    2  A    between atoms: C_5  and  C_6
REMARK    3  A    between atoms: C_15  and  O_16
REMARK    4  A    between atoms: C_17  and  N_18
REMARK    5  A    between atoms: C_19  and  C_21
REMARK                            x       y       z     vdW  Elec       q    Type
REMARK                         _______ _______ _______ _____ _____    ______ ____
ROOT
ATOM      1  C   UNL     1       7.213   5.401  12.847  0.00  0.00    +0.000 C 
ATOM      2  C   UNL     1       6.499   4.955  14.088  0.00  0.00    +0.000 A 
ATOM      3  C   UNL     1       6.687   3.667  14.585  0.00  0.00    +0.000 A 
ATOM      4  C   UNL     1       5.980   3.237  15.707  0.00  0.00    +0.000 A 
ATOM      5  C   UNL     1       5.082   4.079  16.400  0.00  0.00    +0.000 A 
ATOM      6  C   UNL     1       4.907   5.393  15.893  0.00  0.00    +0.000 A 
ATOM      7  C   UNL     1       5.613   5.814  14.751  0.00  0.00    +0.000 A 
ENDROOT
BRANCH   5   8
ATOM      8  C   UNL     1       4.467   3.619  17.673  0.00  0.00    +0.000 A 
ATOM      9  N   UNL     1       3.138   3.304  17.633  0.00  0.00    +0.000 NA
ATOM     10  C   UNL     1       2.524   3.059  18.812  0.00  0.00    +0.000 A 
ATOM     11  C   UNL     1       1.154   2.825  18.845  0.00  0.00    +0.000 A 
ATOM     12  C   UNL     1       0.464   2.702  20.051  0.00  0.00    +0.000 A 
ATOM     13  C   UNL     1       1.162   2.767  21.250  0.00  0.00    +0.000 A 
ATOM     14  C   UNL     1       2.546   2.931  21.231  0.00  0.00    +0.000 A 
ATOM     15  C   UNL     1       3.234   3.090  20.038  0.00  0.00    +0.000 A 
ATOM     16  N   UNL     1       4.552   3.324  20.081  0.00  0.00    +0.000 NA
ATOM     17  C   UNL     1       5.134   3.600  18.900  0.00  0.00    +0.000 A 
BRANCH  17  18
ATOM     18  O   UNL     1       6.437   3.936  19.062  0.00  0.00    +0.000 OA
ATOM     19  H   UNL     1       6.349   4.645  19.724  0.00  0.00    +0.000 HD
ENDBRANCH  17  18
ENDBRANCH   5   8
BRANCH   6  20
ATOM     20  N   UNL     1       3.991   6.271  16.530  0.00  0.00    +0.000 N 
ATOM     21  C   UNL     1       4.211   6.952  17.712  0.00  0.00    +0.000 C 
ATOM     22  O   UNL     1       5.231   6.853  18.396  0.00  0.00    +0.000 OA
ATOM     23  H   UNL     1       3.031   6.200  16.187  0.00  0.00    +0.000 HD
BRANCH  21  24
ATOM     24  C   UNL     1       3.090   7.788  18.241  0.00  0.00    +0.000 A 
ATOM     25  C   UNL     1       2.713   8.948  17.539  0.00  0.00    +0.000 A 
ATOM     26  C   UNL     1       1.682   9.766  18.010  0.00  0.00    +0.000 A 
ATOM     27  C   UNL     1       1.011   9.441  19.190  0.00  0.00    +0.000 A 
ATOM     28  C   UNL     1       1.371   8.288  19.887  0.00  0.00    +0.000 A 
ATOM     29  C   UNL     1       2.395   7.472  19.408  0.00  0.00    +0.000 A 
ATOM     30  F   UNL     1       2.679   6.357  20.100  0.00  0.00    +0.000 F 
ENDBRANCH  21  24
ENDBRANCH   6  20
TORSDOF 4
ENDMDL
MODEL 7
REMARK VINA RESULT:      -7.2      9.412     11.667
REMARK  Name = 
REMARK  5 active torsions:
REMARK  status: ('A' for Active; 'I' for Inactive)
REMARK    1  A    between atoms: C_1  and  C_2
REMARK    2  A    between atoms: C_5  and  C_6
REMARK    3  A    between atoms: C_15  and  O_16
REMARK    4  A    between atoms: C_17  and  N_18
REMARK    5  A    between atoms: C_19  and  C_21
REMARK                            x       y       z     vdW  Elec       q    Type
REMARK                         _______ _______ _______ _____ _____    ______ ____
ROOT
ATOM      1  C   UNL     1      -2.688   9.710  14.067  0.00  0.00    +0.000 C 
ATOM      2  C   UNL     1      -3.157  10.282  15.371  0.00  0.00    +0.000 A 
ATOM      3  C   UNL     1      -4.241  11.157  15.407  0.00  0.00    +0.000 A 
ATOM      4  C   UNL     1      -4.640  11.730  16.614  0.00  0.00    +0.000 A 
ATOM      5  C   UNL     1      -4.001  11.434  17.838  0.00  0.00    +0.000 A 
ATOM      6  C   UNL     1      -2.906  10.532  17.792  0.00  0.00    +0.000 A 
ATOM      7  C   UNL     1      -2.498   9.969  16.567  0.00  0.00    +0.000 A 
ENDROOT
BRANCH   5   8
ATOM      8  C   UNL     1      -4.559  11.958  19.112  0.00  0.00    +0.000 A 
ATOM      9  N   UNL     1      -3.818  12.903  19.763  0.00  0.00    +0.000 NA
ATOM     10  C   UNL     1      -4.217  13.257  21.005  0.00  0.00    +0.000 A 
ATOM     11  C   UNL     1      -3.452  14.144  21.753  0.00  0.00    +0.000 A 
ATOM     12  C   UNL     1      -3.759  14.427  23.084  0.00  0.00    +0.000 A 
ATOM     13  C   UNL     1      -4.881  13.852  23.667  0.00  0.00    +0.000 A 
ATOM     14  C   UNL     1      -5.696  13.015  22.908  0.00  0.00    +0.000 A 
ATOM     15  C   UNL     1      -5.378  12.699  21.596  0.00  0.00    +0.000 A 
ATOM     16  N   UNL     1      -6.154  11.828  20.937  0.00  0.00    +0.000 NA
ATOM     17  C   UNL     1      -5.717  11.464  19.718  0.00  0.00    +0.000 A 
BRANCH  17  18
ATOM     18  O   UNL     1      -6.501  10.498  19.184  0.00  0.00    +0.000 OA
ATOM     19  H   UNL     1      -7.286  10.580  19.756  0.00  0.00    +0.000 HD
ENDBRANCH  17  18
ENDBRANCH   5   8
BRANCH   6  20
ATOM     20  N   UNL     1      -2.204  10.224  18.987  0.00  0.00    +0.000 N 
ATOM     21  C   UNL     1      -0.955  10.700  19.337  0.00  0.00    +0.000 C 
ATOM     22  O   UNL     1      -0.263  11.433  18.628  0.00  0.00    +0.000 OA
ATOM     23  H   UNL     1      -2.573   9.420  19.498  0.00  0.00    +0.000 HD
BRANCH  21  24
ATOM     24  C   UNL     1      -0.369  10.210  20.622  0.00  0.00    +0.000 A 
ATOM     25  C   UNL     1       0.690   9.283  20.578  0.00  0.00    +0.000 A 
ATOM     26  C   UNL     1       1.254   8.786  21.758  0.00  0.00    +0.000 A 
ATOM     27  C   UNL     1       0.771   9.205  22.998  0.00  0.00    +0.000 A 
ATOM     28  C   UNL     1      -0.270  10.131  23.050  0.00  0.00    +0.000 A 
ATOM     29  C   UNL     1      -0.824  10.628  21.871  0.00  0.00    +0.000 A 
ATOM     30  F   UNL     1      -1.803  11.541  21.979  0.00  0.00    +0.000 F 
ENDBRANCH  21  24
ENDBRANCH   6  20
TORSDOF 4
ENDMDL
MODEL 8
REMARK VINA RESULT:      -7.2      7.163      9.545
REMARK  Name = 
REMARK  5 active torsions:
REMARK  status: ('A' for Active; 'I' for Inactive)
REMARK    1  A    between atoms: C_1  and  C_2
REMARK    2  A    between atoms: C_5  and  C_6
REMARK    3  A    between atoms: C_15  and  O_16
REMARK    4  A    between atoms: C_17  and  N_18
REMARK    5  A    between atoms: C_19  and  C_21
REMARK                            x       y       z     vdW  Elec       q    Type
REMARK                         _______ _______ _______ _____ _____    ______ ____
ROOT
ATOM      1  C   UNL     1      -3.083  12.232  23.817  0.00  0.00    +0.000 C 
ATOM      2  C   UNL     1      -1.911  12.500  22.921  0.00  0.00    +0.000 A 
ATOM      3  C   UNL     1      -1.591  13.804  22.551  0.00  0.00    +0.000 A 
ATOM      4  C   UNL     1      -0.535  14.046  21.673  0.00  0.00    +0.000 A 
ATOM      5  C   UNL     1       0.266  13.005  21.152  0.00  0.00    +0.000 A 
ATOM      6  C   UNL     1      -0.061  11.681  21.545  0.00  0.00    +0.000 A 
ATOM      7  C   UNL     1      -1.138  11.444  22.419  0.00  0.00    +0.000 A 
ENDROOT
BRANCH   5   8
ATOM      8  C   UNL     1       1.467  13.330  20.339  0.00  0.00    +0.000 A 
ATOM      9  N   UNL     1       2.559  13.793  21.016  0.00  0.00    +0.000 NA
ATOM     10  C   UNL     1       3.592  14.262  20.281  0.00  0.00    +0.000 A 
ATOM     11  C   UNL     1       4.691  14.832  20.913  0.00  0.00    +0.000 A 
ATOM     12  C   UNL     1       5.711  15.447  20.187  0.00  0.00    +0.000 A 
ATOM     13  C   UNL     1       5.659  15.450  18.799  0.00  0.00    +0.000 A 
ATOM     14  C   UNL     1       4.599  14.821  18.150  0.00  0.00    +0.000 A 
ATOM     15  C   UNL     1       3.562  14.241  18.865  0.00  0.00    +0.000 A 
ATOM     16  N   UNL     1       2.528  13.719  18.190  0.00  0.00    +0.000 NA
ATOM     17  C   UNL     1       1.498  13.293  18.942  0.00  0.00    +0.000 A 
BRANCH  17  18
ATOM     18  O   UNL     1       0.459  12.893  18.170  0.00  0.00    +0.000 OA
ATOM     19  H   UNL     1       0.944  12.465  17.441  0.00  0.00    +0.000 HD
ENDBRANCH  17  18
ENDBRANCH   5   8
BRANCH   6  20
ATOM     20  N   UNL     1       0.689  10.593  21.025  0.00  0.00    +0.000 N 
ATOM     21  C   UNL     1       0.400   9.890  19.872  0.00  0.00    +0.000 C 
ATOM     22  O   UNL     1      -0.582  10.094  19.156  0.00  0.00    +0.000 OA
ATOM     23  H   UNL     1       1.350  10.181  21.687  0.00  0.00    +0.000 HD
BRANCH  21  24
ATOM     24  C   UNL     1       1.291   8.740  19.528  0.00  0.00    +0.000 A 
ATOM     25  C   UNL     1       1.445   7.694  20.458  0.00  0.00    +0.000 A 
ATOM     26  C   UNL     1       2.283   6.609  20.182  0.00  0.00    +0.000 A 
ATOM     27  C   UNL     1       2.980   6.550  18.974  0.00  0.00    +0.000 A 
ATOM     28  C   UNL     1       2.825   7.575  18.043  0.00  0.00    +0.000 A 
ATOM     29  C   UNL     1       1.983   8.651  18.320  0.00  0.00    +0.000 A 
ATOM     30  F   UNL     1       1.845   9.596  17.376  0.00  0.00    +0.000 F 
ENDBRANCH  21  24
ENDBRANCH   6  20
TORSDOF 4
ENDMDL
MODEL 9
REMARK VINA RESULT:      -7.1      8.202     11.410
REMARK  Name = 
REMARK  5 active torsions:
REMARK  status: ('A' for Active; 'I' for Inactive)
REMARK    1  A    between atoms: C_1  and  C_2
REMARK    2  A    between atoms: C_5  and  C_6
REMARK    3  A    between atoms: C_15  and  O_16
REMARK    4  A    between atoms: C_17  and  N_18
REMARK    5  A    between atoms: C_19  and  C_21
REMARK                            x       y       z     vdW  Elec       q    Type
REMARK                         _______ _______ _______ _____ _____    ______ ____
ROOT
ATOM      1  C   UNL     1      -3.954  14.661  23.561  0.00  0.00    +0.000 C 
ATOM      2  C   UNL     1      -2.933  13.686  23.054  0.00  0.00    +0.000 A 
ATOM      3  C   UNL     1      -2.928  12.370  23.510  0.00  0.00    +0.000 A 
ATOM      4  C   UNL     1      -1.944  11.481  23.078  0.00  0.00    +0.000 A 
ATOM      5  C   UNL     1      -0.944  11.854  22.153  0.00  0.00    +0.000 A 
ATOM      6  C   UNL     1      -0.966  13.194  21.684  0.00  0.00    +0.000 A 
ATOM      7  C   UNL     1      -1.953  14.089  22.137  0.00  0.00    +0.000 A 
ENDROOT
BRANCH   5   8
ATOM      8  C   UNL     1      -0.011  10.829  21.616  0.00  0.00    +0.000 A 
ATOM      9  N   UNL     1       0.216  10.852  20.269  0.00  0.00    +0.000 NA
ATOM     10  C   UNL     1       0.915   9.823  19.741  0.00  0.00    +0.000 A 
ATOM     11  C   UNL     1       1.098   9.743  18.365  0.00  0.00    +0.000 A 
ATOM     12  C   UNL     1       1.695   8.629  17.773  0.00  0.00    +0.000 A 
ATOM     13  C   UNL     1       2.162   7.595  18.573  0.00  0.00    +0.000 A 
ATOM     14  C   UNL     1       2.048   7.693  19.959  0.00  0.00    +0.000 A 
ATOM     15  C   UNL     1       1.424   8.778  20.553  0.00  0.00    +0.000 A 
ATOM     16  N   UNL     1       1.271   8.785  21.884  0.00  0.00    +0.000 NA
ATOM     17  C   UNL     1       0.542   9.799  22.382  0.00  0.00    +0.000 A 
BRANCH  17  18
ATOM     18  O   UNL     1       0.346   9.655  23.715  0.00  0.00    +0.000 OA
ATOM     19  H   UNL     1      -0.414  10.251  23.841  0.00  0.00    +0.000 HD
ENDBRANCH  17  18
ENDBRANCH   5   8
BRANCH   6  20
ATOM     20  N   UNL     1       0.036  13.633  20.779  0.00  0.00    +0.000 N 
ATOM     21  C   UNL     1       1.210  14.276  21.121  0.00  0.00    +0.000 C 
ATOM     22  O   UNL     1       1.525  14.590  22.269  0.00  0.00    +0.000 OA
ATOM     23  H   UNL     1      -0.263  13.663  19.802  0.00  0.00    +0.000 HD
BRANCH  21  24
ATOM     24  C   UNL     1       2.108  14.703  20.005  0.00  0.00    +0.000 A 
ATOM     25  C   UNL     1       2.746  13.719  19.227  0.00  0.00    +0.000 A 
ATOM     26  C   UNL     1       3.608  14.078  18.186  0.00  0.00    +0.000 A 
ATOM     27  C   UNL     1       3.847  15.424  17.905  0.00  0.00    +0.000 A 
ATOM     28  C   UNL     1       3.212  16.406  18.664  0.00  0.00    +0.000 A 
ATOM     29  C   UNL     1       2.347  16.042  19.696  0.00  0.00    +0.000 A 
ATOM     30  F   UNL     1       1.737  17.027  20.375  0.00  0.00    +0.000 F 
ENDBRANCH  21  24
ENDBRANCH   6  20
TORSDOF 4
ENDMDL
