MODEL 1
REMARK VINA RESULT:      -8.7      0.000      0.000
REMARK  Name = 
REMARK  4 active torsions:
REMARK  status: ('A' for Active; 'I' for Inactive)
REMARK    1  A    between atoms: C_1  and  C_2
REMARK    2  A    between atoms: C_4  and  O_5
REMARK    3  A    between atoms: O_5  and  C_6
REMARK    4  A    between atoms: C_9  and  C_10
REMARK                            x       y       z     vdW  Elec       q    Type
REMARK                         _______ _______ _______ _____ _____    ______ ____
ROOT
ATOM      1  C   UNL     1       3.075   5.353  18.884  0.00  0.00    +0.000 A 
ATOM      2  C   UNL     1       2.955   6.556  18.191  0.00  0.00    +0.000 A 
ATOM      3  C   UNL     1       2.332   7.654  18.791  0.00  0.00    +0.000 A 
ATOM      4  C   UNL     1       1.741   7.563  20.065  0.00  0.00    +0.000 A 
ATOM      5  C   UNL     1       1.798   6.309  20.703  0.00  0.00    +0.000 A 
ATOM      6  C   UNL     1       2.464   5.220  20.127  0.00  0.00    +0.000 A 
ENDROOT
BRANCH   4   7
ATOM      7  C   UNL     1       1.078   8.732  20.696  0.00  0.00    +0.000 A 
ATOM      8  C   UNL     1       0.811   9.909  19.970  0.00  0.00    +0.000 A 
ATOM      9  C   UNL     1       0.182  11.009  20.560  0.00  0.00    +0.000 A 
ATOM     10  C   UNL     1      -0.210  10.957  21.893  0.00  0.00    +0.000 A 
ATOM     11  C   UNL     1       0.043   9.810  22.637  0.00  0.00    +0.000 A 
ATOM     12  C   UNL     1       0.687   8.716  22.048  0.00  0.00    +0.000 A 
ENDBRANCH   4   7
BRANCH   1  13
ATOM     13  O   UNL     1       3.733   4.246  18.400  0.00  0.00    +0.000 OA
BRANCH  13  17
ATOM     14  C   UNL     1       6.290   3.918  14.149  0.00  0.00    +0.000 C 
ATOM     15  C   UNL     1       6.221   4.315  15.604  0.00  0.00    +0.000 A 
ATOM     16  C   UNL     1       4.891   4.199  16.272  0.00  0.00    +0.000 A 
ATOM     17  C   UNL     1       4.868   4.390  17.605  0.00  0.00    +0.000 A 
ATOM     18  N   UNL     1       6.038   4.829  18.237  0.00  0.00    +0.000 N 
ATOM     19  N   UNL     1       6.252   5.168  19.537  0.00  0.00    +0.000 NA
ATOM     20  C   UNL     1       7.529   5.540  19.522  0.00  0.00    +0.000 A 
ATOM     21  N   UNL     1       8.164   5.449  18.324  0.00  0.00    +0.000 NA
ATOM     22  C   UNL     1       7.230   4.999  17.515  0.00  0.00    +0.000 A 
ATOM     23  N   UNL     1       7.317   4.701  16.185  0.00  0.00    +0.000 NA
ENDBRANCH  13  17
ENDBRANCH   1  13
TORSDOF 3
ENDMDL
MODEL 2
REMARK VINA RESULT:      -8.7      0.057      1.002
REMARK  Name = 
REMARK  4 active torsions:
REMARK  status: ('A' for Active; 'I' for Inactive)
REMARK    1  A    between atoms: C_1  and  C_2
REMARK    2  A    between atoms: C_4  and  O_5
REMARK    3  A    between atoms: O_5  and  C_6
REMARK    4  A    between atoms: C_9  and  C_10
REMARK                            x       y       z     vdW  Elec       q    Type
REMARK                         _______ _______ _______ _____ _____    ______ ____
ROOT
ATOM      1  C   UNL     1       3.068   5.364  18.926  0.00  0.00    +0.000 A 
ATOM      2  C   UNL     1       2.985   6.576  18.242  0.00  0.00    +0.000 A 
ATOM      3  C   UNL     1       2.351   7.674  18.831  0.00  0.00    +0.000 A 
ATOM      4  C   UNL     1       1.711   7.575  20.080  0.00  0.00    +0.000 A 
ATOM      5  C   UNL     1       1.732   6.314  20.706  0.00  0.00    +0.000 A 
ATOM      6  C   UNL     1       2.409   5.224  20.144  0.00  0.00    +0.000 A 
ENDROOT
BRANCH   4   7
ATOM      7  C   UNL     1       1.036   8.743  20.699  0.00  0.00    +0.000 A 
ATOM      8  C   UNL     1       0.711   8.767  22.070  0.00  0.00    +0.000 A 
ATOM      9  C   UNL     1       0.080   9.868  22.656  0.00  0.00    +0.000 A 
ATOM     10  C   UNL     1      -0.232  10.984  21.888  0.00  0.00    +0.000 A 
ATOM     11  C   UNL     1       0.073  10.990  20.531  0.00  0.00    +0.000 A 
ATOM     12  C   UNL     1       0.690   9.880  19.944  0.00  0.00    +0.000 A 
ENDBRANCH   4   7
BRANCH   1  13
ATOM     13  O   UNL     1       3.733   4.257  18.455  0.00  0.00    +0.000 OA
BRANCH  13  17
ATOM     14  C   UNL     1       6.247   3.910  14.181  0.00  0.00    +0.000 C 
ATOM     15  C   UNL     1       6.192   4.314  15.634  0.00  0.00    +0.000 A 
ATOM     16  C   UNL     1       4.869   4.200  16.316  0.00  0.00    +0.000 A 
ATOM     17  C   UNL     1       4.859   4.398  17.648  0.00  0.00    +0.000 A 
ATOM     18  N   UNL     1       6.035   4.844  18.265  0.00  0.00    +0.000 N 
ATOM     19  N   UNL     1       6.261   5.190  19.561  0.00  0.00    +0.000 NA
ATOM     20  C   UNL     1       7.536   5.564  19.532  0.00  0.00    +0.000 A 
ATOM     21  N   UNL     1       8.160   5.468  18.328  0.00  0.00    +0.000 NA
ATOM     22  C   UNL     1       7.218   5.011  17.531  0.00  0.00    +0.000 A 
ATOM     23  N   UNL     1       7.292   4.706  16.202  0.00  0.00    +0.000 NA
ENDBRANCH  13  17
ENDBRANCH   1  13
TORSDOF 3
ENDMDL
MODEL 3
REMARK VINA RESULT:      -8.5      0.183      1.425
REMARK  Name = 
REMARK  4 active torsions:
REMARK  status: ('A' for Active; 'I' for Inactive)
REMARK    1  A    between atoms: C_1  and  C_2
REMARK    2  A    between atoms: C_4  and  O_5
REMARK    3  A    between atoms: O_5  and  C_6
REMARK    4  A    between atoms: C_9  and  C_10
REMARK                            x       y       z     vdW  Elec       q    Type
REMARK                         _______ _______ _______ _____ _____    ______ ____
ROOT
ATOM      1  C   UNL     1       3.006   5.245  18.860  0.00  0.00    +0.000 A 
ATOM      2  C   UNL     1       2.469   5.190  20.145  0.00  0.00    +0.000 A 
ATOM      3  C   UNL     1       1.828   6.308  20.688  0.00  0.00    +0.000 A 
ATOM      4  C   UNL     1       1.773   7.534  20.000  0.00  0.00    +0.000 A 
ATOM      5  C   UNL     1       2.404   7.586  18.742  0.00  0.00    +0.000 A 
ATOM      6  C   UNL     1       3.004   6.455  18.173  0.00  0.00    +0.000 A 
ENDROOT
BRANCH   4   7
ATOM      7  C   UNL     1       1.094   8.719  20.583  0.00  0.00    +0.000 A 
ATOM      8  C   UNL     1       0.790   8.793  21.957  0.00  0.00    +0.000 A 
ATOM      9  C   UNL     1       0.155   9.909  22.510  0.00  0.00    +0.000 A 
ATOM     10  C   UNL     1      -0.182  10.990  21.704  0.00  0.00    +0.000 A 
ATOM     11  C   UNL     1       0.102  10.946  20.343  0.00  0.00    +0.000 A 
ATOM     12  C   UNL     1       0.723   9.820  19.790  0.00  0.00    +0.000 A 
ENDBRANCH   4   7
BRANCH   1  13
ATOM     13  O   UNL     1       3.589   4.176  18.221  0.00  0.00    +0.000 OA
BRANCH  13  17
ATOM     14  C   UNL     1       6.443   4.024  14.154  0.00  0.00    +0.000 C 
ATOM     15  C   UNL     1       6.276   4.340  15.621  0.00  0.00    +0.000 A 
ATOM     16  C   UNL     1       4.898   4.219  16.183  0.00  0.00    +0.000 A 
ATOM     17  C   UNL     1       4.781   4.337  17.520  0.00  0.00    +0.000 A 
ATOM     18  N   UNL     1       5.911   4.712  18.258  0.00  0.00    +0.000 N 
ATOM     19  N   UNL     1       6.035   4.972  19.587  0.00  0.00    +0.000 NA
ATOM     20  C   UNL     1       7.317   5.314  19.686  0.00  0.00    +0.000 A 
ATOM     21  N   UNL     1       8.036   5.275  18.533  0.00  0.00    +0.000 NA
ATOM     22  C   UNL     1       7.155   4.893  17.635  0.00  0.00    +0.000 A 
ATOM     23  N   UNL     1       7.333   4.667  16.299  0.00  0.00    +0.000 NA
ENDBRANCH  13  17
ENDBRANCH   1  13
TORSDOF 3
ENDMDL
MODEL 4
REMARK VINA RESULT:      -8.5      1.573      2.902
REMARK  Name = 
REMARK  4 active torsions:
REMARK  status: ('A' for Active; 'I' for Inactive)
REMARK    1  A    between atoms: C_1  and  C_2
REMARK    2  A    between atoms: C_4  and  O_5
REMARK    3  A    between atoms: O_5  and  C_6
REMARK    4  A    between atoms: C_9  and  C_10
REMARK                            x       y       z     vdW  Elec       q    Type
REMARK                         _______ _______ _______ _____ _____    ______ ____
ROOT
ATOM      1  C   UNL     1       2.888   6.750  18.341  0.00  0.00    +0.000 A 
ATOM      2  C   UNL     1       2.642   6.386  19.663  0.00  0.00    +0.000 A 
ATOM      3  C   UNL     1       1.877   7.214  20.490  0.00  0.00    +0.000 A 
ATOM      4  C   UNL     1       1.406   8.464  20.050  0.00  0.00    +0.000 A 
ATOM      5  C   UNL     1       1.748   8.847  18.739  0.00  0.00    +0.000 A 
ATOM      6  C   UNL     1       2.470   7.999  17.890  0.00  0.00    +0.000 A 
ENDROOT
BRANCH   4   7
ATOM      7  C   UNL     1       0.597   9.341  20.935  0.00  0.00    +0.000 A 
ATOM      8  C   UNL     1       0.405   9.039  22.297  0.00  0.00    +0.000 A 
ATOM      9  C   UNL     1      -0.351   9.865  23.134  0.00  0.00    +0.000 A 
ATOM     10  C   UNL     1      -0.925  11.027  22.631  0.00  0.00    +0.000 A 
ATOM     11  C   UNL     1      -0.757  11.352  21.290  0.00  0.00    +0.000 A 
ATOM     12  C   UNL     1      -0.013  10.514  20.452  0.00  0.00    +0.000 A 
ENDBRANCH   4   7
BRANCH   1  13
ATOM     13  O   UNL     1       3.567   5.965  17.438  0.00  0.00    +0.000 OA
BRANCH  13  17
ATOM     14  C   UNL     1       7.832   8.489  17.823  0.00  0.00    +0.000 C 
ATOM     15  C   UNL     1       7.058   7.306  17.293  0.00  0.00    +0.000 A 
ATOM     16  C   UNL     1       5.653   7.151  17.773  0.00  0.00    +0.000 A 
ATOM     17  C   UNL     1       4.914   6.198  17.173  0.00  0.00    +0.000 A 
ATOM     18  N   UNL     1       5.546   5.332  16.271  0.00  0.00    +0.000 N 
ATOM     19  N   UNL     1       5.049   4.256  15.604  0.00  0.00    +0.000 NA
ATOM     20  C   UNL     1       6.118   3.821  14.942  0.00  0.00    +0.000 A 
ATOM     21  N   UNL     1       7.258   4.541  15.109  0.00  0.00    +0.000 NA
ATOM     22  C   UNL     1       6.900   5.494  15.941  0.00  0.00    +0.000 A 
ATOM     23  N   UNL     1       7.647   6.522  16.442  0.00  0.00    +0.000 NA
ENDBRANCH  13  17
ENDBRANCH   1  13
TORSDOF 3
ENDMDL
MODEL 5
REMARK VINA RESULT:      -8.5      0.157      1.013
REMARK  Name = 
REMARK  4 active torsions:
REMARK  status: ('A' for Active; 'I' for Inactive)
REMARK    1  A    between atoms: C_1  and  C_2
REMARK    2  A    between atoms: C_4  and  O_5
REMARK    3  A    between atoms: O_5  and  C_6
REMARK    4  A    between atoms: C_9  and  C_10
REMARK                            x       y       z     vdW  Elec       q    Type
REMARK                         _______ _______ _______ _____ _____    ______ ____
ROOT
ATOM      1  C   UNL     1       3.097   5.217  18.925  0.00  0.00    +0.000 A 
ATOM      2  C   UNL     1       2.560   5.177  20.210  0.00  0.00    +0.000 A 
ATOM      3  C   UNL     1       1.890   6.289  20.728  0.00  0.00    +0.000 A 
ATOM      4  C   UNL     1       1.806   7.498  20.015  0.00  0.00    +0.000 A 
ATOM      5  C   UNL     1       2.438   7.539  18.757  0.00  0.00    +0.000 A 
ATOM      6  C   UNL     1       3.067   6.412  18.213  0.00  0.00    +0.000 A 
ENDROOT
BRANCH   4   7
ATOM      7  C   UNL     1       1.097   8.678  20.571  0.00  0.00    +0.000 A 
ATOM      8  C   UNL     1       0.698   9.753  19.752  0.00  0.00    +0.000 A 
ATOM      9  C   UNL     1       0.025  10.863  20.272  0.00  0.00    +0.000 A 
ATOM     10  C   UNL     1      -0.280  10.921  21.627  0.00  0.00    +0.000 A 
ATOM     11  C   UNL     1       0.103   9.878  22.462  0.00  0.00    +0.000 A 
ATOM     12  C   UNL     1       0.790   8.776  21.941  0.00  0.00    +0.000 A 
ENDBRANCH   4   7
BRANCH   1  13
ATOM     13  O   UNL     1       3.708   4.149  18.311  0.00  0.00    +0.000 OA
BRANCH  13  17
ATOM     14  C   UNL     1       6.324   3.979  14.087  0.00  0.00    +0.000 C 
ATOM     15  C   UNL     1       6.227   4.341  15.549  0.00  0.00    +0.000 A 
ATOM     16  C   UNL     1       4.893   4.178  16.197  0.00  0.00    +0.000 A 
ATOM     17  C   UNL     1       4.848   4.339  17.534  0.00  0.00    +0.000 A 
ATOM     18  N   UNL     1       5.999   4.793  18.190  0.00  0.00    +0.000 N 
ATOM     19  N   UNL     1       6.188   5.108  19.499  0.00  0.00    +0.000 NA
ATOM     20  C   UNL     1       7.456   5.512  19.509  0.00  0.00    +0.000 A 
ATOM     21  N   UNL     1       8.108   5.463  18.318  0.00  0.00    +0.000 NA
ATOM     22  C   UNL     1       7.195   5.008  17.487  0.00  0.00    +0.000 A 
ATOM     23  N   UNL     1       7.305   4.742  16.152  0.00  0.00    +0.000 NA
ENDBRANCH  13  17
ENDBRANCH   1  13
TORSDOF 3
ENDMDL
MODEL 6
REMARK VINA RESULT:      -8.4      1.550      2.721
REMARK  Name = 
REMARK  4 active torsions:
REMARK  status: ('A' for Active; 'I' for Inactive)
REMARK    1  A    between atoms: C_1  and  C_2
REMARK    2  A    between atoms: C_4  and  O_5
REMARK    3  A    between atoms: O_5  and  C_6
REMARK    4  A    between atoms: C_9  and  C_10
REMARK                            x       y       z     vdW  Elec       q    Type
REMARK                         _______ _______ _______ _____ _____    ______ ____
ROOT
ATOM      1  C   UNL     1       2.940   6.528  18.352  0.00  0.00    +0.000 A 
ATOM      2  C   UNL     1       2.657   6.171  19.668  0.00  0.00    +0.000 A 
ATOM      3  C   UNL     1       1.904   7.024  20.481  0.00  0.00    +0.000 A 
ATOM      4  C   UNL     1       1.483   8.289  20.034  0.00  0.00    +0.000 A 
ATOM      5  C   UNL     1       1.863   8.661  18.730  0.00  0.00    +0.000 A 
ATOM      6  C   UNL     1       2.573   7.790  17.895  0.00  0.00    +0.000 A 
ENDROOT
BRANCH   4   7
ATOM      7  C   UNL     1       0.687   9.192  20.904  0.00  0.00    +0.000 A 
ATOM      8  C   UNL     1       0.035  10.329  20.386  0.00  0.00    +0.000 A 
ATOM      9  C   UNL     1      -0.719  11.178  21.202  0.00  0.00    +0.000 A 
ATOM     10  C   UNL     1      -0.854  10.904  22.558  0.00  0.00    +0.000 A 
ATOM     11  C   UNL     1      -0.220   9.791  23.099  0.00  0.00    +0.000 A 
ATOM     12  C   UNL     1       0.547   8.953  22.284  0.00  0.00    +0.000 A 
ENDBRANCH   4   7
BRANCH   1  13
ATOM     13  O   UNL     1       3.610   5.722  17.461  0.00  0.00    +0.000 OA
BRANCH  13  17
ATOM     14  C   UNL     1       7.912   8.185  17.839  0.00  0.00    +0.000 C 
ATOM     15  C   UNL     1       7.095   7.069  17.234  0.00  0.00    +0.000 A 
ATOM     16  C   UNL     1       5.724   6.862  17.786  0.00  0.00    +0.000 A 
ATOM     17  C   UNL     1       4.939   5.982  17.134  0.00  0.00    +0.000 A 
ATOM     18  N   UNL     1       5.504   5.221  16.103  0.00  0.00    +0.000 N 
ATOM     19  N   UNL     1       4.956   4.225  15.356  0.00  0.00    +0.000 NA
ATOM     20  C   UNL     1       5.975   3.865  14.581  0.00  0.00    +0.000 A 
ATOM     21  N   UNL     1       7.130   4.562  14.750  0.00  0.00    +0.000 NA
ATOM     22  C   UNL     1       6.835   5.417  15.704  0.00  0.00    +0.000 A 
ATOM     23  N   UNL     1       7.621   6.383  16.265  0.00  0.00    +0.000 NA
ENDBRANCH  13  17
ENDBRANCH   1  13
TORSDOF 3
ENDMDL
MODEL 7
REMARK VINA RESULT:      -8.3      1.019      2.373
REMARK  Name = 
REMARK  4 active torsions:
REMARK  status: ('A' for Active; 'I' for Inactive)
REMARK    1  A    between atoms: C_1  and  C_2
REMARK    2  A    between atoms: C_4  and  O_5
REMARK    3  A    between atoms: O_5  and  C_6
REMARK    4  A    between atoms: C_9  and  C_10
REMARK                            x       y       z     vdW  Elec       q    Type
REMARK                         _______ _______ _______ _____ _____    ______ ____
ROOT
ATOM      1  C   UNL     1       2.889   6.072  18.564  0.00  0.00    +0.000 A 
ATOM      2  C   UNL     1       2.690   7.360  18.071  0.00  0.00    +0.000 A 
ATOM      3  C   UNL     1       2.044   8.321  18.855  0.00  0.00    +0.000 A 
ATOM      4  C   UNL     1       1.506   8.005  20.116  0.00  0.00    +0.000 A 
ATOM      5  C   UNL     1       1.641   6.672  20.549  0.00  0.00    +0.000 A 
ATOM      6  C   UNL     1       2.331   5.719  19.790  0.00  0.00    +0.000 A 
ENDROOT
BRANCH   4   7
ATOM      7  C   UNL     1       0.818   9.029  20.942  0.00  0.00    +0.000 A 
ATOM      8  C   UNL     1       0.471  10.290  20.416  0.00  0.00    +0.000 A 
ATOM      9  C   UNL     1      -0.181  11.254  21.190  0.00  0.00    +0.000 A 
ATOM     10  C   UNL     1      -0.519  10.978  22.510  0.00  0.00    +0.000 A 
ATOM     11  C   UNL     1      -0.187   9.744  23.059  0.00  0.00    +0.000 A 
ATOM     12  C   UNL     1       0.481   8.787  22.287  0.00  0.00    +0.000 A 
ENDBRANCH   4   7
BRANCH   1  13
ATOM     13  O   UNL     1       3.575   5.086  17.893  0.00  0.00    +0.000 OA
BRANCH  13  17
ATOM     14  C   UNL     1       8.116   5.722  19.814  0.00  0.00    +0.000 C 
ATOM     15  C   UNL     1       7.231   5.348  18.649  0.00  0.00    +0.000 A 
ATOM     16  C   UNL     1       5.765   5.270  18.914  0.00  0.00    +0.000 A 
ATOM     17  C   UNL     1       4.966   5.104  17.842  0.00  0.00    +0.000 A 
ATOM     18  N   UNL     1       5.562   4.864  16.598  0.00  0.00    +0.000 N 
ATOM     19  N   UNL     1       4.988   4.588  15.396  0.00  0.00    +0.000 NA
ATOM     20  C   UNL     1       6.049   4.418  14.612  0.00  0.00    +0.000 A 
ATOM     21  N   UNL     1       7.262   4.582  15.204  0.00  0.00    +0.000 NA
ATOM     22  C   UNL     1       6.958   4.866  16.451  0.00  0.00    +0.000 A 
ATOM     23  N   UNL     1       7.793   5.148  17.495  0.00  0.00    +0.000 NA
ENDBRANCH  13  17
ENDBRANCH   1  13
TORSDOF 3
ENDMDL
MODEL 8
REMARK VINA RESULT:      -8.3      1.092      2.792
REMARK  Name = 
REMARK  4 active torsions:
REMARK  status: ('A' for Active; 'I' for Inactive)
REMARK    1  A    between atoms: C_1  and  C_2
REMARK    2  A    between atoms: C_4  and  O_5
REMARK    3  A    between atoms: O_5  and  C_6
REMARK    4  A    between atoms: C_9  and  C_10
REMARK                            x       y       z     vdW  Elec       q    Type
REMARK                         _______ _______ _______ _____ _____    ______ ____
ROOT
ATOM      1  C   UNL     1       2.879   6.251  18.488  0.00  0.00    +0.000 A 
ATOM      2  C   UNL     1       2.455   5.914  19.772  0.00  0.00    +0.000 A 
ATOM      3  C   UNL     1       1.741   6.838  20.542  0.00  0.00    +0.000 A 
ATOM      4  C   UNL     1       1.500   8.147  20.088  0.00  0.00    +0.000 A 
ATOM      5  C   UNL     1       2.020   8.488  18.824  0.00  0.00    +0.000 A 
ATOM      6  C   UNL     1       2.692   7.551  18.029  0.00  0.00    +0.000 A 
ENDROOT
BRANCH   4   7
ATOM      7  C   UNL     1       0.745   9.125  20.911  0.00  0.00    +0.000 A 
ATOM      8  C   UNL     1       0.356   8.832  22.233  0.00  0.00    +0.000 A 
ATOM      9  C   UNL     1      -0.351   9.752  23.012  0.00  0.00    +0.000 A 
ATOM     10  C   UNL     1      -0.677  11.000  22.494  0.00  0.00    +0.000 A 
ATOM     11  C   UNL     1      -0.309  11.319  21.191  0.00  0.00    +0.000 A 
ATOM     12  C   UNL     1       0.384  10.389  20.408  0.00  0.00    +0.000 A 
ENDBRANCH   4   7
BRANCH   1  13
ATOM     13  O   UNL     1       3.522   5.383  17.636  0.00  0.00    +0.000 OA
BRANCH  13  17
ATOM     14  C   UNL     1       8.019   5.667  19.735  0.00  0.00    +0.000 C 
ATOM     15  C   UNL     1       7.155   5.357  18.537  0.00  0.00    +0.000 A 
ATOM     16  C   UNL     1       5.677   5.398  18.744  0.00  0.00    +0.000 A 
ATOM     17  C   UNL     1       4.911   5.289  17.641  0.00  0.00    +0.000 A 
ATOM     18  N   UNL     1       5.535   4.992  16.423  0.00  0.00    +0.000 N 
ATOM     19  N   UNL     1       4.989   4.755  15.200  0.00  0.00    +0.000 NA
ATOM     20  C   UNL     1       6.063   4.494  14.460  0.00  0.00    +0.000 A 
ATOM     21  N   UNL     1       7.261   4.565  15.099  0.00  0.00    +0.000 NA
ATOM     22  C   UNL     1       6.931   4.882  16.332  0.00  0.00    +0.000 A 
ATOM     23  N   UNL     1       7.744   5.103  17.408  0.00  0.00    +0.000 NA
ENDBRANCH  13  17
ENDBRANCH   1  13
TORSDOF 3
ENDMDL
MODEL 9
REMARK VINA RESULT:      -8.3      0.974      2.551
REMARK  Name = 
REMARK  4 active torsions:
REMARK  status: ('A' for Active; 'I' for Inactive)
REMARK    1  A    between atoms: C_1  and  C_2
REMARK    2  A    between atoms: C_4  and  O_5
REMARK    3  A    between atoms: O_5  and  C_6
REMARK    4  A    between atoms: C_9  and  C_10
REMARK                            x       y       z     vdW  Elec       q    Type
REMARK                         _______ _______ _______ _____ _____    ______ ____
ROOT
ATOM      1  C   UNL     1       2.922   5.908  18.707  0.00  0.00    +0.000 A 
ATOM      2  C   UNL     1       2.755   7.182  18.170  0.00  0.00    +0.000 A 
ATOM      3  C   UNL     1       2.089   8.171  18.899  0.00  0.00    +0.000 A 
ATOM      4  C   UNL     1       1.501   7.898  20.147  0.00  0.00    +0.000 A 
ATOM      5  C   UNL     1       1.606   6.577  20.624  0.00  0.00    +0.000 A 
ATOM      6  C   UNL     1       2.315   5.596  19.920  0.00  0.00    +0.000 A 
ENDROOT
BRANCH   4   7
ATOM      7  C   UNL     1       0.791   8.952  20.916  0.00  0.00    +0.000 A 
ATOM      8  C   UNL     1       0.493   8.793  22.284  0.00  0.00    +0.000 A 
ATOM      9  C   UNL     1      -0.170   9.785  23.011  0.00  0.00    +0.000 A 
ATOM     10  C   UNL     1      -0.542  10.973  22.392  0.00  0.00    +0.000 A 
ATOM     11  C   UNL     1      -0.265  11.159  21.042  0.00  0.00    +0.000 A 
ATOM     12  C   UNL     1       0.385  10.157  20.313  0.00  0.00    +0.000 A 
ENDBRANCH   4   7
BRANCH   1  13
ATOM     13  O   UNL     1       3.623   4.897  18.093  0.00  0.00    +0.000 OA
BRANCH  13  17
ATOM     14  C   UNL     1       8.215   5.722  19.811  0.00  0.00    +0.000 C 
ATOM     15  C   UNL     1       7.296   5.302  18.689  0.00  0.00    +0.000 A 
ATOM     16  C   UNL     1       5.846   5.173  19.017  0.00  0.00    +0.000 A 
ATOM     17  C   UNL     1       5.010   4.965  17.982  0.00  0.00    +0.000 A 
ATOM     18  N   UNL     1       5.562   4.731  16.716  0.00  0.00    +0.000 N 
ATOM     19  N   UNL     1       4.948   4.420  15.543  0.00  0.00    +0.000 NA
ATOM     20  C   UNL     1       5.980   4.279  14.716  0.00  0.00    +0.000 A 
ATOM     21  N   UNL     1       7.210   4.495  15.254  0.00  0.00    +0.000 NA
ATOM     22  C   UNL     1       6.949   4.783  16.510  0.00  0.00    +0.000 A 
ATOM     23  N   UNL     1       7.815   5.108  17.515  0.00  0.00    +0.000 NA
ENDBRANCH  13  17
ENDBRANCH   1  13
TORSDOF 3
ENDMDL
