MODEL 1
REMARK VINA RESULT:      -9.6      0.000      0.000
REMARK  Name = 
REMARK  3 active torsions:
REMARK  status: ('A' for Active; 'I' for Inactive)
REMARK    1  A    between atoms: C_4  and  C_5
REMARK    2  A    between atoms: C_5  and  N_6
REMARK    3  A    between atoms: C_14  and  C_15
REMARK                            x       y       z     vdW  Elec       q    Type
REMARK                         _______ _______ _______ _____ _____    ______ ____
ROOT
ATOM      1  N   UNL     1       2.528   6.459  18.609  0.00  0.00    +0.000 NA
ATOM      2  C   UNL     1       1.909   6.067  19.878  0.00  0.00    +0.000 C 
ATOM      3  C   UNL     1       1.408   4.617  19.999  0.00  0.00    +0.000 C 
ATOM      4  C   UNL     1       2.261   3.693  19.207  0.00  0.00    +0.000 A 
ATOM      5  S   UNL     1       2.264   2.014  19.479  0.00  0.00    +0.000 S 
ATOM      6  C   UNL     1       3.358   1.754  18.193  0.00  0.00    +0.000 A 
ATOM      7  C   UNL     1       3.705   2.932  17.569  0.00  0.00    +0.000 A 
ATOM      8  C   UNL     1       3.107   4.084  18.190  0.00  0.00    +0.000 A 
ATOM      9  C   UNL     1       3.359   5.532  17.822  0.00  0.00    +0.000 C 
ENDROOT
BRANCH   9  10
ATOM     10  C   UNL     1       4.877   5.688  17.935  0.00  0.00    +0.000 A 
ATOM     11  C   UNL     1       5.521   5.349  19.140  0.00  0.00    +0.000 A 
ATOM     12  C   UNL     1       6.895   5.556  19.303  0.00  0.00    +0.000 A 
ATOM     13  C   UNL     1       7.657   6.069  18.257  0.00  0.00    +0.000 A 
ATOM     14  C   UNL     1       7.048   6.391  17.051  0.00  0.00    +0.000 A 
ATOM     15  C   UNL     1       5.670   6.229  16.902  0.00  0.00    +0.000 A 
ENDBRANCH   9  10
BRANCH   1  16
ATOM     16  C   UNL     1       2.606   7.900  18.299  0.00  0.00    +0.000 C 
BRANCH  16  20
ATOM     17  O   UNL     1      -0.211  11.656  18.532  0.00  0.00    +0.000 OA
ATOM     18  C   UNL     1       0.276  10.720  19.152  0.00  0.00    +0.000 A 
ATOM     19  N   UNL     1       1.117   9.826  18.577  0.00  0.00    +0.000 N 
ATOM     20  C   UNL     1       1.752   8.796  19.209  0.00  0.00    +0.000 A 
ATOM     21  N   UNL     1       1.632   8.601  20.490  0.00  0.00    +0.000 NA
ATOM     22  C   UNL     1       0.742   9.453  21.189  0.00  0.00    +0.000 A 
ATOM     23  C   UNL     1       0.523   9.258  22.553  0.00  0.00    +0.000 A 
ATOM     24  C   UNL     1      -0.447  10.012  23.234  0.00  0.00    +0.000 A 
ATOM     25  C   UNL     1      -1.203  10.968  22.550  0.00  0.00    +0.000 A 
ATOM     26 CL   UNL     1      -2.452  11.827  23.363  0.00  0.00    +0.000 Cl
ATOM     27  C   UNL     1      -0.971  11.216  21.212  0.00  0.00    +0.000 A 
ATOM     28  C   UNL     1       0.003  10.468  20.559  0.00  0.00    +0.000 A 
ATOM     29  H   UNL     1       1.239   9.921  17.586  0.00  0.00    +0.000 HD
ENDBRANCH  16  20
ENDBRANCH   1  16
TORSDOF 3
ENDMDL
MODEL 2
REMARK VINA RESULT:      -9.6      1.397      1.956
REMARK  Name = 
REMARK  3 active torsions:
REMARK  status: ('A' for Active; 'I' for Inactive)
REMARK    1  A    between atoms: C_4  and  C_5
REMARK    2  A    between atoms: C_5  and  N_6
REMARK    3  A    between atoms: C_14  and  C_15
REMARK                            x       y       z     vdW  Elec       q    Type
REMARK                         _______ _______ _______ _____ _____    ______ ____
ROOT
ATOM      1  N   UNL     1       2.205   6.714  19.270  0.00  0.00    +0.000 NA
ATOM      2  C   UNL     1       1.756   6.123  20.534  0.00  0.00    +0.000 C 
ATOM      3  C   UNL     1       1.101   4.733  20.467  0.00  0.00    +0.000 C 
ATOM      4  C   UNL     1       1.688   3.920  19.370  0.00  0.00    +0.000 A 
ATOM      5  S   UNL     1       1.521   2.229  19.314  0.00  0.00    +0.000 S 
ATOM      6  C   UNL     1       2.349   2.144  17.822  0.00  0.00    +0.000 A 
ATOM      7  C   UNL     1       2.738   3.390  17.380  0.00  0.00    +0.000 A 
ATOM      8  C   UNL     1       2.400   4.436  18.308  0.00  0.00    +0.000 A 
ATOM      9  C   UNL     1       2.772   5.900  18.181  0.00  0.00    +0.000 C 
ENDROOT
BRANCH   9  10
ATOM     10  C   UNL     1       4.296   5.888  18.039  0.00  0.00    +0.000 A 
ATOM     11  C   UNL     1       5.088   5.423  19.106  0.00  0.00    +0.000 A 
ATOM     12  C   UNL     1       6.484   5.474  19.039  0.00  0.00    +0.000 A 
ATOM     13  C   UNL     1       7.116   5.955  17.895  0.00  0.00    +0.000 A 
ATOM     14  C   UNL     1       6.355   6.400  16.820  0.00  0.00    +0.000 A 
ATOM     15  C   UNL     1       4.962   6.392  16.903  0.00  0.00    +0.000 A 
ENDBRANCH   9  10
BRANCH   1  16
ATOM     16  C   UNL     1       2.415   8.174  19.230  0.00  0.00    +0.000 C 
BRANCH  16  20
ATOM     17  O   UNL     1       0.699   9.552  23.384  0.00  0.00    +0.000 OA
ATOM     18  C   UNL     1       0.606   9.659  22.169  0.00  0.00    +0.000 A 
ATOM     19  N   UNL     1       1.412   8.980  21.316  0.00  0.00    +0.000 N 
ATOM     20  C   UNL     1       1.335   8.994  19.952  0.00  0.00    +0.000 A 
ATOM     21  N   UNL     1       0.407   9.657  19.327  0.00  0.00    +0.000 NA
ATOM     22  C   UNL     1      -0.469  10.439  20.117  0.00  0.00    +0.000 A 
ATOM     23  C   UNL     1      -1.448  11.221  19.502  0.00  0.00    +0.000 A 
ATOM     24  C   UNL     1      -2.242  12.095  20.263  0.00  0.00    +0.000 A 
ATOM     25  C   UNL     1      -2.061  12.190  21.645  0.00  0.00    +0.000 A 
ATOM     26 CL   UNL     1      -2.971  13.326  22.562  0.00  0.00    +0.000 Cl
ATOM     27  C   UNL     1      -1.134  11.392  22.285  0.00  0.00    +0.000 A 
ATOM     28  C   UNL     1      -0.367  10.522  21.516  0.00  0.00    +0.000 A 
ATOM     29  H   UNL     1       2.156   8.459  21.743  0.00  0.00    +0.000 HD
ENDBRANCH  16  20
ENDBRANCH   1  16
TORSDOF 3
ENDMDL
MODEL 3
REMARK VINA RESULT:      -9.6      1.347      2.062
REMARK  Name = 
REMARK  3 active torsions:
REMARK  status: ('A' for Active; 'I' for Inactive)
REMARK    1  A    between atoms: C_4  and  C_5
REMARK    2  A    between atoms: C_5  and  N_6
REMARK    3  A    between atoms: C_14  and  C_15
REMARK                            x       y       z     vdW  Elec       q    Type
REMARK                         _______ _______ _______ _____ _____    ______ ____
ROOT
ATOM      1  N   UNL     1       2.454   6.658  18.800  0.00  0.00    +0.000 NA
ATOM      2  C   UNL     1       1.931   6.236  20.102  0.00  0.00    +0.000 C 
ATOM      3  C   UNL     1       1.316   4.828  20.190  0.00  0.00    +0.000 C 
ATOM      4  C   UNL     1       2.000   3.890  19.263  0.00  0.00    +0.000 A 
ATOM      5  S   UNL     1       1.879   2.203  19.438  0.00  0.00    +0.000 S 
ATOM      6  C   UNL     1       2.814   1.938  18.032  0.00  0.00    +0.000 A 
ATOM      7  C   UNL     1       3.202   3.121  17.444  0.00  0.00    +0.000 A 
ATOM      8  C   UNL     1       2.774   4.275  18.188  0.00  0.00    +0.000 A 
ATOM      9  C   UNL     1       3.117   5.719  17.879  0.00  0.00    +0.000 C 
ENDROOT
BRANCH   9  10
ATOM     10  C   UNL     1       4.647   5.739  17.843  0.00  0.00    +0.000 A 
ATOM     11  C   UNL     1       5.373   5.432  19.010  0.00  0.00    +0.000 A 
ATOM     12  C   UNL     1       6.769   5.520  19.032  0.00  0.00    +0.000 A 
ATOM     13  C   UNL     1       7.468   5.880  17.883  0.00  0.00    +0.000 A 
ATOM     14  C   UNL     1       6.775   6.167  16.713  0.00  0.00    +0.000 A 
ATOM     15  C   UNL     1       5.380   6.124  16.701  0.00  0.00    +0.000 A 
ENDBRANCH   9  10
BRANCH   1  16
ATOM     16  C   UNL     1       2.632   8.104  18.566  0.00  0.00    +0.000 C 
BRANCH  16  20
ATOM     17  O   UNL     1       0.635  10.255  22.239  0.00  0.00    +0.000 OA
ATOM     18  C   UNL     1       0.589  10.071  21.030  0.00  0.00    +0.000 A 
ATOM     19  N   UNL     1       1.480   9.283  20.379  0.00  0.00    +0.000 N 
ATOM     20  C   UNL     1       1.462   8.976  19.049  0.00  0.00    +0.000 A 
ATOM     21  N   UNL     1       0.517   9.398  18.262  0.00  0.00    +0.000 NA
ATOM     22  C   UNL     1      -0.450  10.266  18.826  0.00  0.00    +0.000 A 
ATOM     23  C   UNL     1      -1.456  10.802  18.020  0.00  0.00    +0.000 A 
ATOM     24  C   UNL     1      -2.346  11.759  18.535  0.00  0.00    +0.000 A 
ATOM     25  C   UNL     1      -2.233  12.184  19.862  0.00  0.00    +0.000 A 
ATOM     26 CL   UNL     1      -3.265  13.422  20.465  0.00  0.00    +0.000 Cl
ATOM     27  C   UNL     1      -1.279  11.634  20.694  0.00  0.00    +0.000 A 
ATOM     28  C   UNL     1      -0.417  10.677  20.169  0.00  0.00    +0.000 A 
ATOM     29  H   UNL     1       2.240   8.938  20.935  0.00  0.00    +0.000 HD
ENDBRANCH  16  20
ENDBRANCH   1  16
TORSDOF 3
ENDMDL
MODEL 4
REMARK VINA RESULT:      -9.4      1.507      1.684
REMARK  Name = 
REMARK  3 active torsions:
REMARK  status: ('A' for Active; 'I' for Inactive)
REMARK    1  A    between atoms: C_4  and  C_5
REMARK    2  A    between atoms: C_5  and  N_6
REMARK    3  A    between atoms: C_14  and  C_15
REMARK                            x       y       z     vdW  Elec       q    Type
REMARK                         _______ _______ _______ _____ _____    ______ ____
ROOT
ATOM      1  N   UNL     1       2.379   6.969  18.685  0.00  0.00    +0.000 NA
ATOM      2  C   UNL     1       2.035   6.809  20.101  0.00  0.00    +0.000 C 
ATOM      3  C   UNL     1       1.371   5.485  20.517  0.00  0.00    +0.000 C 
ATOM      4  C   UNL     1       1.861   4.357  19.682  0.00  0.00    +0.000 A 
ATOM      5  S   UNL     1       1.684   2.736  20.163  0.00  0.00    +0.000 S 
ATOM      6  C   UNL     1       2.384   2.174  18.710  0.00  0.00    +0.000 A 
ATOM      7  C   UNL     1       2.740   3.211  17.876  0.00  0.00    +0.000 A 
ATOM      8  C   UNL     1       2.485   4.501  18.460  0.00  0.00    +0.000 A 
ATOM      9  C   UNL     1       2.850   5.844  17.860  0.00  0.00    +0.000 C 
ENDROOT
BRANCH   9  10
ATOM     10  C   UNL     1       4.357   5.744  17.610  0.00  0.00    +0.000 A 
ATOM     11  C   UNL     1       5.234   5.613  18.703  0.00  0.00    +0.000 A 
ATOM     12  C   UNL     1       6.620   5.601  18.514  0.00  0.00    +0.000 A 
ATOM     13  C   UNL     1       7.155   5.681  17.231  0.00  0.00    +0.000 A 
ATOM     14  C   UNL     1       6.309   5.789  16.135  0.00  0.00    +0.000 A 
ATOM     15  C   UNL     1       4.927   5.848  16.325  0.00  0.00    +0.000 A 
ENDBRANCH   9  10
BRANCH   1  16
ATOM     16  C   UNL     1       2.591   8.340  18.181  0.00  0.00    +0.000 C 
BRANCH  16  20
ATOM     17  O   UNL     1      -1.628   9.976  16.907  0.00  0.00    +0.000 OA
ATOM     18  C   UNL     1      -0.741  10.019  17.750  0.00  0.00    +0.000 A 
ATOM     19  N   UNL     1       0.395   9.286  17.648  0.00  0.00    +0.000 N 
ATOM     20  C   UNL     1       1.456   9.322  18.507  0.00  0.00    +0.000 A 
ATOM     21  N   UNL     1       1.487  10.135  19.522  0.00  0.00    +0.000 NA
ATOM     22  C   UNL     1       0.332  10.922  19.751  0.00  0.00    +0.000 A 
ATOM     23  C   UNL     1       0.279  11.771  20.857  0.00  0.00    +0.000 A 
ATOM     24  C   UNL     1      -0.903  12.464  21.167  0.00  0.00    +0.000 A 
ATOM     25  C   UNL     1      -2.039  12.310  20.368  0.00  0.00    +0.000 A 
ATOM     26 CL   UNL     1      -3.513  13.087  20.800  0.00  0.00    +0.000 Cl
ATOM     27  C   UNL     1      -1.999  11.517  19.240  0.00  0.00    +0.000 A 
ATOM     28  C   UNL     1      -0.814  10.850  18.942  0.00  0.00    +0.000 A 
ATOM     29  H   UNL     1       0.422   8.631  16.889  0.00  0.00    +0.000 HD
ENDBRANCH  16  20
ENDBRANCH   1  16
TORSDOF 3
ENDMDL
MODEL 5
REMARK VINA RESULT:      -9.2      2.142      2.587
REMARK  Name = 
REMARK  3 active torsions:
REMARK  status: ('A' for Active; 'I' for Inactive)
REMARK    1  A    between atoms: C_4  and  C_5
REMARK    2  A    between atoms: C_5  and  N_6
REMARK    3  A    between atoms: C_14  and  C_15
REMARK                            x       y       z     vdW  Elec       q    Type
REMARK                         _______ _______ _______ _____ _____    ______ ____
ROOT
ATOM      1  N   UNL     1       2.474   7.041  18.514  0.00  0.00    +0.000 NA
ATOM      2  C   UNL     1       2.204   7.275  19.935  0.00  0.00    +0.000 C 
ATOM      3  C   UNL     1       1.472   6.161  20.705  0.00  0.00    +0.000 C 
ATOM      4  C   UNL     1       1.829   4.821  20.170  0.00  0.00    +0.000 A 
ATOM      5  S   UNL     1       1.564   3.397  21.059  0.00  0.00    +0.000 S 
ATOM      6  C   UNL     1       2.135   2.426  19.774  0.00  0.00    +0.000 A 
ATOM      7  C   UNL     1       2.514   3.184  18.688  0.00  0.00    +0.000 A 
ATOM      8  C   UNL     1       2.387   4.596  18.929  0.00  0.00    +0.000 A 
ATOM      9  C   UNL     1       2.813   5.707  17.989  0.00  0.00    +0.000 C 
ENDROOT
BRANCH   9  10
ATOM     10  C   UNL     1       4.291   5.419  17.715  0.00  0.00    +0.000 A 
ATOM     11  C   UNL     1       4.690   5.009  16.429  0.00  0.00    +0.000 A 
ATOM     12  C   UNL     1       6.020   4.660  16.167  0.00  0.00    +0.000 A 
ATOM     13  C   UNL     1       6.981   4.751  17.171  0.00  0.00    +0.000 A 
ATOM     14  C   UNL     1       6.614   5.175  18.443  0.00  0.00    +0.000 A 
ATOM     15  C   UNL     1       5.280   5.478  18.718  0.00  0.00    +0.000 A 
ENDBRANCH   9  10
BRANCH   1  16
ATOM     16  C   UNL     1       2.754   8.215  17.666  0.00  0.00    +0.000 C 
BRANCH  16  20
ATOM     17  O   UNL     1      -1.607   9.940  17.985  0.00  0.00    +0.000 OA
ATOM     18  C   UNL     1      -0.417  10.169  18.152  0.00  0.00    +0.000 A 
ATOM     19  N   UNL     1       0.545   9.253  17.882  0.00  0.00    +0.000 N 
ATOM     20  C   UNL     1       1.893   9.448  17.980  0.00  0.00    +0.000 A 
ATOM     21  N   UNL     1       2.395  10.601  18.314  0.00  0.00    +0.000 NA
ATOM     22  C   UNL     1       1.480  11.625  18.661  0.00  0.00    +0.000 A 
ATOM     23  C   UNL     1       1.955  12.866  19.086  0.00  0.00    +0.000 A 
ATOM     24  C   UNL     1       1.064  13.848  19.550  0.00  0.00    +0.000 A 
ATOM     25  C   UNL     1      -0.309  13.592  19.589  0.00  0.00    +0.000 A 
ATOM     26 CL   UNL     1      -1.389  14.761  20.242  0.00  0.00    +0.000 Cl
ATOM     27  C   UNL     1      -0.810  12.392  19.127  0.00  0.00    +0.000 A 
ATOM     28  C   UNL     1       0.087  11.437  18.658  0.00  0.00    +0.000 A 
ATOM     29  H   UNL     1       0.216   8.340  17.629  0.00  0.00    +0.000 HD
ENDBRANCH  16  20
ENDBRANCH   1  16
TORSDOF 3
ENDMDL
MODEL 6
REMARK VINA RESULT:      -8.7      2.222      4.168
REMARK  Name = 
REMARK  3 active torsions:
REMARK  status: ('A' for Active; 'I' for Inactive)
REMARK    1  A    between atoms: C_4  and  C_5
REMARK    2  A    between atoms: C_5  and  N_6
REMARK    3  A    between atoms: C_14  and  C_15
REMARK                            x       y       z     vdW  Elec       q    Type
REMARK                         _______ _______ _______ _____ _____    ______ ____
ROOT
ATOM      1  N   UNL     1       2.380   7.107  19.685  0.00  0.00    +0.000 NA
ATOM      2  C   UNL     1       2.198   7.850  18.435  0.00  0.00    +0.000 C 
ATOM      3  C   UNL     1       3.392   7.904  17.467  0.00  0.00    +0.000 C 
ATOM      4  C   UNL     1       4.195   6.655  17.543  0.00  0.00    +0.000 A 
ATOM      5  S   UNL     1       5.283   6.208  16.315  0.00  0.00    +0.000 S 
ATOM      6  C   UNL     1       5.778   4.824  17.186  0.00  0.00    +0.000 A 
ATOM      7  C   UNL     1       5.123   4.716  18.393  0.00  0.00    +0.000 A 
ATOM      8  C   UNL     1       4.152   5.758  18.590  0.00  0.00    +0.000 A 
ATOM      9  C   UNL     1       3.190   5.879  19.755  0.00  0.00    +0.000 C 
ENDROOT
BRANCH   9  10
ATOM     10  C   UNL     1       2.438   4.546  19.758  0.00  0.00    +0.000 A 
ATOM     11  C   UNL     1       1.793   4.111  18.585  0.00  0.00    +0.000 A 
ATOM     12  C   UNL     1       1.030   2.938  18.577  0.00  0.00    +0.000 A 
ATOM     13  C   UNL     1       0.927   2.160  19.726  0.00  0.00    +0.000 A 
ATOM     14  C   UNL     1       1.573   2.557  20.891  0.00  0.00    +0.000 A 
ATOM     15  C   UNL     1       2.296   3.750  20.914  0.00  0.00    +0.000 A 
ENDBRANCH   9  10
BRANCH   1  16
ATOM     16  C   UNL     1       1.458   7.398  20.799  0.00  0.00    +0.000 C 
BRANCH  16  20
ATOM     17  O   UNL     1      -0.461  10.850  23.350  0.00  0.00    +0.000 OA
ATOM     18  C   UNL     1      -0.060  10.517  22.242  0.00  0.00    +0.000 A 
ATOM     19  N   UNL     1       0.453   9.286  21.994  0.00  0.00    +0.000 N 
ATOM     20  C   UNL     1       0.863   8.814  20.780  0.00  0.00    +0.000 A 
ATOM     21  N   UNL     1       0.749   9.525  19.697  0.00  0.00    +0.000 NA
ATOM     22  C   UNL     1       0.263  10.847  19.842  0.00  0.00    +0.000 A 
ATOM     23  C   UNL     1       0.175  11.681  18.727  0.00  0.00    +0.000 A 
ATOM     24  C   UNL     1      -0.187  13.031  18.874  0.00  0.00    +0.000 A 
ATOM     25  C   UNL     1      -0.464  13.552  20.141  0.00  0.00    +0.000 A 
ATOM     26 CL   UNL     1      -0.817  15.225  20.330  0.00  0.00    +0.000 Cl
ATOM     27  C   UNL     1      -0.432  12.737  21.254  0.00  0.00    +0.000 A 
ATOM     28  C   UNL     1      -0.086  11.400  21.086  0.00  0.00    +0.000 A 
ATOM     29  H   UNL     1       0.575   8.697  22.797  0.00  0.00    +0.000 HD
ENDBRANCH  16  20
ENDBRANCH   1  16
TORSDOF 3
ENDMDL
MODEL 7
REMARK VINA RESULT:      -8.7      1.601      1.932
REMARK  Name = 
REMARK  3 active torsions:
REMARK  status: ('A' for Active; 'I' for Inactive)
REMARK    1  A    between atoms: C_4  and  C_5
REMARK    2  A    between atoms: C_5  and  N_6
REMARK    3  A    between atoms: C_14  and  C_15
REMARK                            x       y       z     vdW  Elec       q    Type
REMARK                         _______ _______ _______ _____ _____    ______ ____
ROOT
ATOM      1  N   UNL     1       2.499   6.820  18.515  0.00  0.00    +0.000 NA
ATOM      2  C   UNL     1       2.263   6.908  19.959  0.00  0.00    +0.000 C 
ATOM      3  C   UNL     1       1.532   5.730  20.625  0.00  0.00    +0.000 C 
ATOM      4  C   UNL     1       1.857   4.449  19.946  0.00  0.00    +0.000 A 
ATOM      5  S   UNL     1       1.590   2.942  20.688  0.00  0.00    +0.000 S 
ATOM      6  C   UNL     1       2.117   2.104  19.296  0.00  0.00    +0.000 A 
ATOM      7  C   UNL     1       2.483   2.966  18.286  0.00  0.00    +0.000 A 
ATOM      8  C   UNL     1       2.384   4.347  18.675  0.00  0.00    +0.000 A 
ATOM      9  C   UNL     1       2.805   5.544  17.846  0.00  0.00    +0.000 C 
ENDROOT
BRANCH   9  10
ATOM     10  C   UNL     1       4.272   5.268  17.508  0.00  0.00    +0.000 A 
ATOM     11  C   UNL     1       5.241   5.328  18.527  0.00  0.00    +0.000 A 
ATOM     12  C   UNL     1       6.600   5.159  18.238  0.00  0.00    +0.000 A 
ATOM     13  C   UNL     1       7.012   4.893  16.935  0.00  0.00    +0.000 A 
ATOM     14  C   UNL     1       6.072   4.808  15.915  0.00  0.00    +0.000 A 
ATOM     15  C   UNL     1       4.721   5.020  16.195  0.00  0.00    +0.000 A 
ENDBRANCH   9  10
BRANCH   1  16
ATOM     16  C   UNL     1       2.778   8.073  17.787  0.00  0.00    +0.000 C 
BRANCH  16  20
ATOM     17  O   UNL     1       2.547  12.768  17.789  0.00  0.00    +0.000 OA
ATOM     18  C   UNL     1       2.041  11.733  18.202  0.00  0.00    +0.000 A 
ATOM     19  N   UNL     1       2.532  10.509  17.888  0.00  0.00    +0.000 N 
ATOM     20  C   UNL     1       2.069   9.312  18.355  0.00  0.00    +0.000 A 
ATOM     21  N   UNL     1       1.097   9.244  19.217  0.00  0.00    +0.000 NA
ATOM     22  C   UNL     1       0.478  10.463  19.586  0.00  0.00    +0.000 A 
ATOM     23  C   UNL     1      -0.608  10.452  20.462  0.00  0.00    +0.000 A 
ATOM     24  C   UNL     1      -1.310  11.637  20.741  0.00  0.00    +0.000 A 
ATOM     25  C   UNL     1      -0.924  12.841  20.144  0.00  0.00    +0.000 A 
ATOM     26 CL   UNL     1      -1.838  14.273  20.415  0.00  0.00    +0.000 Cl
ATOM     27  C   UNL     1       0.178  12.888  19.315  0.00  0.00    +0.000 A 
ATOM     28  C   UNL     1       0.867  11.707  19.062  0.00  0.00    +0.000 A 
ATOM     29  H   UNL     1       3.277  10.499  17.216  0.00  0.00    +0.000 HD
ENDBRANCH  16  20
ENDBRANCH   1  16
TORSDOF 3
ENDMDL
MODEL 8
REMARK VINA RESULT:      -8.6      2.549      4.227
REMARK  Name = 
REMARK  3 active torsions:
REMARK  status: ('A' for Active; 'I' for Inactive)
REMARK    1  A    between atoms: C_4  and  C_5
REMARK    2  A    between atoms: C_5  and  N_6
REMARK    3  A    between atoms: C_14  and  C_15
REMARK                            x       y       z     vdW  Elec       q    Type
REMARK                         _______ _______ _______ _____ _____    ______ ____
ROOT
ATOM      1  N   UNL     1       2.510   7.491  19.126  0.00  0.00    +0.000 NA
ATOM      2  C   UNL     1       2.616   7.922  17.729  0.00  0.00    +0.000 C 
ATOM      3  C   UNL     1       3.960   7.680  17.019  0.00  0.00    +0.000 C 
ATOM      4  C   UNL     1       4.616   6.447  17.527  0.00  0.00    +0.000 A 
ATOM      5  S   UNL     1       5.853   5.664  16.662  0.00  0.00    +0.000 S 
ATOM      6  C   UNL     1       6.057   4.505  17.900  0.00  0.00    +0.000 A 
ATOM      7  C   UNL     1       5.196   4.723  18.954  0.00  0.00    +0.000 A 
ATOM      8  C   UNL     1       4.308   5.831  18.722  0.00  0.00    +0.000 A 
ATOM      9  C   UNL     1       3.176   6.276  19.625  0.00  0.00    +0.000 C 
ENDROOT
BRANCH   9  10
ATOM     10  C   UNL     1       2.312   5.023  19.786  0.00  0.00    +0.000 A 
ATOM     11  C   UNL     1       2.154   4.449  21.062  0.00  0.00    +0.000 A 
ATOM     12  C   UNL     1       1.438   3.259  21.231  0.00  0.00    +0.000 A 
ATOM     13  C   UNL     1       0.836   2.640  20.138  0.00  0.00    +0.000 A 
ATOM     14  C   UNL     1       0.960   3.199  18.872  0.00  0.00    +0.000 A 
ATOM     15  C   UNL     1       1.712   4.361  18.695  0.00  0.00    +0.000 A 
ENDBRANCH   9  10
BRANCH   1  16
ATOM     16  C   UNL     1       1.440   8.088  19.949  0.00  0.00    +0.000 C 
BRANCH  16  20
ATOM     17  O   UNL     1      -2.117  10.868  18.638  0.00  0.00    +0.000 OA
ATOM     18  C   UNL     1      -0.926  10.816  18.915  0.00  0.00    +0.000 A 
ATOM     19  N   UNL     1      -0.310   9.660  19.261  0.00  0.00    +0.000 N 
ATOM     20  C   UNL     1       1.022   9.503  19.523  0.00  0.00    +0.000 A 
ATOM     21  N   UNL     1       1.861  10.491  19.413  0.00  0.00    +0.000 NA
ATOM     22  C   UNL     1       1.321  11.761  19.097  0.00  0.00    +0.000 A 
ATOM     23  C   UNL     1       2.161  12.874  19.024  0.00  0.00    +0.000 A 
ATOM     24  C   UNL     1       1.625  14.159  18.833  0.00  0.00    +0.000 A 
ATOM     25  C   UNL     1       0.244  14.335  18.713  0.00  0.00    +0.000 A 
ATOM     26 CL   UNL     1      -0.417  15.918  18.571  0.00  0.00    +0.000 Cl
ATOM     27  C   UNL     1      -0.604  13.247  18.731  0.00  0.00    +0.000 A 
ATOM     28  C   UNL     1      -0.054  11.982  18.907  0.00  0.00    +0.000 A 
ATOM     29  H   UNL     1      -0.911   8.864  19.373  0.00  0.00    +0.000 HD
ENDBRANCH  16  20
ENDBRANCH   1  16
TORSDOF 3
ENDMDL
MODEL 9
REMARK VINA RESULT:      -8.3      1.902      3.760
REMARK  Name = 
REMARK  3 active torsions:
REMARK  status: ('A' for Active; 'I' for Inactive)
REMARK    1  A    between atoms: C_4  and  C_5
REMARK    2  A    between atoms: C_5  and  N_6
REMARK    3  A    between atoms: C_14  and  C_15
REMARK                            x       y       z     vdW  Elec       q    Type
REMARK                         _______ _______ _______ _____ _____    ______ ____
ROOT
ATOM      1  N   UNL     1       2.149   7.148  19.735  0.00  0.00    +0.000 NA
ATOM      2  C   UNL     1       1.945   7.887  18.487  0.00  0.00    +0.000 C 
ATOM      3  C   UNL     1       3.159   8.043  17.555  0.00  0.00    +0.000 C 
ATOM      4  C   UNL     1       4.054   6.860  17.645  0.00  0.00    +0.000 A 
ATOM      5  S   UNL     1       5.208   6.511  16.446  0.00  0.00    +0.000 S 
ATOM      6  C   UNL     1       5.784   5.161  17.320  0.00  0.00    +0.000 A 
ATOM      7  C   UNL     1       5.105   4.990  18.506  0.00  0.00    +0.000 A 
ATOM      8  C   UNL     1       4.051   5.952  18.683  0.00  0.00    +0.000 A 
ATOM      9  C   UNL     1       3.049   5.985  19.820  0.00  0.00    +0.000 C 
ENDROOT
BRANCH   9  10
ATOM     10  C   UNL     1       2.403   4.598  19.790  0.00  0.00    +0.000 A 
ATOM     11  C   UNL     1       1.779   4.150  18.611  0.00  0.00    +0.000 A 
ATOM     12  C   UNL     1       1.109   2.921  18.575  0.00  0.00    +0.000 A 
ATOM     13  C   UNL     1       1.082   2.103  19.701  0.00  0.00    +0.000 A 
ATOM     14  C   UNL     1       1.710   2.514  20.870  0.00  0.00    +0.000 A 
ATOM     15  C   UNL     1       2.339   3.759  20.922  0.00  0.00    +0.000 A 
ENDBRANCH   9  10
BRANCH   1  16
ATOM     16  C   UNL     1       1.175   7.355  20.824  0.00  0.00    +0.000 C 
BRANCH  16  20
ATOM     17  O   UNL     1       1.175  11.688  19.002  0.00  0.00    +0.000 OA
ATOM     18  C   UNL     1       0.764  10.974  19.907  0.00  0.00    +0.000 A 
ATOM     19  N   UNL     1       1.083   9.660  19.998  0.00  0.00    +0.000 N 
ATOM     20  C   UNL     1       0.721   8.811  21.005  0.00  0.00    +0.000 A 
ATOM     21  N   UNL     1       0.042   9.223  22.035  0.00  0.00    +0.000 NA
ATOM     22  C   UNL     1      -0.384  10.574  22.027  0.00  0.00    +0.000 A 
ATOM     23  C   UNL     1      -1.166  11.061  23.075  0.00  0.00    +0.000 A 
ATOM     24  C   UNL     1      -1.699  12.360  23.021  0.00  0.00    +0.000 A 
ATOM     25  C   UNL     1      -1.448  13.179  21.917  0.00  0.00    +0.000 A 
ATOM     26 CL   UNL     1      -2.175  14.735  21.810  0.00  0.00    +0.000 Cl
ATOM     27  C   UNL     1      -0.636  12.740  20.891  0.00  0.00    +0.000 A 
ATOM     28  C   UNL     1      -0.107  11.456  20.969  0.00  0.00    +0.000 A 
ATOM     29  H   UNL     1       1.598   9.283  19.224  0.00  0.00    +0.000 HD
ENDBRANCH  16  20
ENDBRANCH   1  16
TORSDOF 3
ENDMDL
