MODEL 1
REMARK VINA RESULT:      -8.5      0.000      0.000
REMARK  Name = 
REMARK  7 active torsions:
REMARK  status: ('A' for Active; 'I' for Inactive)
REMARK    1  A    between atoms: C_1  and  C_2
REMARK    2  A    between atoms: C_5  and  C_6
REMARK    3  A    between atoms: N_8  and  C_9
REMARK    4  A    between atoms: C_13  and  N_14
REMARK    5  A    between atoms: N_14  and  C_15
REMARK    6  A    between atoms: C_15  and  C_16
REMARK    7  A    between atoms: C_19  and  C_20
REMARK                            x       y       z     vdW  Elec       q    Type
REMARK                         _______ _______ _______ _____ _____    ______ ____
ROOT
ATOM      1  N   UNL     1       5.092   3.220  18.307  0.00  0.00    +0.000 N 
ATOM      2  H   UNL     1       5.509   2.997  19.208  0.00  0.00    +0.000 HD
ENDROOT
BRANCH   1   9
ATOM      3  C   UNL     1       6.475   5.415  19.655  0.00  0.00    +0.000 C 
ATOM      4  C   UNL     1       6.492   5.215  18.162  0.00  0.00    +0.000 A 
ATOM      5  C   UNL     1       7.264   6.104  17.387  0.00  0.00    +0.000 A 
ATOM      6  C   UNL     1       7.359   5.955  16.004  0.00  0.00    +0.000 A 
ATOM      7  C   UNL     1       6.685   4.907  15.382  0.00  0.00    +0.000 A 
ATOM      8  C   UNL     1       5.929   4.012  16.153  0.00  0.00    +0.000 A 
ATOM      9  C   UNL     1       5.783   4.160  17.541  0.00  0.00    +0.000 A 
BRANCH   7  10
ATOM     10  C   UNL     1       6.763   4.667  13.914  0.00  0.00    +0.000 C 
ATOM     11  O   UNL     1       7.519   5.339  13.223  0.00  0.00    +0.000 OA
ATOM     12  N   UNL     1       5.986   3.635  13.419  0.00  0.00    +0.000 N 
ATOM     13  H   UNL     1       5.524   3.008  14.063  0.00  0.00    +0.000 HD
BRANCH  12  14
ATOM     14  C   UNL     1       6.014   3.274  12.037  0.00  0.00    +0.000 C 
ATOM     15  C   UNL     1       4.749   2.879  11.327  0.00  0.00    +0.000 C 
ATOM     16  C   UNL     1       5.799   1.847  11.614  0.00  0.00    +0.000 C 
ENDBRANCH  12  14
ENDBRANCH   7  10
ENDBRANCH   1   9
BRANCH   1  17
ATOM     17  C   UNL     1       3.620   3.186  18.355  0.00  0.00    +0.000 C 
BRANCH  17  18
ATOM     18  C   UNL     1       2.986   4.251  19.205  0.00  0.00    +0.000 A 
ATOM     19  N   UNL     1       2.556   4.157  20.449  0.00  0.00    +0.000 NA
ATOM     20  C   UNL     1       2.075   5.411  20.720  0.00  0.00    +0.000 A 
ATOM     21  C   UNL     1       2.249   6.248  19.638  0.00  0.00    +0.000 A 
ATOM     22  O   UNL     1       2.846   5.500  18.649  0.00  0.00    +0.000 OA
BRANCH  21  23
ATOM     23  C   UNL     1       1.936   7.647  19.356  0.00  0.00    +0.000 A 
ATOM     24  C   UNL     1       2.185   8.230  18.103  0.00  0.00    +0.000 A 
ATOM     25  C   UNL     1       1.840   9.567  17.850  0.00  0.00    +0.000 A 
ATOM     26  C   UNL     1       1.246  10.343  18.843  0.00  0.00    +0.000 A 
ATOM     27  C   UNL     1       1.008   9.788  20.096  0.00  0.00    +0.000 A 
ATOM     28  C   UNL     1       1.355   8.459  20.342  0.00  0.00    +0.000 A 
ATOM     29  F   UNL     1       1.106   7.973  21.568  0.00  0.00    +0.000 F 
ENDBRANCH  21  23
ENDBRANCH  17  18
ENDBRANCH   1  17
TORSDOF 6
ENDMDL
MODEL 2
REMARK VINA RESULT:      -8.1      3.520      9.431
REMARK  Name = 
REMARK  7 active torsions:
REMARK  status: ('A' for Active; 'I' for Inactive)
REMARK    1  A    between atoms: C_1  and  C_2
REMARK    2  A    between atoms: C_5  and  C_6
REMARK    3  A    between atoms: N_8  and  C_9
REMARK    4  A    between atoms: C_13  and  N_14
REMARK    5  A    between atoms: N_14  and  C_15
REMARK    6  A    between atoms: C_15  and  C_16
REMARK    7  A    between atoms: C_19  and  C_20
REMARK                            x       y       z     vdW  Elec       q    Type
REMARK                         _______ _______ _______ _____ _____    ______ ____
ROOT
ATOM      1  N   UNL     1       2.226   7.438  20.644  0.00  0.00    +0.000 N 
ATOM      2  H   UNL     1       2.959   7.523  21.345  0.00  0.00    +0.000 HD
ENDROOT
BRANCH   1   9
ATOM      3  C   UNL     1       1.963   8.457  17.917  0.00  0.00    +0.000 C 
ATOM      4  C   UNL     1       1.295   9.091  19.109  0.00  0.00    +0.000 A 
ATOM      5  C   UNL     1       0.455  10.200  18.880  0.00  0.00    +0.000 A 
ATOM      6  C   UNL     1      -0.227  10.814  19.930  0.00  0.00    +0.000 A 
ATOM      7  C   UNL     1      -0.080  10.317  21.223  0.00  0.00    +0.000 A 
ATOM      8  C   UNL     1       0.742   9.203  21.450  0.00  0.00    +0.000 A 
ATOM      9  C   UNL     1       1.472   8.590  20.420  0.00  0.00    +0.000 A 
BRANCH   7  10
ATOM     10  C   UNL     1      -0.800  10.900  22.389  0.00  0.00    +0.000 C 
ATOM     11  O   UNL     1      -0.474  10.590  23.527  0.00  0.00    +0.000 OA
ATOM     12  N   UNL     1      -1.793  11.819  22.099  0.00  0.00    +0.000 N 
ATOM     13  H   UNL     1      -1.891  12.162  21.153  0.00  0.00    +0.000 HD
BRANCH  12  14
ATOM     14  C   UNL     1      -2.520  12.486  23.133  0.00  0.00    +0.000 C 
ATOM     15  C   UNL     1      -3.315  13.725  22.827  0.00  0.00    +0.000 C 
ATOM     16  C   UNL     1      -2.064  13.822  23.649  0.00  0.00    +0.000 C 
ENDBRANCH  12  14
ENDBRANCH   7  10
ENDBRANCH   1   9
BRANCH   1  17
ATOM     17  C   UNL     1       1.617   6.097  20.642  0.00  0.00    +0.000 C 
BRANCH  17  18
ATOM     18  C   UNL     1       2.456   5.017  20.021  0.00  0.00    +0.000 A 
ATOM     19  N   UNL     1       2.431   3.720  20.262  0.00  0.00    +0.000 NA
ATOM     20  C   UNL     1       3.395   3.217  19.428  0.00  0.00    +0.000 A 
ATOM     21  C   UNL     1       3.967   4.223  18.677  0.00  0.00    +0.000 A 
ATOM     22  O   UNL     1       3.357   5.397  19.055  0.00  0.00    +0.000 OA
BRANCH  21  23
ATOM     23  C   UNL     1       5.014   4.281  17.659  0.00  0.00    +0.000 A 
ATOM     24  C   UNL     1       4.777   3.928  16.322  0.00  0.00    +0.000 A 
ATOM     25  C   UNL     1       5.792   4.029  15.359  0.00  0.00    +0.000 A 
ATOM     26  C   UNL     1       7.062   4.481  15.717  0.00  0.00    +0.000 A 
ATOM     27  C   UNL     1       7.321   4.818  17.041  0.00  0.00    +0.000 A 
ATOM     28  C   UNL     1       6.307   4.714  17.994  0.00  0.00    +0.000 A 
ATOM     29  F   UNL     1       6.610   5.051  19.256  0.00  0.00    +0.000 F 
ENDBRANCH  21  23
ENDBRANCH  17  18
ENDBRANCH   1  17
TORSDOF 6
ENDMDL
MODEL 3
REMARK VINA RESULT:      -8.0      3.943      6.492
REMARK  Name = 
REMARK  7 active torsions:
REMARK  status: ('A' for Active; 'I' for Inactive)
REMARK    1  A    between atoms: C_1  and  C_2
REMARK    2  A    between atoms: C_5  and  C_6
REMARK    3  A    between atoms: N_8  and  C_9
REMARK    4  A    between atoms: C_13  and  N_14
REMARK    5  A    between atoms: N_14  and  C_15
REMARK    6  A    between atoms: C_15  and  C_16
REMARK    7  A    between atoms: C_19  and  C_20
REMARK                            x       y       z     vdW  Elec       q    Type
REMARK                         _______ _______ _______ _____ _____    ______ ____
ROOT
ATOM      1  N   UNL     1       6.223   6.347  15.907  0.00  0.00    +0.000 N 
ATOM      2  H   UNL     1       6.396   5.395  15.591  0.00  0.00    +0.000 HD
ENDROOT
BRANCH   1   9
ATOM      3  C   UNL     1       6.931   4.348  17.919  0.00  0.00    +0.000 C 
ATOM      4  C   UNL     1       7.326   5.798  18.014  0.00  0.00    +0.000 A 
ATOM      5  C   UNL     1       8.127   6.193  19.105  0.00  0.00    +0.000 A 
ATOM      6  C   UNL     1       8.564   7.510  19.237  0.00  0.00    +0.000 A 
ATOM      7  C   UNL     1       8.207   8.448  18.271  0.00  0.00    +0.000 A 
ATOM      8  C   UNL     1       7.424   8.054  17.176  0.00  0.00    +0.000 A 
ATOM      9  C   UNL     1       6.936   6.745  17.037  0.00  0.00    +0.000 A 
BRANCH   7  10
ATOM     10  C   UNL     1       8.661   9.865  18.328  0.00  0.00    +0.000 C 
ATOM     11  O   UNL     1       8.202  10.687  17.546  0.00  0.00    +0.000 OA
ATOM     12  N   UNL     1       9.569  10.179  19.324  0.00  0.00    +0.000 N 
ATOM     13  H   UNL     1       9.771   9.498  20.044  0.00  0.00    +0.000 HD
BRANCH  12  14
ATOM     14  C   UNL     1      10.040  11.514  19.514  0.00  0.00    +0.000 C 
ATOM     15  C   UNL     1      10.523  11.966  20.864  0.00  0.00    +0.000 C 
ATOM     16  C   UNL     1       9.236  12.503  20.311  0.00  0.00    +0.000 C 
ENDBRANCH  12  14
ENDBRANCH   7  10
ENDBRANCH   1   9
BRANCH   1  17
ATOM     17  C   UNL     1       4.825   6.756  15.685  0.00  0.00    +0.000 C 
BRANCH  17  18
ATOM     18  C   UNL     1       3.967   6.784  16.917  0.00  0.00    +0.000 A 
ATOM     19  N   UNL     1       3.472   7.832  17.547  0.00  0.00    +0.000 NA
ATOM     20  C   UNL     1       2.777   7.283  18.593  0.00  0.00    +0.000 A 
ATOM     21  C   UNL     1       2.845   5.906  18.558  0.00  0.00    +0.000 A 
ATOM     22  O   UNL     1       3.614   5.573  17.467  0.00  0.00    +0.000 OA
BRANCH  21  23
ATOM     23  C   UNL     1       2.319   4.826  19.390  0.00  0.00    +0.000 A 
ATOM     24  C   UNL     1       2.688   4.673  20.736  0.00  0.00    +0.000 A 
ATOM     25  C   UNL     1       2.139   3.648  21.521  0.00  0.00    +0.000 A 
ATOM     26  C   UNL     1       1.215   2.758  20.975  0.00  0.00    +0.000 A 
ATOM     27  C   UNL     1       0.851   2.883  19.638  0.00  0.00    +0.000 A 
ATOM     28  C   UNL     1       1.402   3.903  18.863  0.00  0.00    +0.000 A 
ATOM     29  F   UNL     1       1.018   3.979  17.579  0.00  0.00    +0.000 F 
ENDBRANCH  21  23
ENDBRANCH  17  18
ENDBRANCH   1  17
TORSDOF 6
ENDMDL
MODEL 4
REMARK VINA RESULT:      -7.9      2.875      7.954
REMARK  Name = 
REMARK  7 active torsions:
REMARK  status: ('A' for Active; 'I' for Inactive)
REMARK    1  A    between atoms: C_1  and  C_2
REMARK    2  A    between atoms: C_5  and  C_6
REMARK    3  A    between atoms: N_8  and  C_9
REMARK    4  A    between atoms: C_13  and  N_14
REMARK    5  A    between atoms: N_14  and  C_15
REMARK    6  A    between atoms: C_15  and  C_16
REMARK    7  A    between atoms: C_19  and  C_20
REMARK                            x       y       z     vdW  Elec       q    Type
REMARK                         _______ _______ _______ _____ _____    ______ ____
ROOT
ATOM      1  N   UNL     1       5.452   3.640  19.312  0.00  0.00    +0.000 N 
ATOM      2  H   UNL     1       5.592   2.647  19.144  0.00  0.00    +0.000 HD
ENDROOT
BRANCH   1   9
ATOM      3  C   UNL     1       3.557   1.882  17.947  0.00  0.00    +0.000 C 
ATOM      4  C   UNL     1       3.249   3.309  18.315  0.00  0.00    +0.000 A 
ATOM      5  C   UNL     1       1.956   3.798  18.033  0.00  0.00    +0.000 A 
ATOM      6  C   UNL     1       1.587   5.096  18.382  0.00  0.00    +0.000 A 
ATOM      7  C   UNL     1       2.509   5.920  19.024  0.00  0.00    +0.000 A 
ATOM      8  C   UNL     1       3.790   5.430  19.319  0.00  0.00    +0.000 A 
ATOM      9  C   UNL     1       4.203   4.142  18.945  0.00  0.00    +0.000 A 
BRANCH   7  10
ATOM     10  C   UNL     1       2.177   7.306  19.453  0.00  0.00    +0.000 C 
ATOM     11  O   UNL     1       2.285   8.235  18.663  0.00  0.00    +0.000 OA
ATOM     12  N   UNL     1       1.708   7.452  20.747  0.00  0.00    +0.000 N 
ATOM     13  H   UNL     1       1.474   6.629  21.286  0.00  0.00    +0.000 HD
BRANCH  12  14
ATOM     14  C   UNL     1       1.307   8.724  21.259  0.00  0.00    +0.000 C 
ATOM     15  C   UNL     1       0.151   8.830  22.215  0.00  0.00    +0.000 C 
ATOM     16  C   UNL     1       0.017   9.355  20.816  0.00  0.00    +0.000 C 
ENDBRANCH  12  14
ENDBRANCH   7  10
ENDBRANCH   1   9
BRANCH   1  17
ATOM     17  C   UNL     1       6.690   4.414  19.112  0.00  0.00    +0.000 C 
BRANCH  17  18
ATOM     18  C   UNL     1       6.818   5.075  17.769  0.00  0.00    +0.000 A 
ATOM     19  N   UNL     1       7.101   6.336  17.501  0.00  0.00    +0.000 NA
ATOM     20  C   UNL     1       7.087   6.386  16.132  0.00  0.00    +0.000 A 
ATOM     21  C   UNL     1       6.821   5.142  15.597  0.00  0.00    +0.000 A 
ATOM     22  O   UNL     1       6.649   4.283  16.658  0.00  0.00    +0.000 OA
BRANCH  21  23
ATOM     23  C   UNL     1       6.682   4.610  14.244  0.00  0.00    +0.000 A 
ATOM     24  C   UNL     1       5.634   3.748  13.885  0.00  0.00    +0.000 A 
ATOM     25  C   UNL     1       5.504   3.281  12.568  0.00  0.00    +0.000 A 
ATOM     26  C   UNL     1       6.421   3.665  11.590  0.00  0.00    +0.000 A 
ATOM     27  C   UNL     1       7.476   4.504  11.931  0.00  0.00    +0.000 A 
ATOM     28  C   UNL     1       7.600   4.963  13.243  0.00  0.00    +0.000 A 
ATOM     29  F   UNL     1       8.636   5.769  13.519  0.00  0.00    +0.000 F 
ENDBRANCH  21  23
ENDBRANCH  17  18
ENDBRANCH   1  17
TORSDOF 6
ENDMDL
MODEL 5
REMARK VINA RESULT:      -7.9      4.248      7.047
REMARK  Name = 
REMARK  7 active torsions:
REMARK  status: ('A' for Active; 'I' for Inactive)
REMARK    1  A    between atoms: C_1  and  C_2
REMARK    2  A    between atoms: C_5  and  C_6
REMARK    3  A    between atoms: N_8  and  C_9
REMARK    4  A    between atoms: C_13  and  N_14
REMARK    5  A    between atoms: N_14  and  C_15
REMARK    6  A    between atoms: C_15  and  C_16
REMARK    7  A    between atoms: C_19  and  C_20
REMARK                            x       y       z     vdW  Elec       q    Type
REMARK                         _______ _______ _______ _____ _____    ______ ____
ROOT
ATOM      1  N   UNL     1       7.750   4.981  17.754  0.00  0.00    +0.000 N 
ATOM      2  H   UNL     1       8.596   4.975  17.189  0.00  0.00    +0.000 HD
ENDROOT
BRANCH   1   9
ATOM      3  C   UNL     1       7.736   5.135  14.835  0.00  0.00    +0.000 C 
ATOM      4  C   UNL     1       6.531   4.750  15.652  0.00  0.00    +0.000 A 
ATOM      5  C   UNL     1       5.354   4.391  14.963  0.00  0.00    +0.000 A 
ATOM      6  C   UNL     1       4.213   3.985  15.652  0.00  0.00    +0.000 A 
ATOM      7  C   UNL     1       4.239   3.928  17.044  0.00  0.00    +0.000 A 
ATOM      8  C   UNL     1       5.414   4.268  17.731  0.00  0.00    +0.000 A 
ATOM      9  C   UNL     1       6.565   4.719  17.066  0.00  0.00    +0.000 A 
BRANCH   7  10
ATOM     10  C   UNL     1       3.070   3.475  17.846  0.00  0.00    +0.000 C 
ATOM     11  O   UNL     1       1.992   3.276  17.300  0.00  0.00    +0.000 OA
ATOM     12  N   UNL     1       3.297   3.257  19.194  0.00  0.00    +0.000 N 
ATOM     13  H   UNL     1       4.246   3.267  19.545  0.00  0.00    +0.000 HD
BRANCH  12  14
ATOM     14  C   UNL     1       2.268   2.772  20.058  0.00  0.00    +0.000 C 
ATOM     15  C   UNL     1       1.431   3.731  20.857  0.00  0.00    +0.000 C 
ATOM     16  C   UNL     1       2.424   2.847  21.551  0.00  0.00    +0.000 C 
ENDBRANCH  12  14
ENDBRANCH   7  10
ENDBRANCH   1   9
BRANCH   1  17
ATOM     17  C   UNL     1       7.816   5.978  18.837  0.00  0.00    +0.000 C 
BRANCH  17  18
ATOM     18  C   UNL     1       7.918   7.406  18.382  0.00  0.00    +0.000 A 
ATOM     19  N   UNL     1       7.193   8.030  17.473  0.00  0.00    +0.000 NA
ATOM     20  C   UNL     1       7.711   9.299  17.461  0.00  0.00    +0.000 A 
ATOM     21  C   UNL     1       8.726   9.423  18.387  0.00  0.00    +0.000 A 
ATOM     22  O   UNL     1       8.864   8.196  18.994  0.00  0.00    +0.000 OA
BRANCH  21  23
ATOM     23  C   UNL     1       9.617  10.505  18.800  0.00  0.00    +0.000 A 
ATOM     24  C   UNL     1      10.445  11.180  17.890  0.00  0.00    +0.000 A 
ATOM     25  C   UNL     1      11.263  12.240  18.310  0.00  0.00    +0.000 A 
ATOM     26  C   UNL     1      11.271  12.639  19.646  0.00  0.00    +0.000 A 
ATOM     27  C   UNL     1      10.471  11.969  20.566  0.00  0.00    +0.000 A 
ATOM     28  C   UNL     1       9.661  10.916  20.142  0.00  0.00    +0.000 A 
ATOM     29  F   UNL     1       8.910  10.303  21.069  0.00  0.00    +0.000 F 
ENDBRANCH  21  23
ENDBRANCH  17  18
ENDBRANCH   1  17
TORSDOF 6
ENDMDL
MODEL 6
REMARK VINA RESULT:      -7.8      4.461      9.363
REMARK  Name = 
REMARK  7 active torsions:
REMARK  status: ('A' for Active; 'I' for Inactive)
REMARK    1  A    between atoms: C_1  and  C_2
REMARK    2  A    between atoms: C_5  and  C_6
REMARK    3  A    between atoms: N_8  and  C_9
REMARK    4  A    between atoms: C_13  and  N_14
REMARK    5  A    between atoms: N_14  and  C_15
REMARK    6  A    between atoms: C_15  and  C_16
REMARK    7  A    between atoms: C_19  and  C_20
REMARK                            x       y       z     vdW  Elec       q    Type
REMARK                         _______ _______ _______ _____ _____    ______ ____
ROOT
ATOM      1  N   UNL     1       1.439   9.867  19.022  0.00  0.00    +0.000 N 
ATOM      2  H   UNL     1       1.298   9.137  19.717  0.00  0.00    +0.000 HD
ENDROOT
BRANCH   1   9
ATOM      3  C   UNL     1       1.943  12.741  19.213  0.00  0.00    +0.000 C 
ATOM      4  C   UNL     1       0.590  12.153  18.912  0.00  0.00    +0.000 A 
ATOM      5  C   UNL     1      -0.473  13.043  18.653  0.00  0.00    +0.000 A 
ATOM      6  C   UNL     1      -1.743  12.571  18.327  0.00  0.00    +0.000 A 
ATOM      7  C   UNL     1      -1.963  11.198  18.251  0.00  0.00    +0.000 A 
ATOM      8  C   UNL     1      -0.904  10.310  18.491  0.00  0.00    +0.000 A 
ATOM      9  C   UNL     1       0.376  10.755  18.860  0.00  0.00    +0.000 A 
BRANCH   7  10
ATOM     10  C   UNL     1      -3.284  10.620  17.879  0.00  0.00    +0.000 C 
ATOM     11  O   UNL     1      -3.343   9.524  17.338  0.00  0.00    +0.000 OA
ATOM     12  N   UNL     1      -4.398  11.365  18.223  0.00  0.00    +0.000 N 
ATOM     13  H   UNL     1      -4.290  12.172  18.824  0.00  0.00    +0.000 HD
BRANCH  12  14
ATOM     14  C   UNL     1      -5.722  10.894  17.967  0.00  0.00    +0.000 C 
ATOM     15  C   UNL     1      -6.895  11.832  18.055  0.00  0.00    +0.000 C 
ATOM     16  C   UNL     1      -6.716  10.757  19.086  0.00  0.00    +0.000 C 
ENDBRANCH  12  14
ENDBRANCH   7  10
ENDBRANCH   1   9
BRANCH   1  17
ATOM     17  C   UNL     1       2.241   9.397  17.880  0.00  0.00    +0.000 C 
BRANCH  17  18
ATOM     18  C   UNL     1       2.748   7.987  17.995  0.00  0.00    +0.000 A 
ATOM     19  N   UNL     1       3.791   7.441  17.399  0.00  0.00    +0.000 NA
ATOM     20  C   UNL     1       3.785   6.149  17.857  0.00  0.00    +0.000 A 
ATOM     21  C   UNL     1       2.749   5.948  18.745  0.00  0.00    +0.000 A 
ATOM     22  O   UNL     1       2.072   7.142  18.844  0.00  0.00    +0.000 OA
BRANCH  21  23
ATOM     23  C   UNL     1       2.263   4.809  19.522  0.00  0.00    +0.000 A 
ATOM     24  C   UNL     1       2.612   4.621  20.868  0.00  0.00    +0.000 A 
ATOM     25  C   UNL     1       2.101   3.538  21.599  0.00  0.00    +0.000 A 
ATOM     26  C   UNL     1       1.237   2.625  20.997  0.00  0.00    +0.000 A 
ATOM     27  C   UNL     1       0.894   2.785  19.659  0.00  0.00    +0.000 A 
ATOM     28  C   UNL     1       1.407   3.863  18.937  0.00  0.00    +0.000 A 
ATOM     29  F   UNL     1       1.046   3.971  17.650  0.00  0.00    +0.000 F 
ENDBRANCH  21  23
ENDBRANCH  17  18
ENDBRANCH   1  17
TORSDOF 6
ENDMDL
MODEL 7
REMARK VINA RESULT:      -7.8      1.045      1.388
REMARK  Name = 
REMARK  7 active torsions:
REMARK  status: ('A' for Active; 'I' for Inactive)
REMARK    1  A    between atoms: C_1  and  C_2
REMARK    2  A    between atoms: C_5  and  C_6
REMARK    3  A    between atoms: N_8  and  C_9
REMARK    4  A    between atoms: C_13  and  N_14
REMARK    5  A    between atoms: N_14  and  C_15
REMARK    6  A    between atoms: C_15  and  C_16
REMARK    7  A    between atoms: C_19  and  C_20
REMARK                            x       y       z     vdW  Elec       q    Type
REMARK                         _______ _______ _______ _____ _____    ______ ____
ROOT
ATOM      1  N   UNL     1       4.335   3.282  18.133  0.00  0.00    +0.000 N 
ATOM      2  H   UNL     1       4.636   2.884  19.020  0.00  0.00    +0.000 HD
ENDROOT
BRANCH   1   9
ATOM      3  C   UNL     1       6.094   5.002  19.713  0.00  0.00    +0.000 C 
ATOM      4  C   UNL     1       6.169   4.891  18.213  0.00  0.00    +0.000 A 
ATOM      5  C   UNL     1       7.181   5.614  17.548  0.00  0.00    +0.000 A 
ATOM      6  C   UNL     1       7.337   5.528  16.166  0.00  0.00    +0.000 A 
ATOM      7  C   UNL     1       6.482   4.709  15.432  0.00  0.00    +0.000 A 
ATOM      8  C   UNL     1       5.485   3.976  16.092  0.00  0.00    +0.000 A 
ATOM      9  C   UNL     1       5.279   4.073  17.478  0.00  0.00    +0.000 A 
BRANCH   7  10
ATOM     10  C   UNL     1       6.606   4.543  13.957  0.00  0.00    +0.000 C 
ATOM     11  O   UNL     1       7.451   5.178  13.339  0.00  0.00    +0.000 OA
ATOM     12  N   UNL     1       5.762   3.616  13.371  0.00  0.00    +0.000 N 
ATOM     13  H   UNL     1       5.216   3.001  13.958  0.00  0.00    +0.000 HD
BRANCH  12  14
ATOM     14  C   UNL     1       5.822   3.330  11.972  0.00  0.00    +0.000 C 
ATOM     15  C   UNL     1       4.584   2.916  11.226  0.00  0.00    +0.000 C 
ATOM     16  C   UNL     1       5.677   1.919  11.473  0.00  0.00    +0.000 C 
ENDBRANCH  12  14
ENDBRANCH   7  10
ENDBRANCH   1   9
BRANCH   1  17
ATOM     17  C   UNL     1       2.903   3.625  18.139  0.00  0.00    +0.000 C 
BRANCH  17  18
ATOM     18  C   UNL     1       2.519   4.745  19.064  0.00  0.00    +0.000 A 
ATOM     19  N   UNL     1       2.358   4.706  20.374  0.00  0.00    +0.000 NA
ATOM     20  C   UNL     1       2.011   5.992  20.695  0.00  0.00    +0.000 A 
ATOM     21  C   UNL     1       1.997   6.792  19.572  0.00  0.00    +0.000 A 
ATOM     22  O   UNL     1       2.331   5.987  18.506  0.00  0.00    +0.000 OA
BRANCH  21  23
ATOM     23  C   UNL     1       1.705   8.200  19.312  0.00  0.00    +0.000 A 
ATOM     24  C   UNL     1       0.926   8.975  20.185  0.00  0.00    +0.000 A 
ATOM     25  C   UNL     1       0.693  10.334  19.929  0.00  0.00    +0.000 A 
ATOM     26  C   UNL     1       1.231  10.941  18.795  0.00  0.00    +0.000 A 
ATOM     27  C   UNL     1       1.991  10.185  17.909  0.00  0.00    +0.000 A 
ATOM     28  C   UNL     1       2.218   8.834  18.169  0.00  0.00    +0.000 A 
ATOM     29  F   UNL     1       2.956   8.150  17.282  0.00  0.00    +0.000 F 
ENDBRANCH  21  23
ENDBRANCH  17  18
ENDBRANCH   1  17
TORSDOF 6
ENDMDL
MODEL 8
REMARK VINA RESULT:      -7.8      3.676      9.523
REMARK  Name = 
REMARK  7 active torsions:
REMARK  status: ('A' for Active; 'I' for Inactive)
REMARK    1  A    between atoms: C_1  and  C_2
REMARK    2  A    between atoms: C_5  and  C_6
REMARK    3  A    between atoms: N_8  and  C_9
REMARK    4  A    between atoms: C_13  and  N_14
REMARK    5  A    between atoms: N_14  and  C_15
REMARK    6  A    between atoms: C_15  and  C_16
REMARK    7  A    between atoms: C_19  and  C_20
REMARK                            x       y       z     vdW  Elec       q    Type
REMARK                         _______ _______ _______ _____ _____    ______ ____
ROOT
ATOM      1  N   UNL     1       2.111   7.656  20.784  0.00  0.00    +0.000 N 
ATOM      2  H   UNL     1       2.806   7.793  21.513  0.00  0.00    +0.000 HD
ENDROOT
BRANCH   1   9
ATOM      3  C   UNL     1       1.847   8.448  17.981  0.00  0.00    +0.000 C 
ATOM      4  C   UNL     1       1.170   9.171  19.116  0.00  0.00    +0.000 A 
ATOM      5  C   UNL     1       0.320  10.250  18.796  0.00  0.00    +0.000 A 
ATOM      6  C   UNL     1      -0.372  10.939  19.791  0.00  0.00    +0.000 A 
ATOM      7  C   UNL     1      -0.224  10.551  21.120  0.00  0.00    +0.000 A 
ATOM      8  C   UNL     1       0.607   9.467  21.439  0.00  0.00    +0.000 A 
ATOM      9  C   UNL     1       1.347   8.779  20.464  0.00  0.00    +0.000 A 
BRANCH   7  10
ATOM     10  C   UNL     1      -0.954  11.219  22.233  0.00  0.00    +0.000 C 
ATOM     11  O   UNL     1      -0.684  10.945  23.395  0.00  0.00    +0.000 OA
ATOM     12  N   UNL     1      -1.888  12.173  21.868  0.00  0.00    +0.000 N 
ATOM     13  H   UNL     1      -1.936  12.479  20.906  0.00  0.00    +0.000 HD
BRANCH  12  14
ATOM     14  C   UNL     1      -2.616  12.920  22.845  0.00  0.00    +0.000 C 
ATOM     15  C   UNL     1      -4.115  12.831  22.910  0.00  0.00    +0.000 C 
ATOM     16  C   UNL     1      -3.460  14.095  22.437  0.00  0.00    +0.000 C 
ENDBRANCH  12  14
ENDBRANCH   7  10
ENDBRANCH   1   9
BRANCH   1  17
ATOM     17  C   UNL     1       1.528   6.304  20.821  0.00  0.00    +0.000 C 
BRANCH  17  18
ATOM     18  C   UNL     1       2.417   5.213  20.297  0.00  0.00    +0.000 A 
ATOM     19  N   UNL     1       2.438   3.938  20.640  0.00  0.00    +0.000 NA
ATOM     20  C   UNL     1       3.434   3.410  19.860  0.00  0.00    +0.000 A 
ATOM     21  C   UNL     1       3.980   4.376  19.040  0.00  0.00    +0.000 A 
ATOM     22  O   UNL     1       3.319   5.551  19.316  0.00  0.00    +0.000 OA
BRANCH  21  23
ATOM     23  C   UNL     1       5.040   4.396  18.035  0.00  0.00    +0.000 A 
ATOM     24  C   UNL     1       6.349   4.801  18.339  0.00  0.00    +0.000 A 
ATOM     25  C   UNL     1       7.356   4.776  17.362  0.00  0.00    +0.000 A 
ATOM     26  C   UNL     1       7.071   4.348  16.066  0.00  0.00    +0.000 A 
ATOM     27  C   UNL     1       5.775   3.959  15.742  0.00  0.00    +0.000 A 
ATOM     28  C   UNL     1       4.779   3.988  16.717  0.00  0.00    +0.000 A 
ATOM     29  F   UNL     1       3.546   3.605  16.352  0.00  0.00    +0.000 F 
ENDBRANCH  21  23
ENDBRANCH  17  18
ENDBRANCH   1  17
TORSDOF 6
ENDMDL
MODEL 9
REMARK VINA RESULT:      -7.7      3.028      4.983
REMARK  Name = 
REMARK  7 active torsions:
REMARK  status: ('A' for Active; 'I' for Inactive)
REMARK    1  A    between atoms: C_1  and  C_2
REMARK    2  A    between atoms: C_5  and  C_6
REMARK    3  A    between atoms: N_8  and  C_9
REMARK    4  A    between atoms: C_13  and  N_14
REMARK    5  A    between atoms: N_14  and  C_15
REMARK    6  A    between atoms: C_15  and  C_16
REMARK    7  A    between atoms: C_19  and  C_20
REMARK                            x       y       z     vdW  Elec       q    Type
REMARK                         _______ _______ _______ _____ _____    ______ ____
ROOT
ATOM      1  N   UNL     1       2.177   6.493  18.776  0.00  0.00    +0.000 N 
ATOM      2  H   UNL     1       1.242   6.339  18.406  0.00  0.00    +0.000 HD
ENDROOT
BRANCH   1   9
ATOM      3  C   UNL     1       1.640   3.811  17.742  0.00  0.00    +0.000 C 
ATOM      4  C   UNL     1       2.966   4.510  17.592  0.00  0.00    +0.000 A 
ATOM      5  C   UNL     1       3.979   3.852  16.863  0.00  0.00    +0.000 A 
ATOM      6  C   UNL     1       5.218   4.454  16.649  0.00  0.00    +0.000 A 
ATOM      7  C   UNL     1       5.455   5.728  17.159  0.00  0.00    +0.000 A 
ATOM      8  C   UNL     1       4.444   6.392  17.870  0.00  0.00    +0.000 A 
ATOM      9  C   UNL     1       3.201   5.795  18.135  0.00  0.00    +0.000 A 
BRANCH   7  10
ATOM     10  C   UNL     1       6.741   6.447  16.945  0.00  0.00    +0.000 C 
ATOM     11  O   UNL     1       7.505   6.085  16.060  0.00  0.00    +0.000 OA
ATOM     12  N   UNL     1       6.975   7.542  17.758  0.00  0.00    +0.000 N 
ATOM     13  H   UNL     1       6.230   7.894  18.344  0.00  0.00    +0.000 HD
BRANCH  12  14
ATOM     14  C   UNL     1       8.149   8.344  17.615  0.00  0.00    +0.000 C 
ATOM     15  C   UNL     1       8.757   9.025  18.810  0.00  0.00    +0.000 C 
ATOM     16  C   UNL     1       8.076   9.839  17.750  0.00  0.00    +0.000 C 
ENDBRANCH  12  14
ENDBRANCH   7  10
ENDBRANCH   1   9
BRANCH   1  17
ATOM     17  C   UNL     1       2.167   6.692  20.236  0.00  0.00    +0.000 C 
BRANCH  17  18
ATOM     18  C   UNL     1       1.580   7.995  20.697  0.00  0.00    +0.000 A 
ATOM     19  N   UNL     1       1.317   8.385  21.930  0.00  0.00    +0.000 NA
ATOM     20  C   UNL     1       0.796   9.642  21.768  0.00  0.00    +0.000 A 
ATOM     21  C   UNL     1       0.779   9.998  20.436  0.00  0.00    +0.000 A 
ATOM     22  O   UNL     1       1.292   8.933  19.733  0.00  0.00    +0.000 OA
BRANCH  21  23
ATOM     23  C   UNL     1       0.345  11.177  19.690  0.00  0.00    +0.000 A 
ATOM     24  C   UNL     1       1.080  12.373  19.690  0.00  0.00    +0.000 A 
ATOM     25  C   UNL     1       0.658  13.478  18.935  0.00  0.00    +0.000 A 
ATOM     26  C   UNL     1      -0.505  13.407  18.170  0.00  0.00    +0.000 A 
ATOM     27  C   UNL     1      -1.256  12.236  18.172  0.00  0.00    +0.000 A 
ATOM     28  C   UNL     1      -0.832  11.142  18.926  0.00  0.00    +0.000 A 
ATOM     29  F   UNL     1      -1.593  10.038  18.894  0.00  0.00    +0.000 F 
ENDBRANCH  21  23
ENDBRANCH  17  18
ENDBRANCH   1  17
TORSDOF 6
ENDMDL
