MODEL 1
REMARK VINA RESULT:      -6.9      0.000      0.000
REMARK  Name = 
REMARK  7 active torsions:
REMARK  status: ('A' for Active; 'I' for Inactive)
REMARK    1  A    between atoms: C_1  and  N_2
REMARK    2  A    between atoms: N_2  and  C_16
REMARK    3  A    between atoms: C_3  and  C_5
REMARK    4  A    between atoms: C_18  and  O_19
REMARK    5  A    between atoms: O_19  and  C_20
REMARK    6  A    between atoms: C_26  and  C_27
REMARK    7  A    between atoms: C_26  and  C_28
REMARK                            x       y       z     vdW  Elec       q    Type
REMARK                         _______ _______ _______ _____ _____    ______ ____
ROOT
ATOM      1  C   UNL     1      -1.668  12.292  20.862  0.00  0.00    +0.000 C 
ATOM      2  N   UNL     1      -0.282  12.329  20.378  0.00  0.00    +0.000 N 
ATOM      3  C   UNL     1       0.202  13.592  19.919  0.00  0.00    +0.000 C 
ATOM      4  O   UNL     1      -0.572  14.550  19.834  0.00  0.00    +0.000 OA
ENDROOT
BRANCH   3   5
ATOM      5  C   UNL     1       1.658  13.810  19.526  0.00  0.00    +0.000 A 
ATOM      6  C   UNL     1       2.075  13.845  18.260  0.00  0.00    +0.000 A 
ATOM      7  N   UNL     1       3.298  14.068  17.719  0.00  0.00    +0.000 N 
ATOM      8  C   UNL     1       4.292  14.566  18.538  0.00  0.00    +0.000 A 
ATOM      9  C   UNL     1       5.497  14.977  17.962  0.00  0.00    +0.000 A 
ATOM     10  C   UNL     1       6.520  15.419  18.775  0.00  0.00    +0.000 A 
ATOM     11  C   UNL     1       6.351  15.413  20.168  0.00  0.00    +0.000 A 
ATOM     12  C   UNL     1       5.153  14.992  20.761  0.00  0.00    +0.000 A 
ATOM     13  C   UNL     1       4.107  14.563  19.940  0.00  0.00    +0.000 A 
ATOM     14  C   UNL     1       2.776  14.113  20.501  0.00  0.00    +0.000 A 
ATOM     15  O   UNL     1       2.646  14.004  21.716  0.00  0.00    +0.000 OA
ATOM     16  H   UNL     1       3.333  14.297  16.731  0.00  0.00    +0.000 HD
ENDBRANCH   3   5
BRANCH   2  17
ATOM     17  C   UNL     1       0.487  11.044  20.444  0.00  0.00    +0.000 C 
ATOM     18  C   UNL     1      -0.020   9.804  21.176  0.00  0.00    +0.000 C 
ATOM     19  C   UNL     1       0.578   8.928  20.038  0.00  0.00    +0.000 C 
ATOM     20  C   UNL     1       0.501  10.176  19.088  0.00  0.00    +0.000 C 
ATOM     21  C   UNL     1      -0.776  10.104  18.237  0.00  0.00    +0.000 C 
ATOM     22  C   UNL     1       1.663  10.392  18.101  0.00  0.00    +0.000 C 
BRANCH  19  23
ATOM     23  O   UNL     1       1.899   8.371  20.267  0.00  0.00    +0.000 OA
BRANCH  23  24
ATOM     24  C   UNL     1       2.147   7.105  19.776  0.00  0.00    +0.000 A 
ATOM     25  C   UNL     1       1.794   6.028  20.592  0.00  0.00    +0.000 A 
ATOM     26  C   UNL     1       2.007   4.716  20.155  0.00  0.00    +0.000 A 
ATOM     27  C   UNL     1       2.564   4.476  18.901  0.00  0.00    +0.000 A 
ATOM     28  C   UNL     1       2.910   5.548  18.083  0.00  0.00    +0.000 A 
ATOM     29  C   UNL     1       2.699   6.856  18.517  0.00  0.00    +0.000 A 
ENDBRANCH  23  24
ENDBRANCH  19  23
ENDBRANCH   2  17
TORSDOF 4
ENDMDL
MODEL 2
REMARK VINA RESULT:      -6.9      0.767      1.192
REMARK  Name = 
REMARK  7 active torsions:
REMARK  status: ('A' for Active; 'I' for Inactive)
REMARK    1  A    between atoms: C_1  and  N_2
REMARK    2  A    between atoms: N_2  and  C_16
REMARK    3  A    between atoms: C_3  and  C_5
REMARK    4  A    between atoms: C_18  and  O_19
REMARK    5  A    between atoms: O_19  and  C_20
REMARK    6  A    between atoms: C_26  and  C_27
REMARK    7  A    between atoms: C_26  and  C_28
REMARK                            x       y       z     vdW  Elec       q    Type
REMARK                         _______ _______ _______ _____ _____    ______ ____
ROOT
ATOM      1  C   UNL     1      -0.965  11.866  22.329  0.00  0.00    +0.000 C 
ATOM      2  N   UNL     1       0.206  11.994  21.452  0.00  0.00    +0.000 N 
ATOM      3  C   UNL     1       0.554  13.316  21.037  0.00  0.00    +0.000 C 
ATOM      4  O   UNL     1      -0.188  14.261  21.321  0.00  0.00    +0.000 OA
ENDROOT
BRANCH   3   5
ATOM      5  C   UNL     1       1.823  13.612  20.247  0.00  0.00    +0.000 A 
ATOM      6  C   UNL     1       1.854  13.679  18.915  0.00  0.00    +0.000 A 
ATOM      7  N   UNL     1       2.858  13.969  18.051  0.00  0.00    +0.000 N 
ATOM      8  C   UNL     1       4.020  14.512  18.561  0.00  0.00    +0.000 A 
ATOM      9  C   UNL     1       4.988  14.990  17.672  0.00  0.00    +0.000 A 
ATOM     10  C   UNL     1       6.180  15.478  18.167  0.00  0.00    +0.000 A 
ATOM     11  C   UNL     1       6.419  15.452  19.549  0.00  0.00    +0.000 A 
ATOM     12  C   UNL     1       5.465  14.965  20.452  0.00  0.00    +0.000 A 
ATOM     13  C   UNL     1       4.248  14.488  19.956  0.00  0.00    +0.000 A 
ATOM     14  C   UNL     1       3.158  13.965  20.866  0.00  0.00    +0.000 A 
ATOM     15  O   UNL     1       3.389  13.840  22.064  0.00  0.00    +0.000 OA
ATOM     16  H   UNL     1       2.595  14.207  17.100  0.00  0.00    +0.000 HD
ENDBRANCH   3   5
BRANCH   2  17
ATOM     17  C   UNL     1       0.930  10.727  21.108  0.00  0.00    +0.000 C 
ATOM     18  C   UNL     1       0.632   9.388  21.777  0.00  0.00    +0.000 C 
ATOM     19  C   UNL     1       0.845   8.690  20.403  0.00  0.00    +0.000 C 
ATOM     20  C   UNL     1       0.521  10.057  19.702  0.00  0.00    +0.000 C 
ATOM     21  C   UNL     1      -0.953  10.081  19.266  0.00  0.00    +0.000 C 
ATOM     22  C   UNL     1       1.343  10.430  18.455  0.00  0.00    +0.000 C 
BRANCH  19  23
ATOM     23  O   UNL     1       2.161   8.132  20.151  0.00  0.00    +0.000 OA
BRANCH  23  24
ATOM     24  C   UNL     1       2.221   6.825  19.710  0.00  0.00    +0.000 A 
ATOM     25  C   UNL     1       2.709   6.613  18.420  0.00  0.00    +0.000 A 
ATOM     26  C   UNL     1       2.807   5.313  17.911  0.00  0.00    +0.000 A 
ATOM     27  C   UNL     1       2.427   4.224  18.691  0.00  0.00    +0.000 A 
ATOM     28  C   UNL     1       1.947   4.432  19.981  0.00  0.00    +0.000 A 
ATOM     29  C   UNL     1       1.847   5.727  20.489  0.00  0.00    +0.000 A 
ENDBRANCH  23  24
ENDBRANCH  19  23
ENDBRANCH   2  17
TORSDOF 4
ENDMDL
MODEL 3
REMARK VINA RESULT:      -6.3      4.061      8.830
REMARK  Name = 
REMARK  7 active torsions:
REMARK  status: ('A' for Active; 'I' for Inactive)
REMARK    1  A    between atoms: C_1  and  N_2
REMARK    2  A    between atoms: N_2  and  C_16
REMARK    3  A    between atoms: C_3  and  C_5
REMARK    4  A    between atoms: C_18  and  O_19
REMARK    5  A    between atoms: O_19  and  C_20
REMARK    6  A    between atoms: C_26  and  C_27
REMARK    7  A    between atoms: C_26  and  C_28
REMARK                            x       y       z     vdW  Elec       q    Type
REMARK                         _______ _______ _______ _____ _____    ______ ____
ROOT
ATOM      1  C   UNL     1       0.583  10.963  21.440  0.00  0.00    +0.000 C 
ATOM      2  N   UNL     1      -0.229  12.114  21.853  0.00  0.00    +0.000 N 
ATOM      3  C   UNL     1      -1.221  11.873  22.853  0.00  0.00    +0.000 C 
ATOM      4  O   UNL     1      -1.436  10.719  23.235  0.00  0.00    +0.000 OA
ENDROOT
BRANCH   3   5
ATOM      5  C   UNL     1      -2.035  12.999  23.478  0.00  0.00    +0.000 A 
ATOM      6  C   UNL     1      -1.482  14.036  24.110  0.00  0.00    +0.000 A 
ATOM      7  N   UNL     1      -2.026  15.138  24.682  0.00  0.00    +0.000 N 
ATOM      8  C   UNL     1      -3.351  15.422  24.417  0.00  0.00    +0.000 A 
ATOM      9  C   UNL     1      -3.876  16.646  24.842  0.00  0.00    +0.000 A 
ATOM     10  C   UNL     1      -5.213  16.916  24.638  0.00  0.00    +0.000 A 
ATOM     11  C   UNL     1      -6.035  15.945  24.047  0.00  0.00    +0.000 A 
ATOM     12  C   UNL     1      -5.527  14.708  23.627  0.00  0.00    +0.000 A 
ATOM     13  C   UNL     1      -4.168  14.439  23.813  0.00  0.00    +0.000 A 
ATOM     14  C   UNL     1      -3.538  13.136  23.369  0.00  0.00    +0.000 A 
ATOM     15  O   UNL     1      -4.258  12.239  22.945  0.00  0.00    +0.000 OA
ATOM     16  H   UNL     1      -1.401  15.912  24.881  0.00  0.00    +0.000 HD
ENDBRANCH   3   5
BRANCH   2  17
ATOM     17  C   UNL     1       0.088  13.428  21.203  0.00  0.00    +0.000 C 
ATOM     18  C   UNL     1       1.232  13.613  20.209  0.00  0.00    +0.000 C 
ATOM     19  C   UNL     1       0.325  14.579  19.395  0.00  0.00    +0.000 C 
ATOM     20  C   UNL     1      -0.928  13.888  20.041  0.00  0.00    +0.000 C 
ATOM     21  C   UNL     1      -1.491  12.828  19.081  0.00  0.00    +0.000 C 
ATOM     22  C   UNL     1      -2.115  14.787  20.432  0.00  0.00    +0.000 C 
BRANCH  19  23
ATOM     23  O   UNL     1       0.484  15.999  19.653  0.00  0.00    +0.000 OA
BRANCH  23  24
ATOM     24  C   UNL     1       0.569  16.836  18.559  0.00  0.00    +0.000 A 
ATOM     25  C   UNL     1      -0.610  17.459  18.145  0.00  0.00    +0.000 A 
ATOM     26  C   UNL     1      -0.597  18.329  17.049  0.00  0.00    +0.000 A 
ATOM     27  C   UNL     1       0.593  18.586  16.372  0.00  0.00    +0.000 A 
ATOM     28  C   UNL     1       1.771  17.972  16.788  0.00  0.00    +0.000 A 
ATOM     29  C   UNL     1       1.759  17.104  17.879  0.00  0.00    +0.000 A 
ENDBRANCH  23  24
ENDBRANCH  19  23
ENDBRANCH   2  17
TORSDOF 4
ENDMDL
MODEL 4
REMARK VINA RESULT:      -6.3      3.413      6.269
REMARK  Name = 
REMARK  7 active torsions:
REMARK  status: ('A' for Active; 'I' for Inactive)
REMARK    1  A    between atoms: C_1  and  N_2
REMARK    2  A    between atoms: N_2  and  C_16
REMARK    3  A    between atoms: C_3  and  C_5
REMARK    4  A    between atoms: C_18  and  O_19
REMARK    5  A    between atoms: O_19  and  C_20
REMARK    6  A    between atoms: C_26  and  C_27
REMARK    7  A    between atoms: C_26  and  C_28
REMARK                            x       y       z     vdW  Elec       q    Type
REMARK                         _______ _______ _______ _____ _____    ______ ____
ROOT
ATOM      1  C   UNL     1       4.806  17.051  21.724  0.00  0.00    +0.000 C 
ATOM      2  N   UNL     1       5.424  16.060  20.835  0.00  0.00    +0.000 N 
ATOM      3  C   UNL     1       6.811  16.238  20.543  0.00  0.00    +0.000 C 
ATOM      4  O   UNL     1       7.393  17.253  20.935  0.00  0.00    +0.000 OA
ENDROOT
BRANCH   3   5
ATOM      5  C   UNL     1       7.614  15.210  19.755  0.00  0.00    +0.000 A 
ATOM      6  C   UNL     1       7.965  15.380  18.480  0.00  0.00    +0.000 A 
ATOM      7  N   UNL     1       8.703  14.615  17.638  0.00  0.00    +0.000 N 
ATOM      8  C   UNL     1       9.434  13.574  18.176  0.00  0.00    +0.000 A 
ATOM      9  C   UNL     1      10.342  12.895  17.358  0.00  0.00    +0.000 A 
ATOM     10  C   UNL     1      11.034  11.815  17.866  0.00  0.00    +0.000 A 
ATOM     11  C   UNL     1      10.788  11.390  19.179  0.00  0.00    +0.000 A 
ATOM     12  C   UNL     1       9.872  12.051  20.008  0.00  0.00    +0.000 A 
ATOM     13  C   UNL     1       9.184  13.159  19.504  0.00  0.00    +0.000 A 
ATOM     14  C   UNL     1       8.194  13.941  20.340  0.00  0.00    +0.000 A 
ATOM     15  O   UNL     1       7.892  13.523  21.453  0.00  0.00    +0.000 OA
ATOM     16  H   UNL     1       9.050  15.058  16.794  0.00  0.00    +0.000 HD
ENDBRANCH   3   5
BRANCH   2  17
ATOM     17  C   UNL     1       4.542  14.947  20.352  0.00  0.00    +0.000 C 
ATOM     18  C   UNL     1       3.231  14.566  21.035  0.00  0.00    +0.000 C 
ATOM     19  C   UNL     1       2.613  14.307  19.631  0.00  0.00    +0.000 C 
ATOM     20  C   UNL     1       3.696  15.265  19.019  0.00  0.00    +0.000 C 
ATOM     21  C   UNL     1       3.101  16.670  18.831  0.00  0.00    +0.000 C 
ATOM     22  C   UNL     1       4.308  14.873  17.662  0.00  0.00    +0.000 C 
BRANCH  19  23
ATOM     23  O   UNL     1       2.622  12.936  19.155  0.00  0.00    +0.000 OA
BRANCH  23  24
ATOM     24  C   UNL     1       1.401  12.354  18.874  0.00  0.00    +0.000 A 
ATOM     25  C   UNL     1       0.322  13.215  18.665  0.00  0.00    +0.000 A 
ATOM     26  C   UNL     1      -0.942  12.696  18.366  0.00  0.00    +0.000 A 
ATOM     27  C   UNL     1      -1.130  11.320  18.267  0.00  0.00    +0.000 A 
ATOM     28  C   UNL     1      -0.054  10.460  18.468  0.00  0.00    +0.000 A 
ATOM     29  C   UNL     1       1.207  10.975  18.767  0.00  0.00    +0.000 A 
ENDBRANCH  23  24
ENDBRANCH  19  23
ENDBRANCH   2  17
TORSDOF 4
ENDMDL
MODEL 5
REMARK VINA RESULT:      -6.3      3.280      5.913
REMARK  Name = 
REMARK  7 active torsions:
REMARK  status: ('A' for Active; 'I' for Inactive)
REMARK    1  A    between atoms: C_1  and  N_2
REMARK    2  A    between atoms: N_2  and  C_16
REMARK    3  A    between atoms: C_3  and  C_5
REMARK    4  A    between atoms: C_18  and  O_19
REMARK    5  A    between atoms: O_19  and  C_20
REMARK    6  A    between atoms: C_26  and  C_27
REMARK    7  A    between atoms: C_26  and  C_28
REMARK                            x       y       z     vdW  Elec       q    Type
REMARK                         _______ _______ _______ _____ _____    ______ ____
ROOT
ATOM      1  C   UNL     1       4.102  17.988  20.850  0.00  0.00    +0.000 C 
ATOM      2  N   UNL     1       4.733  16.803  20.255  0.00  0.00    +0.000 N 
ATOM      3  C   UNL     1       6.088  16.946  19.828  0.00  0.00    +0.000 C 
ATOM      4  O   UNL     1       6.626  18.056  19.861  0.00  0.00    +0.000 OA
ENDROOT
BRANCH   3   5
ATOM      5  C   UNL     1       6.911  15.765  19.327  0.00  0.00    +0.000 A 
ATOM      6  C   UNL     1       7.285  15.624  18.055  0.00  0.00    +0.000 A 
ATOM      7  N   UNL     1       8.042  14.684  17.436  0.00  0.00    +0.000 N 
ATOM      8  C   UNL     1       8.768  13.812  18.223  0.00  0.00    +0.000 A 
ATOM      9  C   UNL     1       9.694  12.963  17.610  0.00  0.00    +0.000 A 
ATOM     10  C   UNL     1      10.381  12.044  18.377  0.00  0.00    +0.000 A 
ATOM     11  C   UNL     1      10.112  11.947  19.750  0.00  0.00    +0.000 A 
ATOM     12  C   UNL     1       9.177  12.782  20.377  0.00  0.00    +0.000 A 
ATOM     13  C   UNL     1       8.494  13.728  19.608  0.00  0.00    +0.000 A 
ATOM     14  C   UNL     1       7.485  14.680  20.212  0.00  0.00    +0.000 A 
ATOM     15  O   UNL     1       7.163  14.542  21.388  0.00  0.00    +0.000 OA
ATOM     16  H   UNL     1       8.404  14.913  16.516  0.00  0.00    +0.000 HD
ENDBRANCH   3   5
BRANCH   2  17
ATOM     17  C   UNL     1       3.897  15.561  20.185  0.00  0.00    +0.000 C 
ATOM     18  C   UNL     1       2.530  15.436  20.853  0.00  0.00    +0.000 C 
ATOM     19  C   UNL     1       2.039  14.618  19.624  0.00  0.00    +0.000 C 
ATOM     20  C   UNL     1       3.174  15.292  18.772  0.00  0.00    +0.000 C 
ATOM     21  C   UNL     1       2.599  16.484  17.990  0.00  0.00    +0.000 C 
ATOM     22  C   UNL     1       3.905  14.414  17.739  0.00  0.00    +0.000 C 
BRANCH  19  23
ATOM     23  O   UNL     1       2.090  13.172  19.738  0.00  0.00    +0.000 OA
BRANCH  23  24
ATOM     24  C   UNL     1       1.022  12.459  19.232  0.00  0.00    +0.000 A 
ATOM     25  C   UNL     1       1.146  11.069  19.200  0.00  0.00    +0.000 A 
ATOM     26  C   UNL     1       0.098  10.281  18.710  0.00  0.00    +0.000 A 
ATOM     27  C   UNL     1      -1.077  10.878  18.261  0.00  0.00    +0.000 A 
ATOM     28  C   UNL     1      -1.206  12.264  18.299  0.00  0.00    +0.000 A 
ATOM     29  C   UNL     1      -0.162  13.050  18.786  0.00  0.00    +0.000 A 
ENDBRANCH  23  24
ENDBRANCH  19  23
ENDBRANCH   2  17
TORSDOF 4
ENDMDL
MODEL 6
REMARK VINA RESULT:      -6.2      1.432      2.186
REMARK  Name = 
REMARK  7 active torsions:
REMARK  status: ('A' for Active; 'I' for Inactive)
REMARK    1  A    between atoms: C_1  and  N_2
REMARK    2  A    between atoms: N_2  and  C_16
REMARK    3  A    between atoms: C_3  and  C_5
REMARK    4  A    between atoms: C_18  and  O_19
REMARK    5  A    between atoms: O_19  and  C_20
REMARK    6  A    between atoms: C_26  and  C_27
REMARK    7  A    between atoms: C_26  and  C_28
REMARK                            x       y       z     vdW  Elec       q    Type
REMARK                         _______ _______ _______ _____ _____    ______ ____
ROOT
ATOM      1  C   UNL     1      -1.599  11.662  22.827  0.00  0.00    +0.000 C 
ATOM      2  N   UNL     1      -0.440  12.037  22.007  0.00  0.00    +0.000 N 
ATOM      3  C   UNL     1      -0.209  13.436  21.827  0.00  0.00    +0.000 C 
ATOM      4  O   UNL     1      -1.033  14.251  22.250  0.00  0.00    +0.000 OA
ENDROOT
BRANCH   3   5
ATOM      5  C   UNL     1       1.032  13.970  21.123  0.00  0.00    +0.000 A 
ATOM      6  C   UNL     1       2.272  13.757  21.568  0.00  0.00    +0.000 A 
ATOM      7  N   UNL     1       3.482  14.105  21.066  0.00  0.00    +0.000 N 
ATOM      8  C   UNL     1       3.539  14.569  19.767  0.00  0.00    +0.000 A 
ATOM      9  C   UNL     1       4.791  14.755  19.172  0.00  0.00    +0.000 A 
ATOM     10  C   UNL     1       4.863  15.276  17.896  0.00  0.00    +0.000 A 
ATOM     11  C   UNL     1       3.686  15.649  17.232  0.00  0.00    +0.000 A 
ATOM     12  C   UNL     1       2.425  15.482  17.820  0.00  0.00    +0.000 A 
ATOM     13  C   UNL     1       2.346  14.935  19.103  0.00  0.00    +0.000 A 
ATOM     14  C   UNL     1       1.022  14.703  19.799  0.00  0.00    +0.000 A 
ATOM     15  O   UNL     1      -0.008  15.117  19.277  0.00  0.00    +0.000 OA
ATOM     16  H   UNL     1       4.294  13.623  21.438  0.00  0.00    +0.000 HD
ENDBRANCH   3   5
BRANCH   2  17
ATOM     17  C   UNL     1       0.395  10.914  21.470  0.00  0.00    +0.000 C 
ATOM     18  C   UNL     1       0.118   9.446  21.782  0.00  0.00    +0.000 C 
ATOM     19  C   UNL     1       0.514   9.094  20.319  0.00  0.00    +0.000 C 
ATOM     20  C   UNL     1       0.175  10.572  19.912  0.00  0.00    +0.000 C 
ATOM     21  C   UNL     1      -1.245  10.638  19.328  0.00  0.00    +0.000 C 
ATOM     22  C   UNL     1       1.094  11.256  18.883  0.00  0.00    +0.000 C 
BRANCH  19  23
ATOM     23  O   UNL     1       1.883   8.662  20.098  0.00  0.00    +0.000 OA
BRANCH  23  24
ATOM     24  C   UNL     1       2.079   7.349  19.719  0.00  0.00    +0.000 A 
ATOM     25  C   UNL     1       2.562   7.127  18.428  0.00  0.00    +0.000 A 
ATOM     26  C   UNL     1       2.795   5.823  17.979  0.00  0.00    +0.000 A 
ATOM     27  C   UNL     1       2.553   4.739  18.820  0.00  0.00    +0.000 A 
ATOM     28  C   UNL     1       2.078   4.957  20.110  0.00  0.00    +0.000 A 
ATOM     29  C   UNL     1       1.845   6.257  20.558  0.00  0.00    +0.000 A 
ENDBRANCH  23  24
ENDBRANCH  19  23
ENDBRANCH   2  17
TORSDOF 4
ENDMDL
MODEL 7
REMARK VINA RESULT:      -6.1      1.419      1.848
REMARK  Name = 
REMARK  7 active torsions:
REMARK  status: ('A' for Active; 'I' for Inactive)
REMARK    1  A    between atoms: C_1  and  N_2
REMARK    2  A    between atoms: N_2  and  C_16
REMARK    3  A    between atoms: C_3  and  C_5
REMARK    4  A    between atoms: C_18  and  O_19
REMARK    5  A    between atoms: O_19  and  C_20
REMARK    6  A    between atoms: C_26  and  C_27
REMARK    7  A    between atoms: C_26  and  C_28
REMARK                            x       y       z     vdW  Elec       q    Type
REMARK                         _______ _______ _______ _____ _____    ______ ____
ROOT
ATOM      1  C   UNL     1      -2.338  12.509  21.620  0.00  0.00    +0.000 C 
ATOM      2  N   UNL     1      -0.945  12.734  21.215  0.00  0.00    +0.000 N 
ATOM      3  C   UNL     1      -0.552  14.089  20.994  0.00  0.00    +0.000 C 
ATOM      4  O   UNL     1      -1.400  14.985  21.031  0.00  0.00    +0.000 OA
ENDROOT
BRANCH   3   5
ATOM      5  C   UNL     1       0.893  14.481  20.711  0.00  0.00    +0.000 A 
ATOM      6  C   UNL     1       1.824  14.571  21.662  0.00  0.00    +0.000 A 
ATOM      7  N   UNL     1       3.148  14.856  21.603  0.00  0.00    +0.000 N 
ATOM      8  C   UNL     1       3.761  14.848  20.365  0.00  0.00    +0.000 A 
ATOM      9  C   UNL     1       5.154  14.952  20.303  0.00  0.00    +0.000 A 
ATOM     10  C   UNL     1       5.775  15.007  19.072  0.00  0.00    +0.000 A 
ATOM     11  C   UNL     1       4.998  14.998  17.904  0.00  0.00    +0.000 A 
ATOM     12  C   UNL     1       3.601  14.907  17.949  0.00  0.00    +0.000 A 
ATOM     13  C   UNL     1       2.970  14.830  19.194  0.00  0.00    +0.000 A 
ATOM     14  C   UNL     1       1.467  14.708  19.329  0.00  0.00    +0.000 A 
ATOM     15  O   UNL     1       0.769  14.801  18.326  0.00  0.00    +0.000 OA
ATOM     16  H   UNL     1       3.709  14.623  22.416  0.00  0.00    +0.000 HD
ENDBRANCH   3   5
BRANCH   2  17
ATOM     17  C   UNL     1      -0.073  11.518  21.104  0.00  0.00    +0.000 C 
ATOM     18  C   UNL     1      -0.488  10.144  21.621  0.00  0.00    +0.000 C 
ATOM     19  C   UNL     1       0.197   9.505  20.379  0.00  0.00    +0.000 C 
ATOM     20  C   UNL     1       0.034  10.876  19.631  0.00  0.00    +0.000 C 
ATOM     21  C   UNL     1      -1.220  10.837  18.743  0.00  0.00    +0.000 C 
ATOM     22  C   UNL     1       1.189  11.334  18.723  0.00  0.00    +0.000 C 
BRANCH  19  23
ATOM     23  O   UNL     1       1.556   9.026  20.558  0.00  0.00    +0.000 OA
BRANCH  23  24
ATOM     24  C   UNL     1       1.883   7.817  19.976  0.00  0.00    +0.000 A 
ATOM     25  C   UNL     1       1.644   6.666  20.730  0.00  0.00    +0.000 A 
ATOM     26  C   UNL     1       1.941   5.405  20.200  0.00  0.00    +0.000 A 
ATOM     27  C   UNL     1       2.469   5.291  18.916  0.00  0.00    +0.000 A 
ATOM     28  C   UNL     1       2.701   6.437  18.160  0.00  0.00    +0.000 A 
ATOM     29  C   UNL     1       2.406   7.694  18.687  0.00  0.00    +0.000 A 
ENDBRANCH  23  24
ENDBRANCH  19  23
ENDBRANCH   2  17
TORSDOF 4
ENDMDL
MODEL 8
REMARK VINA RESULT:      -6.1      0.908      1.003
REMARK  Name = 
REMARK  7 active torsions:
REMARK  status: ('A' for Active; 'I' for Inactive)
REMARK    1  A    between atoms: C_1  and  N_2
REMARK    2  A    between atoms: N_2  and  C_16
REMARK    3  A    between atoms: C_3  and  C_5
REMARK    4  A    between atoms: C_18  and  O_19
REMARK    5  A    between atoms: O_19  and  C_20
REMARK    6  A    between atoms: C_26  and  C_27
REMARK    7  A    between atoms: C_26  and  C_28
REMARK                            x       y       z     vdW  Elec       q    Type
REMARK                         _______ _______ _______ _____ _____    ______ ____
ROOT
ATOM      1  C   UNL     1      -0.972  11.226  21.531  0.00  0.00    +0.000 C 
ATOM      2  N   UNL     1       0.284  11.500  20.822  0.00  0.00    +0.000 N 
ATOM      3  C   UNL     1       0.593  12.872  20.572  0.00  0.00    +0.000 C 
ATOM      4  O   UNL     1      -0.237  13.745  20.843  0.00  0.00    +0.000 OA
ENDROOT
BRANCH   3   5
ATOM      5  C   UNL     1       1.926  13.310  19.977  0.00  0.00    +0.000 A 
ATOM      6  C   UNL     1       2.180  13.296  18.668  0.00  0.00    +0.000 A 
ATOM      7  N   UNL     1       3.268  13.682  17.957  0.00  0.00    +0.000 N 
ATOM      8  C   UNL     1       4.235  14.430  18.600  0.00  0.00    +0.000 A 
ATOM      9  C   UNL     1       5.266  14.993  17.841  0.00  0.00    +0.000 A 
ATOM     10  C   UNL     1       6.271  15.690  18.479  0.00  0.00    +0.000 A 
ATOM     11  C   UNL     1       6.267  15.789  19.878  0.00  0.00    +0.000 A 
ATOM     12  C   UNL     1       5.248  15.219  20.653  0.00  0.00    +0.000 A 
ATOM     13  C   UNL     1       4.216  14.530  20.010  0.00  0.00    +0.000 A 
ATOM     14  C   UNL     1       3.068  13.904  20.772  0.00  0.00    +0.000 A 
ATOM     15  O   UNL     1       3.102  13.892  21.998  0.00  0.00    +0.000 OA
ATOM     16  H   UNL     1       3.145  13.816  16.958  0.00  0.00    +0.000 HD
ENDBRANCH   3   5
BRANCH   2  17
ATOM     17  C   UNL     1       1.125  10.312  20.461  0.00  0.00    +0.000 C 
ATOM     18  C   UNL     1       0.822   8.897  20.947  0.00  0.00    +0.000 C 
ATOM     19  C   UNL     1       1.262   8.359  19.556  0.00  0.00    +0.000 C 
ATOM     20  C   UNL     1       0.953   9.776  18.952  0.00  0.00    +0.000 C 
ATOM     21  C   UNL     1      -0.447   9.776  18.317  0.00  0.00    +0.000 C 
ATOM     22  C   UNL     1       1.912  10.317  17.877  0.00  0.00    +0.000 C 
BRANCH  19  23
ATOM     23  O   UNL     1       2.632   7.894  19.438  0.00  0.00    +0.000 OA
BRANCH  23  24
ATOM     24  C   UNL     1       2.841   6.699  18.779  0.00  0.00    +0.000 A 
ATOM     25  C   UNL     1       1.918   5.677  19.012  0.00  0.00    +0.000 A 
ATOM     26  C   UNL     1       2.062   4.442  18.370  0.00  0.00    +0.000 A 
ATOM     27  C   UNL     1       3.120   4.228  17.489  0.00  0.00    +0.000 A 
ATOM     28  C   UNL     1       4.037   5.248  17.250  0.00  0.00    +0.000 A 
ATOM     29  C   UNL     1       3.896   6.479  17.890  0.00  0.00    +0.000 A 
ENDBRANCH  23  24
ENDBRANCH  19  23
ENDBRANCH   2  17
TORSDOF 4
ENDMDL
MODEL 9
REMARK VINA RESULT:      -6.1      3.269      7.135
REMARK  Name = 
REMARK  7 active torsions:
REMARK  status: ('A' for Active; 'I' for Inactive)
REMARK    1  A    between atoms: C_1  and  N_2
REMARK    2  A    between atoms: N_2  and  C_16
REMARK    3  A    between atoms: C_3  and  C_5
REMARK    4  A    between atoms: C_18  and  O_19
REMARK    5  A    between atoms: O_19  and  C_20
REMARK    6  A    between atoms: C_26  and  C_27
REMARK    7  A    between atoms: C_26  and  C_28
REMARK                            x       y       z     vdW  Elec       q    Type
REMARK                         _______ _______ _______ _____ _____    ______ ____
ROOT
ATOM      1  C   UNL     1      -0.380  16.123  19.274  0.00  0.00    +0.000 C 
ATOM      2  N   UNL     1      -1.155  15.122  20.018  0.00  0.00    +0.000 N 
ATOM      3  C   UNL     1      -2.108  15.620  20.959  0.00  0.00    +0.000 C 
ATOM      4  O   UNL     1      -2.160  16.831  21.195  0.00  0.00    +0.000 OA
ENDROOT
BRANCH   3   5
ATOM      5  C   UNL     1      -3.078  14.704  21.695  0.00  0.00    +0.000 A 
ATOM      6  C   UNL     1      -2.961  14.405  22.989  0.00  0.00    +0.000 A 
ATOM      7  N   UNL     1      -3.734  13.659  23.816  0.00  0.00    +0.000 N 
ATOM      8  C   UNL     1      -4.991  13.292  23.377  0.00  0.00    +0.000 A 
ATOM      9  C   UNL     1      -5.870  12.688  24.281  0.00  0.00    +0.000 A 
ATOM     10  C   UNL     1      -7.106  12.261  23.840  0.00  0.00    +0.000 A 
ATOM     11  C   UNL     1      -7.446  12.403  22.486  0.00  0.00    +0.000 A 
ATOM     12  C   UNL     1      -6.571  12.995  21.565  0.00  0.00    +0.000 A 
ATOM     13  C   UNL     1      -5.326  13.447  22.012  0.00  0.00    +0.000 A 
ATOM     14  C   UNL     1      -4.333  14.116  21.087  0.00  0.00    +0.000 A 
ATOM     15  O   UNL     1      -4.571  14.155  19.884  0.00  0.00    +0.000 OA
ATOM     16  H   UNL     1      -3.591  13.775  24.814  0.00  0.00    +0.000 HD
ENDBRANCH   3   5
BRANCH   2  17
ATOM     17  C   UNL     1      -0.886  13.684  19.691  0.00  0.00    +0.000 C 
ATOM     18  C   UNL     1      -0.074  13.243  18.476  0.00  0.00    +0.000 C 
ATOM     19  C   UNL     1       0.549  12.111  19.343  0.00  0.00    +0.000 C 
ATOM     20  C   UNL     1       0.208  12.956  20.622  0.00  0.00    +0.000 C 
ATOM     21  C   UNL     1       1.449  13.745  21.070  0.00  0.00    +0.000 C 
ATOM     22  C   UNL     1      -0.289  12.197  21.866  0.00  0.00    +0.000 C 
BRANCH  19  23
ATOM     23  O   UNL     1      -0.070  10.802  19.251  0.00  0.00    +0.000 OA
BRANCH  23  24
ATOM     24  C   UNL     1       0.769   9.711  19.143  0.00  0.00    +0.000 A 
ATOM     25  C   UNL     1       0.998   8.969  20.303  0.00  0.00    +0.000 A 
ATOM     26  C   UNL     1       1.829   7.844  20.265  0.00  0.00    +0.000 A 
ATOM     27  C   UNL     1       2.426   7.453  19.069  0.00  0.00    +0.000 A 
ATOM     28  C   UNL     1       2.193   8.187  17.909  0.00  0.00    +0.000 A 
ATOM     29  C   UNL     1       1.366   9.309  17.945  0.00  0.00    +0.000 A 
ENDBRANCH  23  24
ENDBRANCH  19  23
ENDBRANCH   2  17
TORSDOF 4
ENDMDL
