MODEL 1
REMARK VINA RESULT:      -8.6      0.000      0.000
REMARK  Name = 
REMARK  7 active torsions:
REMARK  status: ('A' for Active; 'I' for Inactive)
REMARK    1  A    between atoms: C_1  and  N_2
REMARK    2  A    between atoms: C_6  and  C_7
REMARK    3  A    between atoms: C_7  and  N_8
REMARK    4  A    between atoms: N_8  and  C_9
REMARK    5  A    between atoms: C_9  and  C_10
REMARK    6  A    between atoms: C_14  and  N_15
REMARK    7  A    between atoms: C_20  and  C_21
REMARK                            x       y       z     vdW  Elec       q    Type
REMARK                         _______ _______ _______ _____ _____    ______ ____
ROOT
ATOM      1  C   UNL     1       4.065   4.753  17.137  0.00  0.00    +0.000 A 
ATOM      2  C   UNL     1       5.082   5.294  16.347  0.00  0.00    +0.000 A 
ATOM      3  C   UNL     1       5.256   6.673  16.282  0.00  0.00    +0.000 A 
ATOM      4  C   UNL     1       4.405   7.530  16.987  0.00  0.00    +0.000 A 
ATOM      5  C   UNL     1       3.363   7.025  17.773  0.00  0.00    +0.000 A 
ATOM      6  C   UNL     1       3.225   5.624  17.851  0.00  0.00    +0.000 A 
ENDROOT
BRANCH   5   7
ATOM      7  N   UNL     1       2.439   7.875  18.444  0.00  0.00    +0.000 N 
ATOM      8  C   UNL     1       1.982   9.109  17.852  0.00  0.00    +0.000 C 
ATOM      9  C   UNL     1       1.167   9.690  18.938  0.00  0.00    +0.000 C 
ATOM     10  C   UNL     1       1.139   8.926  20.035  0.00  0.00    +0.000 C 
ATOM     11  C   UNL     1       0.474   9.278  21.314  0.00  0.00    +0.000 C 
ATOM     12  C   UNL     1      -0.196  10.642  21.244  0.00  0.00    +0.000 C 
ATOM     13  C   UNL     1      -0.180  11.403  20.122  0.00  0.00    +0.000 C 
ATOM     14  C   UNL     1       0.494  11.011  18.835  0.00  0.00    +0.000 C 
ATOM     15  C   UNL     1       1.936   7.721  19.741  0.00  0.00    +0.000 C 
ATOM     16  O   UNL     1       2.074   6.820  20.550  0.00  0.00    +0.000 OA
BRANCH  12  17
ATOM     17  C   UNL     1      -0.867  11.104  22.500  0.00  0.00    +0.000 C 
ATOM     18  F   UNL     1      -0.688  10.252  23.539  0.00  0.00    +0.000 F 
ATOM     19  F   UNL     1      -0.398  12.314  22.896  0.00  0.00    +0.000 F 
ATOM     20  F   UNL     1      -2.206  11.240  22.325  0.00  0.00    +0.000 F 
ENDBRANCH  12  17
ENDBRANCH   5   7
BRANCH   1  21
ATOM     21  C   UNL     1       3.844   3.260  17.189  0.00  0.00    +0.000 C 
BRANCH  21  22
ATOM     22  N   UNL     1       4.524   2.596  18.308  0.00  0.00    +0.000 NA
ATOM     23  H   UNL     1       5.295   2.054  17.908  0.00  0.00    +0.000 HD
BRANCH  22  24
ATOM     24  C   UNL     1       3.669   1.642  19.027  0.00  0.00    +0.000 C 
BRANCH  24  30
ATOM     25  C   UNL     1       0.708   2.574  18.849  0.00  0.00    +0.000 C 
ATOM     26  N   UNL     1       1.559   2.669  20.003  0.00  0.00    +0.000 N 
ATOM     27  C   UNL     1       1.209   3.170  21.218  0.00  0.00    +0.000 A 
ATOM     28  N   UNL     1       2.231   3.101  22.036  0.00  0.00    +0.000 NA
ATOM     29  N   UNL     1       3.280   2.554  21.340  0.00  0.00    +0.000 NA
ATOM     30  C   UNL     1       2.869   2.280  20.115  0.00  0.00    +0.000 A 
ENDBRANCH  24  30
ENDBRANCH  22  24
ENDBRANCH  21  22
ENDBRANCH   1  21
TORSDOF 6
ENDMDL
MODEL 2
REMARK VINA RESULT:      -8.5      1.137      1.777
REMARK  Name = 
REMARK  7 active torsions:
REMARK  status: ('A' for Active; 'I' for Inactive)
REMARK    1  A    between atoms: C_1  and  N_2
REMARK    2  A    between atoms: C_6  and  C_7
REMARK    3  A    between atoms: C_7  and  N_8
REMARK    4  A    between atoms: N_8  and  C_9
REMARK    5  A    between atoms: C_9  and  C_10
REMARK    6  A    between atoms: C_14  and  N_15
REMARK    7  A    between atoms: C_20  and  C_21
REMARK                            x       y       z     vdW  Elec       q    Type
REMARK                         _______ _______ _______ _____ _____    ______ ____
ROOT
ATOM      1  C   UNL     1       3.792   4.608  17.227  0.00  0.00    +0.000 A 
ATOM      2  C   UNL     1       4.775   5.110  16.372  0.00  0.00    +0.000 A 
ATOM      3  C   UNL     1       5.046   6.475  16.345  0.00  0.00    +0.000 A 
ATOM      4  C   UNL     1       4.325   7.357  17.157  0.00  0.00    +0.000 A 
ATOM      5  C   UNL     1       3.319   6.892  18.012  0.00  0.00    +0.000 A 
ATOM      6  C   UNL     1       3.084   5.503  18.047  0.00  0.00    +0.000 A 
ENDROOT
BRANCH   5   7
ATOM      7  N   UNL     1       2.523   7.774  18.795  0.00  0.00    +0.000 N 
ATOM      8  C   UNL     1       2.118   7.432  20.138  0.00  0.00    +0.000 C 
ATOM      9  C   UNL     1       1.227   8.557  20.487  0.00  0.00    +0.000 C 
ATOM     10  C   UNL     1       1.100   9.449  19.499  0.00  0.00    +0.000 C 
ATOM     11  C   UNL     1       0.215  10.640  19.521  0.00  0.00    +0.000 C 
ATOM     12  C   UNL     1      -0.558  10.744  20.827  0.00  0.00    +0.000 C 
ATOM     13  C   UNL     1      -0.410   9.847  21.833  0.00  0.00    +0.000 C 
ATOM     14  C   UNL     1       0.507   8.655  21.785  0.00  0.00    +0.000 C 
ATOM     15  C   UNL     1       1.951   8.985  18.389  0.00  0.00    +0.000 C 
ATOM     16  O   UNL     1       2.062   9.611  17.350  0.00  0.00    +0.000 OA
BRANCH  12  17
ATOM     17  C   UNL     1      -1.507  11.897  20.933  0.00  0.00    +0.000 C 
ATOM     18  F   UNL     1      -0.877  13.094  21.015  0.00  0.00    +0.000 F 
ATOM     19  F   UNL     1      -2.333  11.958  19.858  0.00  0.00    +0.000 F 
ATOM     20  F   UNL     1      -2.298  11.789  22.031  0.00  0.00    +0.000 F 
ENDBRANCH  12  17
ENDBRANCH   5   7
BRANCH   1  21
ATOM     21  C   UNL     1       3.465   3.133  17.241  0.00  0.00    +0.000 C 
BRANCH  21  22
ATOM     22  N   UNL     1       4.290   2.348  18.167  0.00  0.00    +0.000 NA
ATOM     23  H   UNL     1       4.898   1.756  17.596  0.00  0.00    +0.000 HD
BRANCH  22  24
ATOM     24  C   UNL     1       3.508   1.446  19.023  0.00  0.00    +0.000 C 
BRANCH  24  30
ATOM     25  C   UNL     1       0.607   2.565  19.065  0.00  0.00    +0.000 C 
ATOM     26  N   UNL     1       1.554   2.621  20.145  0.00  0.00    +0.000 N 
ATOM     27  C   UNL     1       1.336   3.161  21.375  0.00  0.00    +0.000 A 
ATOM     28  N   UNL     1       2.416   3.037  22.109  0.00  0.00    +0.000 NA
ATOM     29  N   UNL     1       3.368   2.413  21.342  0.00  0.00    +0.000 NA
ATOM     30  C   UNL     1       2.841   2.150  20.159  0.00  0.00    +0.000 A 
ENDBRANCH  24  30
ENDBRANCH  22  24
ENDBRANCH  21  22
ENDBRANCH   1  21
TORSDOF 6
ENDMDL
MODEL 3
REMARK VINA RESULT:      -8.3      0.794      1.183
REMARK  Name = 
REMARK  7 active torsions:
REMARK  status: ('A' for Active; 'I' for Inactive)
REMARK    1  A    between atoms: C_1  and  N_2
REMARK    2  A    between atoms: C_6  and  C_7
REMARK    3  A    between atoms: C_7  and  N_8
REMARK    4  A    between atoms: N_8  and  C_9
REMARK    5  A    between atoms: C_9  and  C_10
REMARK    6  A    between atoms: C_14  and  N_15
REMARK    7  A    between atoms: C_20  and  C_21
REMARK                            x       y       z     vdW  Elec       q    Type
REMARK                         _______ _______ _______ _____ _____    ______ ____
ROOT
ATOM      1  C   UNL     1       3.961   4.774  17.136  0.00  0.00    +0.000 A 
ATOM      2  C   UNL     1       5.110   5.313  16.555  0.00  0.00    +0.000 A 
ATOM      3  C   UNL     1       5.377   6.675  16.669  0.00  0.00    +0.000 A 
ATOM      4  C   UNL     1       4.488   7.516  17.346  0.00  0.00    +0.000 A 
ATOM      5  C   UNL     1       3.316   7.015  17.923  0.00  0.00    +0.000 A 
ATOM      6  C   UNL     1       3.083   5.628  17.825  0.00  0.00    +0.000 A 
ENDROOT
BRANCH   5   7
ATOM      7  N   UNL     1       2.361   7.859  18.556  0.00  0.00    +0.000 N 
ATOM      8  C   UNL     1       1.843   9.035  17.899  0.00  0.00    +0.000 C 
ATOM      9  C   UNL     1       1.012   9.640  18.960  0.00  0.00    +0.000 C 
ATOM     10  C   UNL     1       1.029   8.941  20.099  0.00  0.00    +0.000 C 
ATOM     11  C   UNL     1       0.360   9.335  21.364  0.00  0.00    +0.000 C 
ATOM     12  C   UNL     1      -0.372  10.662  21.224  0.00  0.00    +0.000 C 
ATOM     13  C   UNL     1      -0.401  11.357  20.060  0.00  0.00    +0.000 C 
ATOM     14  C   UNL     1       0.278  10.922  18.790  0.00  0.00    +0.000 C 
ATOM     15  C   UNL     1       1.877   7.759  19.865  0.00  0.00    +0.000 C 
ATOM     16  O   UNL     1       2.064   6.913  20.722  0.00  0.00    +0.000 OA
BRANCH  12  17
ATOM     17  C   UNL     1      -1.051  11.164  22.459  0.00  0.00    +0.000 C 
ATOM     18  F   UNL     1      -1.078  10.248  23.458  0.00  0.00    +0.000 F 
ATOM     19  F   UNL     1      -0.432  12.267  22.952  0.00  0.00    +0.000 F 
ATOM     20  F   UNL     1      -2.338  11.515  22.209  0.00  0.00    +0.000 F 
ENDBRANCH  12  17
ENDBRANCH   5   7
BRANCH   1  21
ATOM     21  C   UNL     1       3.643   3.304  16.991  0.00  0.00    +0.000 C 
BRANCH  21  22
ATOM     22  N   UNL     1       2.230   2.976  17.216  0.00  0.00    +0.000 NA
ATOM     23  H   UNL     1       1.782   3.820  17.581  0.00  0.00    +0.000 HD
BRANCH  22  24
ATOM     24  C   UNL     1       2.029   1.925  18.223  0.00  0.00    +0.000 C 
BRANCH  24  30
ATOM     25  C   UNL     1       4.378   2.185  20.245  0.00  0.00    +0.000 C 
ATOM     26  N   UNL     1       3.012   2.569  20.477  0.00  0.00    +0.000 N 
ATOM     27  C   UNL     1       2.519   3.124  21.616  0.00  0.00    +0.000 A 
ATOM     28  N   UNL     1       1.234   3.346  21.479  0.00  0.00    +0.000 NA
ATOM     29  N   UNL     1       0.872   2.916  20.227  0.00  0.00    +0.000 NA
ATOM     30  C   UNL     1       1.951   2.459  19.616  0.00  0.00    +0.000 A 
ENDBRANCH  24  30
ENDBRANCH  22  24
ENDBRANCH  21  22
ENDBRANCH   1  21
TORSDOF 6
ENDMDL
MODEL 4
REMARK VINA RESULT:      -8.1      0.746      1.051
REMARK  Name = 
REMARK  7 active torsions:
REMARK  status: ('A' for Active; 'I' for Inactive)
REMARK    1  A    between atoms: C_1  and  N_2
REMARK    2  A    between atoms: C_6  and  C_7
REMARK    3  A    between atoms: C_7  and  N_8
REMARK    4  A    between atoms: N_8  and  C_9
REMARK    5  A    between atoms: C_9  and  C_10
REMARK    6  A    between atoms: C_14  and  N_15
REMARK    7  A    between atoms: C_20  and  C_21
REMARK                            x       y       z     vdW  Elec       q    Type
REMARK                         _______ _______ _______ _____ _____    ______ ____
ROOT
ATOM      1  C   UNL     1       4.472   5.224  18.367  0.00  0.00    +0.000 A 
ATOM      2  C   UNL     1       4.998   5.509  17.106  0.00  0.00    +0.000 A 
ATOM      3  C   UNL     1       4.630   6.678  16.445  0.00  0.00    +0.000 A 
ATOM      4  C   UNL     1       3.717   7.564  17.026  0.00  0.00    +0.000 A 
ATOM      5  C   UNL     1       3.154   7.300  18.280  0.00  0.00    +0.000 A 
ATOM      6  C   UNL     1       3.565   6.128  18.946  0.00  0.00    +0.000 A 
ENDROOT
BRANCH   5   7
ATOM      7  N   UNL     1       2.170   8.148  18.863  0.00  0.00    +0.000 N 
ATOM      8  C   UNL     1       1.690   9.326  18.180  0.00  0.00    +0.000 C 
ATOM      9  C   UNL     1       0.808   9.934  19.196  0.00  0.00    +0.000 C 
ATOM     10  C   UNL     1       0.765   9.235  20.335  0.00  0.00    +0.000 C 
ATOM     11  C   UNL     1       0.033   9.632  21.564  0.00  0.00    +0.000 C 
ATOM     12  C   UNL     1      -0.687  10.961  21.387  0.00  0.00    +0.000 C 
ATOM     13  C   UNL     1      -0.654  11.655  20.222  0.00  0.00    +0.000 C 
ATOM     14  C   UNL     1       0.088  11.218  18.989  0.00  0.00    +0.000 C 
ATOM     15  C   UNL     1       1.620   8.050  20.146  0.00  0.00    +0.000 C 
ATOM     16  O   UNL     1       1.760   7.204  21.012  0.00  0.00    +0.000 OA
BRANCH  12  17
ATOM     17  C   UNL     1      -1.427  11.466  22.585  0.00  0.00    +0.000 C 
ATOM     18  F   UNL     1      -2.675  11.903  22.291  0.00  0.00    +0.000 F 
ATOM     19  F   UNL     1      -1.559  10.500  23.529  0.00  0.00    +0.000 F 
ATOM     20  F   UNL     1      -0.773  12.501  23.172  0.00  0.00    +0.000 F 
ENDBRANCH  12  17
ENDBRANCH   5   7
BRANCH   1  21
ATOM     21  C   UNL     1       4.836   3.943  19.080  0.00  0.00    +0.000 C 
BRANCH  21  22
ATOM     22  N   UNL     1       4.509   2.727  18.324  0.00  0.00    +0.000 NA
ATOM     23  H   UNL     1       3.874   3.006  17.572  0.00  0.00    +0.000 HD
BRANCH  22  24
ATOM     24  C   UNL     1       3.797   1.719  19.121  0.00  0.00    +0.000 C 
BRANCH  24  30
ATOM     25  C   UNL     1       0.942   2.872  18.684  0.00  0.00    +0.000 C 
ATOM     26  N   UNL     1       1.648   2.807  19.934  0.00  0.00    +0.000 N 
ATOM     27  C   UNL     1       1.181   3.226  21.141  0.00  0.00    +0.000 A 
ATOM     28  N   UNL     1       2.089   3.014  22.063  0.00  0.00    +0.000 NA
ATOM     29  N   UNL     1       3.181   2.455  21.447  0.00  0.00    +0.000 NA
ATOM     30  C   UNL     1       2.908   2.317  20.162  0.00  0.00    +0.000 A 
ENDBRANCH  24  30
ENDBRANCH  22  24
ENDBRANCH  21  22
ENDBRANCH   1  21
TORSDOF 6
ENDMDL
MODEL 5
REMARK VINA RESULT:      -8.1      5.609      8.929
REMARK  Name = 
REMARK  7 active torsions:
REMARK  status: ('A' for Active; 'I' for Inactive)
REMARK    1  A    between atoms: C_1  and  N_2
REMARK    2  A    between atoms: C_6  and  C_7
REMARK    3  A    between atoms: C_7  and  N_8
REMARK    4  A    between atoms: N_8  and  C_9
REMARK    5  A    between atoms: C_9  and  C_10
REMARK    6  A    between atoms: C_14  and  N_15
REMARK    7  A    between atoms: C_20  and  C_21
REMARK                            x       y       z     vdW  Elec       q    Type
REMARK                         _______ _______ _______ _____ _____    ______ ____
ROOT
ATOM      1  C   UNL     1       2.005   5.234  20.675  0.00  0.00    +0.000 A 
ATOM      2  C   UNL     1       1.956   4.131  21.530  0.00  0.00    +0.000 A 
ATOM      3  C   UNL     1       2.742   3.011  21.270  0.00  0.00    +0.000 A 
ATOM      4  C   UNL     1       3.568   2.971  20.142  0.00  0.00    +0.000 A 
ATOM      5  C   UNL     1       3.627   4.050  19.252  0.00  0.00    +0.000 A 
ATOM      6  C   UNL     1       2.849   5.186  19.552  0.00  0.00    +0.000 A 
ENDROOT
BRANCH   5   7
ATOM      7  N   UNL     1       4.404   4.007  18.060  0.00  0.00    +0.000 N 
ATOM      8  C   UNL     1       5.700   4.638  17.983  0.00  0.00    +0.000 C 
ATOM      9  C   UNL     1       6.052   4.447  16.561  0.00  0.00    +0.000 C 
ATOM     10  C   UNL     1       5.104   3.804  15.871  0.00  0.00    +0.000 C 
ATOM     11  C   UNL     1       5.132   3.536  14.412  0.00  0.00    +0.000 C 
ATOM     12  C   UNL     1       6.393   4.087  13.762  0.00  0.00    +0.000 C 
ATOM     13  C   UNL     1       7.359   4.721  14.471  0.00  0.00    +0.000 C 
ATOM     14  C   UNL     1       7.306   4.966  15.954  0.00  0.00    +0.000 C 
ATOM     15  C   UNL     1       4.026   3.478  16.821  0.00  0.00    +0.000 C 
ATOM     16  O   UNL     1       3.029   2.863  16.486  0.00  0.00    +0.000 OA
BRANCH  12  17
ATOM     17  C   UNL     1       6.499   3.897  12.281  0.00  0.00    +0.000 C 
ATOM     18  F   UNL     1       7.003   2.686  11.938  0.00  0.00    +0.000 F 
ATOM     19  F   UNL     1       5.286   4.004  11.680  0.00  0.00    +0.000 F 
ATOM     20  F   UNL     1       7.301   4.835  11.717  0.00  0.00    +0.000 F 
ENDBRANCH  12  17
ENDBRANCH   5   7
BRANCH   1  21
ATOM     21  C   UNL     1       1.133   6.441  20.927  0.00  0.00    +0.000 C 
BRANCH  21  22
ATOM     22  N   UNL     1       1.885   7.671  21.207  0.00  0.00    +0.000 NA
ATOM     23  H   UNL     1       1.845   7.822  22.218  0.00  0.00    +0.000 HD
BRANCH  22  24
ATOM     24  C   UNL     1       1.303   8.866  20.580  0.00  0.00    +0.000 C 
BRANCH  24  30
ATOM     25  C   UNL     1      -0.858  10.981  19.854  0.00  0.00    +0.000 C 
ATOM     26  N   UNL     1      -0.437  10.619  21.180  0.00  0.00    +0.000 N 
ATOM     27  C   UNL     1      -0.923  11.131  22.343  0.00  0.00    +0.000 A 
ATOM     28  N   UNL     1      -0.313  10.573  23.360  0.00  0.00    +0.000 NA
ATOM     29  N   UNL     1       0.603   9.684  22.855  0.00  0.00    +0.000 NA
ATOM     30  C   UNL     1       0.517   9.703  21.537  0.00  0.00    +0.000 A 
ENDBRANCH  24  30
ENDBRANCH  22  24
ENDBRANCH  21  22
ENDBRANCH   1  21
TORSDOF 6
ENDMDL
MODEL 6
REMARK VINA RESULT:      -8.0      5.775      9.119
REMARK  Name = 
REMARK  7 active torsions:
REMARK  status: ('A' for Active; 'I' for Inactive)
REMARK    1  A    between atoms: C_1  and  N_2
REMARK    2  A    between atoms: C_6  and  C_7
REMARK    3  A    between atoms: C_7  and  N_8
REMARK    4  A    between atoms: N_8  and  C_9
REMARK    5  A    between atoms: C_9  and  C_10
REMARK    6  A    between atoms: C_14  and  N_15
REMARK    7  A    between atoms: C_20  and  C_21
REMARK                            x       y       z     vdW  Elec       q    Type
REMARK                         _______ _______ _______ _____ _____    ______ ____
ROOT
ATOM      1  C   UNL     1       2.115   6.677  20.267  0.00  0.00    +0.000 A 
ATOM      2  C   UNL     1       1.670   5.634  21.081  0.00  0.00    +0.000 A 
ATOM      3  C   UNL     1       2.095   4.330  20.839  0.00  0.00    +0.000 A 
ATOM      4  C   UNL     1       2.951   4.051  19.769  0.00  0.00    +0.000 A 
ATOM      5  C   UNL     1       3.401   5.069  18.920  0.00  0.00    +0.000 A 
ATOM      6  C   UNL     1       2.986   6.385  19.204  0.00  0.00    +0.000 A 
ENDROOT
BRANCH   5   7
ATOM      7  N   UNL     1       4.216   4.803  17.784  0.00  0.00    +0.000 N 
ATOM      8  C   UNL     1       5.517   5.409  17.631  0.00  0.00    +0.000 C 
ATOM      9  C   UNL     1       5.912   4.954  16.282  0.00  0.00    +0.000 C 
ATOM     10  C   UNL     1       4.984   4.192  15.696  0.00  0.00    +0.000 C 
ATOM     11  C   UNL     1       5.056   3.653  14.314  0.00  0.00    +0.000 C 
ATOM     12  C   UNL     1       6.340   4.072  13.613  0.00  0.00    +0.000 C 
ATOM     13  C   UNL     1       7.286   4.829  14.220  0.00  0.00    +0.000 C 
ATOM     14  C   UNL     1       7.188   5.350  15.629  0.00  0.00    +0.000 C 
ATOM     15  C   UNL     1       3.874   4.049  16.655  0.00  0.00    +0.000 C 
ATOM     16  O   UNL     1       2.885   3.382  16.410  0.00  0.00    +0.000 OA
BRANCH  12  17
ATOM     17  C   UNL     1       6.491   3.606  12.199  0.00  0.00    +0.000 C 
ATOM     18  F   UNL     1       7.309   4.400  11.465  0.00  0.00    +0.000 F 
ATOM     19  F   UNL     1       7.004   2.351  12.143  0.00  0.00    +0.000 F 
ATOM     20  F   UNL     1       5.295   3.571  11.558  0.00  0.00    +0.000 F 
ENDBRANCH  12  17
ENDBRANCH   5   7
BRANCH   1  21
ATOM     21  C   UNL     1       1.635   8.091  20.498  0.00  0.00    +0.000 C 
BRANCH  21  22
ATOM     22  N   UNL     1       1.150   8.340  21.862  0.00  0.00    +0.000 NA
ATOM     23  H   UNL     1       1.233   7.458  22.373  0.00  0.00    +0.000 HD
BRANCH  22  24
ATOM     24  C   UNL     1      -0.267   8.725  21.916  0.00  0.00    +0.000 C 
BRANCH  24  30
ATOM     25  C   UNL     1      -0.944  10.825  19.724  0.00  0.00    +0.000 C 
ATOM     26  N   UNL     1      -0.775  11.087  21.128  0.00  0.00    +0.000 N 
ATOM     27  C   UNL     1      -0.897  12.297  21.737  0.00  0.00    +0.000 A 
ATOM     28  N   UNL     1      -0.679  12.168  23.023  0.00  0.00    +0.000 NA
ATOM     29  N   UNL     1      -0.394  10.846  23.263  0.00  0.00    +0.000 NA
ATOM     30  C   UNL     1      -0.466  10.191  22.118  0.00  0.00    +0.000 A 
ENDBRANCH  24  30
ENDBRANCH  22  24
ENDBRANCH  21  22
ENDBRANCH   1  21
TORSDOF 6
ENDMDL
MODEL 7
REMARK VINA RESULT:      -8.0      2.934      4.961
REMARK  Name = 
REMARK  7 active torsions:
REMARK  status: ('A' for Active; 'I' for Inactive)
REMARK    1  A    between atoms: C_1  and  N_2
REMARK    2  A    between atoms: C_6  and  C_7
REMARK    3  A    between atoms: C_7  and  N_8
REMARK    4  A    between atoms: N_8  and  C_9
REMARK    5  A    between atoms: C_9  and  C_10
REMARK    6  A    between atoms: C_14  and  N_15
REMARK    7  A    between atoms: C_20  and  C_21
REMARK                            x       y       z     vdW  Elec       q    Type
REMARK                         _______ _______ _______ _____ _____    ______ ____
ROOT
ATOM      1  C   UNL     1       4.835   4.637  17.978  0.00  0.00    +0.000 A 
ATOM      2  C   UNL     1       4.008   3.629  17.480  0.00  0.00    +0.000 A 
ATOM      3  C   UNL     1       2.627   3.802  17.465  0.00  0.00    +0.000 A 
ATOM      4  C   UNL     1       2.054   4.975  17.968  0.00  0.00    +0.000 A 
ATOM      5  C   UNL     1       2.850   5.998  18.494  0.00  0.00    +0.000 A 
ATOM      6  C   UNL     1       4.248   5.816  18.468  0.00  0.00    +0.000 A 
ENDROOT
BRANCH   5   7
ATOM      7  N   UNL     1       2.291   7.171  19.077  0.00  0.00    +0.000 N 
ATOM      8  C   UNL     1       1.836   7.188  20.446  0.00  0.00    +0.000 C 
ATOM      9  C   UNL     1       1.235   8.533  20.554  0.00  0.00    +0.000 C 
ATOM     10  C   UNL     1       1.305   9.229  19.415  0.00  0.00    +0.000 C 
ATOM     11  C   UNL     1       0.721  10.575  19.188  0.00  0.00    +0.000 C 
ATOM     12  C   UNL     1       0.011  11.097  20.429  0.00  0.00    +0.000 C 
ATOM     13  C   UNL     1      -0.039  10.394  21.587  0.00  0.00    +0.000 C 
ATOM     14  C   UNL     1       0.575   9.036  21.788  0.00  0.00    +0.000 C 
ATOM     15  C   UNL     1       2.010   8.383  18.436  0.00  0.00    +0.000 C 
ATOM     16  O   UNL     1       2.249   8.761  17.302  0.00  0.00    +0.000 OA
BRANCH  12  17
ATOM     17  C   UNL     1      -0.643  12.436  20.290  0.00  0.00    +0.000 C 
ATOM     18  F   UNL     1      -1.858  12.495  20.888  0.00  0.00    +0.000 F 
ATOM     19  F   UNL     1       0.116  13.418  20.838  0.00  0.00    +0.000 F 
ATOM     20  F   UNL     1      -0.828  12.764  18.986  0.00  0.00    +0.000 F 
ENDBRANCH  12  17
ENDBRANCH   5   7
BRANCH   1  21
ATOM     21  C   UNL     1       6.333   4.448  18.031  0.00  0.00    +0.000 C 
BRANCH  21  22
ATOM     22  N   UNL     1       7.022   4.803  16.785  0.00  0.00    +0.000 NA
ATOM     23  H   UNL     1       6.949   5.818  16.682  0.00  0.00    +0.000 HD
BRANCH  22  24
ATOM     24  C   UNL     1       6.403   4.215  15.588  0.00  0.00    +0.000 C 
BRANCH  24  30
ATOM     25  C   UNL     1       5.652   3.315  12.708  0.00  0.00    +0.000 C 
ATOM     26  N   UNL     1       6.671   4.266  13.061  0.00  0.00    +0.000 N 
ATOM     27  C   UNL     1       7.469   4.944  12.194  0.00  0.00    +0.000 A 
ATOM     28  N   UNL     1       8.282   5.727  12.861  0.00  0.00    +0.000 NA
ATOM     29  N   UNL     1       8.020   5.551  14.197  0.00  0.00    +0.000 NA
ATOM     30  C   UNL     1       7.036   4.677  14.316  0.00  0.00    +0.000 A 
ENDBRANCH  24  30
ENDBRANCH  22  24
ENDBRANCH  21  22
ENDBRANCH   1  21
TORSDOF 6
ENDMDL
MODEL 8
REMARK VINA RESULT:      -7.9      2.769      5.010
REMARK  Name = 
REMARK  7 active torsions:
REMARK  status: ('A' for Active; 'I' for Inactive)
REMARK    1  A    between atoms: C_1  and  N_2
REMARK    2  A    between atoms: C_6  and  C_7
REMARK    3  A    between atoms: C_7  and  N_8
REMARK    4  A    between atoms: N_8  and  C_9
REMARK    5  A    between atoms: C_9  and  C_10
REMARK    6  A    between atoms: C_14  and  N_15
REMARK    7  A    between atoms: C_20  and  C_21
REMARK                            x       y       z     vdW  Elec       q    Type
REMARK                         _______ _______ _______ _____ _____    ______ ____
ROOT
ATOM      1  C   UNL     1       4.867   4.824  17.844  0.00  0.00    +0.000 A 
ATOM      2  C   UNL     1       4.066   3.786  17.363  0.00  0.00    +0.000 A 
ATOM      3  C   UNL     1       2.679   3.898  17.407  0.00  0.00    +0.000 A 
ATOM      4  C   UNL     1       2.077   5.037  17.951  0.00  0.00    +0.000 A 
ATOM      5  C   UNL     1       2.848   6.088  18.461  0.00  0.00    +0.000 A 
ATOM      6  C   UNL     1       4.249   5.968  18.376  0.00  0.00    +0.000 A 
ENDROOT
BRANCH   5   7
ATOM      7  N   UNL     1       2.262   7.226  19.084  0.00  0.00    +0.000 N 
ATOM      8  C   UNL     1       1.797   7.181  20.450  0.00  0.00    +0.000 C 
ATOM      9  C   UNL     1       1.170   8.509  20.605  0.00  0.00    +0.000 C 
ATOM     10  C   UNL     1       1.234   9.250  19.494  0.00  0.00    +0.000 C 
ATOM     11  C   UNL     1       0.625  10.592  19.315  0.00  0.00    +0.000 C 
ATOM     12  C   UNL     1      -0.103  11.052  20.570  0.00  0.00    +0.000 C 
ATOM     13  C   UNL     1      -0.147  10.304  21.700  0.00  0.00    +0.000 C 
ATOM     14  C   UNL     1       0.492   8.951  21.853  0.00  0.00    +0.000 C 
ATOM     15  C   UNL     1       1.962   8.456  18.489  0.00  0.00    +0.000 C 
ATOM     16  O   UNL     1       2.201   8.883  17.372  0.00  0.00    +0.000 OA
BRANCH  12  17
ATOM     17  C   UNL     1      -0.782  12.383  20.478  0.00  0.00    +0.000 C 
ATOM     18  F   UNL     1      -1.499  12.533  19.338  0.00  0.00    +0.000 F 
ATOM     19  F   UNL     1      -1.640  12.573  21.513  0.00  0.00    +0.000 F 
ATOM     20  F   UNL     1       0.115  13.401  20.519  0.00  0.00    +0.000 F 
ENDBRANCH  12  17
ENDBRANCH   5   7
BRANCH   1  21
ATOM     21  C   UNL     1       6.373   4.700  17.834  0.00  0.00    +0.000 C 
BRANCH  21  22
ATOM     22  N   UNL     1       6.913   4.116  16.600  0.00  0.00    +0.000 NA
ATOM     23  H   UNL     1       7.851   3.771  16.820  0.00  0.00    +0.000 HD
BRANCH  22  24
ATOM     24  C   UNL     1       7.068   5.091  15.512  0.00  0.00    +0.000 C 
BRANCH  24  30
ATOM     25  C   UNL     1       8.480   5.778  12.827  0.00  0.00    +0.000 C 
ATOM     26  N   UNL     1       7.406   4.839  13.005  0.00  0.00    +0.000 N 
ATOM     27  C   UNL     1       6.835   4.082  12.030  0.00  0.00    +0.000 A 
ATOM     28  N   UNL     1       5.887   3.338  12.548  0.00  0.00    +0.000 NA
ATOM     29  N   UNL     1       5.825   3.622  13.890  0.00  0.00    +0.000 NA
ATOM     30  C   UNL     1       6.754   4.520  14.167  0.00  0.00    +0.000 A 
ENDBRANCH  24  30
ENDBRANCH  22  24
ENDBRANCH  21  22
ENDBRANCH   1  21
TORSDOF 6
ENDMDL
MODEL 9
REMARK VINA RESULT:      -7.8      1.322      2.086
REMARK  Name = 
REMARK  7 active torsions:
REMARK  status: ('A' for Active; 'I' for Inactive)
REMARK    1  A    between atoms: C_1  and  N_2
REMARK    2  A    between atoms: C_6  and  C_7
REMARK    3  A    between atoms: C_7  and  N_8
REMARK    4  A    between atoms: N_8  and  C_9
REMARK    5  A    between atoms: C_9  and  C_10
REMARK    6  A    between atoms: C_14  and  N_15
REMARK    7  A    between atoms: C_20  and  C_21
REMARK                            x       y       z     vdW  Elec       q    Type
REMARK                         _______ _______ _______ _____ _____    ______ ____
ROOT
ATOM      1  C   UNL     1       4.420   4.560  16.973  0.00  0.00    +0.000 A 
ATOM      2  C   UNL     1       5.166   5.125  15.937  0.00  0.00    +0.000 A 
ATOM      3  C   UNL     1       5.179   6.505  15.759  0.00  0.00    +0.000 A 
ATOM      4  C   UNL     1       4.430   7.335  16.599  0.00  0.00    +0.000 A 
ATOM      5  C   UNL     1       3.655   6.803  17.636  0.00  0.00    +0.000 A 
ATOM      6  C   UNL     1       3.683   5.406  17.819  0.00  0.00    +0.000 A 
ENDROOT
BRANCH   5   7
ATOM      7  N   UNL     1       2.829   7.617  18.460  0.00  0.00    +0.000 N 
ATOM      8  C   UNL     1       2.368   7.161  19.750  0.00  0.00    +0.000 C 
ATOM      9  C   UNL     1       1.466   8.257  20.160  0.00  0.00    +0.000 C 
ATOM     10  C   UNL     1       1.382   9.232  19.250  0.00  0.00    +0.000 C 
ATOM     11  C   UNL     1       0.500  10.423  19.340  0.00  0.00    +0.000 C 
ATOM     12  C   UNL     1      -0.325  10.417  20.618  0.00  0.00    +0.000 C 
ATOM     13  C   UNL     1      -0.221   9.434  21.546  0.00  0.00    +0.000 C 
ATOM     14  C   UNL     1       0.694   8.245  21.431  0.00  0.00    +0.000 C 
ATOM     15  C   UNL     1       2.277   8.863  18.139  0.00  0.00    +0.000 C 
ATOM     16  O   UNL     1       2.432   9.577  17.164  0.00  0.00    +0.000 OA
BRANCH  12  17
ATOM     17  C   UNL     1      -1.275  11.561  20.785  0.00  0.00    +0.000 C 
ATOM     18  F   UNL     1      -1.869  11.582  22.004  0.00  0.00    +0.000 F 
ATOM     19  F   UNL     1      -0.646  12.754  20.632  0.00  0.00    +0.000 F 
ATOM     20  F   UNL     1      -2.269  11.520  19.862  0.00  0.00    +0.000 F 
ENDBRANCH  12  17
ENDBRANCH   5   7
BRANCH   1  21
ATOM     21  C   UNL     1       4.371   3.061  17.156  0.00  0.00    +0.000 C 
BRANCH  21  22
ATOM     22  N   UNL     1       4.612   2.621  18.536  0.00  0.00    +0.000 NA
ATOM     23  H   UNL     1       5.530   2.170  18.549  0.00  0.00    +0.000 HD
BRANCH  22  24
ATOM     24  C   UNL     1       3.645   1.620  19.007  0.00  0.00    +0.000 C 
BRANCH  24  30
ATOM     25  C   UNL     1       2.441   3.043  21.496  0.00  0.00    +0.000 C 
ATOM     26  N   UNL     1       1.766   2.795  20.251  0.00  0.00    +0.000 N 
ATOM     27  C   UNL     1       0.490   3.155  19.946  0.00  0.00    +0.000 A 
ATOM     28  N   UNL     1       0.204   2.772  18.725  0.00  0.00    +0.000 NA
ATOM     29  N   UNL     1       1.311   2.137  18.221  0.00  0.00    +0.000 NA
ATOM     30  C   UNL     1       2.260   2.163  19.140  0.00  0.00    +0.000 A 
ENDBRANCH  24  30
ENDBRANCH  22  24
ENDBRANCH  21  22
ENDBRANCH   1  21
TORSDOF 6
ENDMDL
