MODEL 1
REMARK VINA RESULT:      -8.1      0.000      0.000
REMARK  Name = 
REMARK  6 active torsions:
REMARK  status: ('A' for Active; 'I' for Inactive)
REMARK    1  A    between atoms: C_1  and  C_2
REMARK    2  A    between atoms: C_2  and  N_3
REMARK    3  A    between atoms: C_2  and  C_17
REMARK    4  A    between atoms: N_3  and  C_4
REMARK    5  A    between atoms: C_4  and  C_5
REMARK    6  A    between atoms: N_7  and  C_8
REMARK                            x       y       z     vdW  Elec       q    Type
REMARK                         _______ _______ _______ _____ _____    ______ ____
ROOT
ATOM      1  N   UNL     1       3.166   4.757  20.926  0.00  0.00    +0.000 NA
ATOM      2  H   UNL     1       3.426   4.868  21.907  0.00  0.00    +0.000 HD
ENDROOT
BRANCH   1   4
ATOM      3  C   UNL     1       0.772   4.299  20.335  0.00  0.00    +0.000 C 
ATOM      4  C   UNL     1       1.824   5.353  20.735  0.00  0.00    +0.000 C 
BRANCH   4   5
ATOM      5  C   UNL     1       1.868   6.601  19.850  0.00  0.00    +0.000 A 
ATOM      6  C   UNL     1       2.532   6.544  18.606  0.00  0.00    +0.000 A 
ATOM      7  C   UNL     1       2.670   7.674  17.811  0.00  0.00    +0.000 A 
ATOM      8  C   UNL     1       2.148   8.888  18.234  0.00  0.00    +0.000 A 
ATOM      9  C   UNL     1       1.471   8.991  19.455  0.00  0.00    +0.000 A 
ATOM     10  C   UNL     1       0.956  10.236  19.851  0.00  0.00    +0.000 A 
ATOM     11  C   UNL     1       0.267  10.379  21.052  0.00  0.00    +0.000 A 
ATOM     12  C   UNL     1       0.090   9.278  21.876  0.00  0.00    +0.000 A 
ATOM     13  C   UNL     1       0.613   8.036  21.502  0.00  0.00    +0.000 A 
ATOM     14  C   UNL     1       1.315   7.849  20.284  0.00  0.00    +0.000 A 
ENDBRANCH   4   5
ENDBRANCH   1   4
BRANCH   1  15
ATOM     15  C   UNL     1       3.207   3.317  20.602  0.00  0.00    +0.000 C 
BRANCH  15  16
ATOM     16  C   UNL     1       4.044   3.080  19.346  0.00  0.00    +0.000 C 
ATOM     17  O   UNL     1       4.136   1.957  18.859  0.00  0.00    +0.000 OA
ATOM     18  N   UNL     1       4.636   4.233  18.859  0.00  0.00    +0.000 N 
ATOM     19  H   UNL     1       4.607   5.041  19.483  0.00  0.00    +0.000 HD
BRANCH  18  20
ATOM     20  C   UNL     1       5.446   4.330  17.708  0.00  0.00    +0.000 A 
ATOM     21  C   UNL     1       6.821   4.596  17.757  0.00  0.00    +0.000 A 
ATOM     22  C   UNL     1       7.559   4.758  16.580  0.00  0.00    +0.000 A 
ATOM     23  C   UNL     1       6.924   4.637  15.350  0.00  0.00    +0.000 A 
ATOM     24  F   UNL     1       7.631   4.830  14.229  0.00  0.00    +0.000 F 
ATOM     25  C   UNL     1       5.572   4.334  15.281  0.00  0.00    +0.000 A 
ATOM     26  F   UNL     1       4.971   4.216  14.089  0.00  0.00    +0.000 F 
ATOM     27  C   UNL     1       4.842   4.170  16.454  0.00  0.00    +0.000 A 
ATOM     28  F   UNL     1       3.532   3.883  16.381  0.00  0.00    +0.000 F 
ENDBRANCH  18  20
ENDBRANCH  15  16
ENDBRANCH   1  15
TORSDOF 5
ENDMDL
MODEL 2
REMARK VINA RESULT:      -8.1      5.794      7.401
REMARK  Name = 
REMARK  6 active torsions:
REMARK  status: ('A' for Active; 'I' for Inactive)
REMARK    1  A    between atoms: C_1  and  C_2
REMARK    2  A    between atoms: C_2  and  N_3
REMARK    3  A    between atoms: C_2  and  C_17
REMARK    4  A    between atoms: N_3  and  C_4
REMARK    5  A    between atoms: C_4  and  C_5
REMARK    6  A    between atoms: N_7  and  C_8
REMARK                            x       y       z     vdW  Elec       q    Type
REMARK                         _______ _______ _______ _____ _____    ______ ____
ROOT
ATOM      1  N   UNL     1       7.503   6.419  16.932  0.00  0.00    +0.000 NA
ATOM      2  H   UNL     1       7.066   7.142  16.359  0.00  0.00    +0.000 HD
ENDROOT
BRANCH   1   4
ATOM      3  C   UNL     1       6.544   4.404  15.789  0.00  0.00    +0.000 C 
ATOM      4  C   UNL     1       6.553   5.290  17.051  0.00  0.00    +0.000 C 
BRANCH   4   5
ATOM      5  C   UNL     1       5.176   5.745  17.540  0.00  0.00    +0.000 A 
ATOM      6  C   UNL     1       4.663   6.986  17.107  0.00  0.00    +0.000 A 
ATOM      7  C   UNL     1       3.458   7.476  17.592  0.00  0.00    +0.000 A 
ATOM      8  C   UNL     1       2.732   6.740  18.519  0.00  0.00    +0.000 A 
ATOM      9  C   UNL     1       3.195   5.497  18.968  0.00  0.00    +0.000 A 
ATOM     10  C   UNL     1       2.433   4.780  19.905  0.00  0.00    +0.000 A 
ATOM     11  C   UNL     1       2.852   3.536  20.370  0.00  0.00    +0.000 A 
ATOM     12  C   UNL     1       4.042   2.997  19.906  0.00  0.00    +0.000 A 
ATOM     13  C   UNL     1       4.819   3.708  18.985  0.00  0.00    +0.000 A 
ATOM     14  C   UNL     1       4.423   4.974  18.484  0.00  0.00    +0.000 A 
ENDBRANCH   4   5
ENDBRANCH   1   4
BRANCH   1  15
ATOM     15  C   UNL     1       7.850   7.018  18.237  0.00  0.00    +0.000 C 
BRANCH  15  16
ATOM     16  C   UNL     1       8.082   8.520  18.085  0.00  0.00    +0.000 C 
ATOM     17  O   UNL     1       7.472   9.164  17.235  0.00  0.00    +0.000 OA
ATOM     18  N   UNL     1       9.007   9.024  18.984  0.00  0.00    +0.000 N 
ATOM     19  H   UNL     1       9.550   8.327  19.494  0.00  0.00    +0.000 HD
BRANCH  18  20
ATOM     20  C   UNL     1       9.410  10.372  19.096  0.00  0.00    +0.000 A 
ATOM     21  C   UNL     1       9.790  11.153  17.996  0.00  0.00    +0.000 A 
ATOM     22  C   UNL     1      10.255  12.459  18.176  0.00  0.00    +0.000 A 
ATOM     23  C   UNL     1      10.324  12.992  19.458  0.00  0.00    +0.000 A 
ATOM     24  F   UNL     1      10.805  14.232  19.623  0.00  0.00    +0.000 F 
ATOM     25  C   UNL     1       9.914  12.249  20.554  0.00  0.00    +0.000 A 
ATOM     26  F   UNL     1       9.981  12.775  21.785  0.00  0.00    +0.000 F 
ATOM     27  C   UNL     1       9.449  10.951  20.372  0.00  0.00    +0.000 A 
ATOM     28  F   UNL     1       9.059  10.232  21.437  0.00  0.00    +0.000 F 
ENDBRANCH  18  20
ENDBRANCH  15  16
ENDBRANCH   1  15
TORSDOF 5
ENDMDL
MODEL 3
REMARK VINA RESULT:      -8.0      5.789      7.565
REMARK  Name = 
REMARK  6 active torsions:
REMARK  status: ('A' for Active; 'I' for Inactive)
REMARK    1  A    between atoms: C_1  and  C_2
REMARK    2  A    between atoms: C_2  and  N_3
REMARK    3  A    between atoms: C_2  and  C_17
REMARK    4  A    between atoms: N_3  and  C_4
REMARK    5  A    between atoms: C_4  and  C_5
REMARK    6  A    between atoms: N_7  and  C_8
REMARK                            x       y       z     vdW  Elec       q    Type
REMARK                         _______ _______ _______ _____ _____    ______ ____
ROOT
ATOM      1  N   UNL     1       7.506   6.939  16.917  0.00  0.00    +0.000 NA
ATOM      2  H   UNL     1       6.897   7.702  16.620  0.00  0.00    +0.000 HD
ENDROOT
BRANCH   1   4
ATOM      3  C   UNL     1       6.794   4.850  15.727  0.00  0.00    +0.000 C 
ATOM      4  C   UNL     1       6.690   5.706  17.004  0.00  0.00    +0.000 C 
BRANCH   4   5
ATOM      5  C   UNL     1       5.265   5.992  17.486  0.00  0.00    +0.000 A 
ATOM      6  C   UNL     1       4.637   7.199  17.110  0.00  0.00    +0.000 A 
ATOM      7  C   UNL     1       3.380   7.536  17.593  0.00  0.00    +0.000 A 
ATOM      8  C   UNL     1       2.716   6.679  18.460  0.00  0.00    +0.000 A 
ATOM      9  C   UNL     1       3.295   5.466  18.852  0.00  0.00    +0.000 A 
ATOM     10  C   UNL     1       2.594   4.624  19.730  0.00  0.00    +0.000 A 
ATOM     11  C   UNL     1       3.128   3.404  20.135  0.00  0.00    +0.000 A 
ATOM     12  C   UNL     1       4.375   3.014  19.670  0.00  0.00    +0.000 A 
ATOM     13  C   UNL     1       5.091   3.850  18.808  0.00  0.00    +0.000 A 
ATOM     14  C   UNL     1       4.578   5.097  18.368  0.00  0.00    +0.000 A 
ENDBRANCH   4   5
ENDBRANCH   1   4
BRANCH   1  15
ATOM     15  C   UNL     1       8.116   7.316  18.208  0.00  0.00    +0.000 C 
BRANCH  15  16
ATOM     16  C   UNL     1       8.259   8.835  18.302  0.00  0.00    +0.000 C 
ATOM     17  O   UNL     1       7.573   9.571  17.598  0.00  0.00    +0.000 OA
ATOM     18  N   UNL     1       9.199   9.238  19.235  0.00  0.00    +0.000 N 
ATOM     19  H   UNL     1       9.804   8.501  19.598  0.00  0.00    +0.000 HD
BRANCH  18  20
ATOM     20  C   UNL     1       9.533  10.571  19.556  0.00  0.00    +0.000 A 
ATOM     21  C   UNL     1       9.243  11.158  20.795  0.00  0.00    +0.000 A 
ATOM     22  C   UNL     1       9.527  12.507  21.029  0.00  0.00    +0.000 A 
ATOM     23  C   UNL     1      10.121  13.267  20.029  0.00  0.00    +0.000 A 
ATOM     24  F   UNL     1      10.357  14.567  20.250  0.00  0.00    +0.000 F 
ATOM     25  C   UNL     1      10.453  12.693  18.811  0.00  0.00    +0.000 A 
ATOM     26  F   UNL     1      11.029  13.434  17.854  0.00  0.00    +0.000 F 
ATOM     27  C   UNL     1      10.171  11.350  18.581  0.00  0.00    +0.000 A 
ATOM     28  F   UNL     1      10.489  10.801  17.398  0.00  0.00    +0.000 F 
ENDBRANCH  18  20
ENDBRANCH  15  16
ENDBRANCH   1  15
TORSDOF 5
ENDMDL
MODEL 4
REMARK VINA RESULT:      -8.0      2.332      6.444
REMARK  Name = 
REMARK  6 active torsions:
REMARK  status: ('A' for Active; 'I' for Inactive)
REMARK    1  A    between atoms: C_1  and  C_2
REMARK    2  A    between atoms: C_2  and  N_3
REMARK    3  A    between atoms: C_2  and  C_17
REMARK    4  A    between atoms: N_3  and  C_4
REMARK    5  A    between atoms: C_4  and  C_5
REMARK    6  A    between atoms: N_7  and  C_8
REMARK                            x       y       z     vdW  Elec       q    Type
REMARK                         _______ _______ _______ _____ _____    ______ ____
ROOT
ATOM      1  N   UNL     1       4.047   3.115  20.161  0.00  0.00    +0.000 NA
ATOM      2  H   UNL     1       4.633   3.790  20.653  0.00  0.00    +0.000 HD
ENDROOT
BRANCH   1   4
ATOM      3  C   UNL     1       3.774   2.228  17.831  0.00  0.00    +0.000 C 
ATOM      4  C   UNL     1       4.067   3.453  18.719  0.00  0.00    +0.000 C 
BRANCH   4   5
ATOM      5  C   UNL     1       5.311   4.258  18.334  0.00  0.00    +0.000 A 
ATOM      6  C   UNL     1       6.041   4.927  19.340  0.00  0.00    +0.000 A 
ATOM      7  C   UNL     1       7.125   5.736  19.026  0.00  0.00    +0.000 A 
ATOM      8  C   UNL     1       7.510   5.896  17.702  0.00  0.00    +0.000 A 
ATOM      9  C   UNL     1       6.824   5.243  16.671  0.00  0.00    +0.000 A 
ATOM     10  C   UNL     1       7.243   5.428  15.344  0.00  0.00    +0.000 A 
ATOM     11  C   UNL     1       6.595   4.788  14.291  0.00  0.00    +0.000 A 
ATOM     12  C   UNL     1       5.515   3.959  14.553  0.00  0.00    +0.000 A 
ATOM     13  C   UNL     1       5.077   3.778  15.869  0.00  0.00    +0.000 A 
ATOM     14  C   UNL     1       5.715   4.408  16.968  0.00  0.00    +0.000 A 
ENDBRANCH   4   5
ENDBRANCH   1   4
BRANCH   1  15
ATOM     15  C   UNL     1       2.692   3.172  20.746  0.00  0.00    +0.000 C 
BRANCH  15  16
ATOM     16  C   UNL     1       1.942   4.397  20.226  0.00  0.00    +0.000 C 
ATOM     17  O   UNL     1       0.864   4.272  19.652  0.00  0.00    +0.000 OA
ATOM     18  N   UNL     1       2.599   5.589  20.482  0.00  0.00    +0.000 N 
ATOM     19  H   UNL     1       3.564   5.500  20.803  0.00  0.00    +0.000 HD
BRANCH  18  20
ATOM     20  C   UNL     1       2.143   6.880  20.141  0.00  0.00    +0.000 A 
ATOM     21  C   UNL     1       1.401   7.688  21.013  0.00  0.00    +0.000 A 
ATOM     22  C   UNL     1       0.908   8.927  20.593  0.00  0.00    +0.000 A 
ATOM     23  C   UNL     1       1.173   9.369  19.303  0.00  0.00    +0.000 A 
ATOM     24  F   UNL     1       0.667  10.542  18.898  0.00  0.00    +0.000 F 
ATOM     25  C   UNL     1       1.941   8.602  18.439  0.00  0.00    +0.000 A 
ATOM     26  F   UNL     1       2.194   9.040  17.197  0.00  0.00    +0.000 F 
ATOM     27  C   UNL     1       2.432   7.371  18.860  0.00  0.00    +0.000 A 
ATOM     28  F   UNL     1       3.169   6.629  18.017  0.00  0.00    +0.000 F 
ENDBRANCH  18  20
ENDBRANCH  15  16
ENDBRANCH   1  15
TORSDOF 5
ENDMDL
MODEL 5
REMARK VINA RESULT:      -7.9      3.556      5.707
REMARK  Name = 
REMARK  6 active torsions:
REMARK  status: ('A' for Active; 'I' for Inactive)
REMARK    1  A    between atoms: C_1  and  C_2
REMARK    2  A    between atoms: C_2  and  N_3
REMARK    3  A    between atoms: C_2  and  C_17
REMARK    4  A    between atoms: N_3  and  C_4
REMARK    5  A    between atoms: C_4  and  C_5
REMARK    6  A    between atoms: N_7  and  C_8
REMARK                            x       y       z     vdW  Elec       q    Type
REMARK                         _______ _______ _______ _____ _____    ______ ____
ROOT
ATOM      1  N   UNL     1      -0.046   9.216  20.607  0.00  0.00    +0.000 NA
ATOM      2  H   UNL     1      -0.431   8.516  19.971  0.00  0.00    +0.000 HD
ENDROOT
BRANCH   1   4
ATOM      3  C   UNL     1       1.211  11.379  20.439  0.00  0.00    +0.000 C 
ATOM      4  C   UNL     1       0.093  10.488  19.862  0.00  0.00    +0.000 C 
BRANCH   4   5
ATOM      5  C   UNL     1      -1.254  11.183  19.652  0.00  0.00    +0.000 A 
ATOM      6  C   UNL     1      -1.761  12.031  20.660  0.00  0.00    +0.000 A 
ATOM      7  C   UNL     1      -3.016  12.613  20.548  0.00  0.00    +0.000 A 
ATOM      8  C   UNL     1      -3.797  12.367  19.428  0.00  0.00    +0.000 A 
ATOM      9  C   UNL     1      -3.332  11.543  18.396  0.00  0.00    +0.000 A 
ATOM     10  C   UNL     1      -4.150  11.318  17.277  0.00  0.00    +0.000 A 
ATOM     11  C   UNL     1      -3.721  10.514  16.224  0.00  0.00    +0.000 A 
ATOM     12  C   UNL     1      -2.470   9.920  16.281  0.00  0.00    +0.000 A 
ATOM     13  C   UNL     1      -1.652  10.122  17.398  0.00  0.00    +0.000 A 
ATOM     14  C   UNL     1      -2.050  10.939  18.487  0.00  0.00    +0.000 A 
ENDBRANCH   4   5
ENDBRANCH   1   4
BRANCH   1  15
ATOM     15  C   UNL     1       1.241   8.707  21.123  0.00  0.00    +0.000 C 
BRANCH  15  16
ATOM     16  C   UNL     1       1.821   7.668  20.165  0.00  0.00    +0.000 C 
ATOM     17  O   UNL     1       2.126   7.978  19.017  0.00  0.00    +0.000 OA
ATOM     18  N   UNL     1       1.955   6.414  20.736  0.00  0.00    +0.000 N 
ATOM     19  H   UNL     1       1.486   6.286  21.634  0.00  0.00    +0.000 HD
BRANCH  18  20
ATOM     20  C   UNL     1       2.477   5.264  20.106  0.00  0.00    +0.000 A 
ATOM     21  C   UNL     1       3.801   5.170  19.656  0.00  0.00    +0.000 A 
ATOM     22  C   UNL     1       4.241   4.035  18.969  0.00  0.00    +0.000 A 
ATOM     23  C   UNL     1       3.361   2.984  18.745  0.00  0.00    +0.000 A 
ATOM     24  F   UNL     1       3.783   1.915  18.054  0.00  0.00    +0.000 F 
ATOM     25  C   UNL     1       2.059   3.041  19.219  0.00  0.00    +0.000 A 
ATOM     26  F   UNL     1       1.220   2.018  19.001  0.00  0.00    +0.000 F 
ATOM     27  C   UNL     1       1.624   4.170  19.905  0.00  0.00    +0.000 A 
ATOM     28  F   UNL     1       0.360   4.223  20.356  0.00  0.00    +0.000 F 
ENDBRANCH  18  20
ENDBRANCH  15  16
ENDBRANCH   1  15
TORSDOF 5
ENDMDL
MODEL 6
REMARK VINA RESULT:      -7.7      2.483      6.099
REMARK  Name = 
REMARK  6 active torsions:
REMARK  status: ('A' for Active; 'I' for Inactive)
REMARK    1  A    between atoms: C_1  and  C_2
REMARK    2  A    between atoms: C_2  and  N_3
REMARK    3  A    between atoms: C_2  and  C_17
REMARK    4  A    between atoms: N_3  and  C_4
REMARK    5  A    between atoms: C_4  and  C_5
REMARK    6  A    between atoms: N_7  and  C_8
REMARK                            x       y       z     vdW  Elec       q    Type
REMARK                         _______ _______ _______ _____ _____    ______ ____
ROOT
ATOM      1  N   UNL     1       3.979   3.170  19.539  0.00  0.00    +0.000 NA
ATOM      2  H   UNL     1       4.675   3.898  19.711  0.00  0.00    +0.000 HD
ENDROOT
BRANCH   1   4
ATOM      3  C   UNL     1       2.819   2.064  17.611  0.00  0.00    +0.000 C 
ATOM      4  C   UNL     1       3.447   3.356  18.170  0.00  0.00    +0.000 C 
BRANCH   4   5
ATOM      5  C   UNL     1       4.457   4.044  17.248  0.00  0.00    +0.000 A 
ATOM      6  C   UNL     1       4.328   3.901  15.850  0.00  0.00    +0.000 A 
ATOM      7  C   UNL     1       5.270   4.436  14.982  0.00  0.00    +0.000 A 
ATOM      8  C   UNL     1       6.362   5.131  15.484  0.00  0.00    +0.000 A 
ATOM      9  C   UNL     1       6.525   5.309  16.863  0.00  0.00    +0.000 A 
ATOM     10  C   UNL     1       7.642   6.018  17.335  0.00  0.00    +0.000 A 
ATOM     11  C   UNL     1       7.836   6.227  18.697  0.00  0.00    +0.000 A 
ATOM     12  C   UNL     1       6.918   5.724  19.606  0.00  0.00    +0.000 A 
ATOM     13  C   UNL     1       5.810   5.002  19.151  0.00  0.00    +0.000 A 
ATOM     14  C   UNL     1       5.574   4.773  17.771  0.00  0.00    +0.000 A 
ENDBRANCH   4   5
ENDBRANCH   1   4
BRANCH   1  15
ATOM     15  C   UNL     1       2.938   3.279  20.581  0.00  0.00    +0.000 C 
BRANCH  15  16
ATOM     16  C   UNL     1       2.045   4.489  20.312  0.00  0.00    +0.000 C 
ATOM     17  O   UNL     1       0.833   4.352  20.170  0.00  0.00    +0.000 OA
ATOM     18  N   UNL     1       2.744   5.684  20.265  0.00  0.00    +0.000 N 
ATOM     19  H   UNL     1       3.760   5.598  20.222  0.00  0.00    +0.000 HD
BRANCH  18  20
ATOM     20  C   UNL     1       2.189   6.964  20.056  0.00  0.00    +0.000 A 
ATOM     21  C   UNL     1       1.430   7.639  21.021  0.00  0.00    +0.000 A 
ATOM     22  C   UNL     1       0.839   8.872  20.729  0.00  0.00    +0.000 A 
ATOM     23  C   UNL     1       1.023   9.442  19.475  0.00  0.00    +0.000 A 
ATOM     24  F   UNL     1       0.424  10.607  19.193  0.00  0.00    +0.000 F 
ATOM     25  C   UNL     1       1.806   8.808  18.521  0.00  0.00    +0.000 A 
ATOM     26  F   UNL     1       1.979   9.369  17.315  0.00  0.00    +0.000 F 
ATOM     27  C   UNL     1       2.394   7.583  18.815  0.00  0.00    +0.000 A 
ATOM     28  F   UNL     1       3.145   6.970  17.885  0.00  0.00    +0.000 F 
ENDBRANCH  18  20
ENDBRANCH  15  16
ENDBRANCH   1  15
TORSDOF 5
ENDMDL
MODEL 7
REMARK VINA RESULT:      -7.7      5.406      8.692
REMARK  Name = 
REMARK  6 active torsions:
REMARK  status: ('A' for Active; 'I' for Inactive)
REMARK    1  A    between atoms: C_1  and  C_2
REMARK    2  A    between atoms: C_2  and  N_3
REMARK    3  A    between atoms: C_2  and  C_17
REMARK    4  A    between atoms: N_3  and  C_4
REMARK    5  A    between atoms: C_4  and  C_5
REMARK    6  A    between atoms: N_7  and  C_8
REMARK                            x       y       z     vdW  Elec       q    Type
REMARK                         _______ _______ _______ _____ _____    ______ ____
ROOT
ATOM      1  N   UNL     1       1.842   8.659  17.645  0.00  0.00    +0.000 NA
ATOM      2  H   UNL     1       0.951   8.640  17.147  0.00  0.00    +0.000 HD
ENDROOT
BRANCH   1   4
ATOM      3  C   UNL     1       2.023   7.741  19.972  0.00  0.00    +0.000 C 
ATOM      4  C   UNL     1       1.937   7.429  18.465  0.00  0.00    +0.000 C 
BRANCH   4   5
ATOM      5  C   UNL     1       3.002   6.466  17.934  0.00  0.00    +0.000 A 
ATOM      6  C   UNL     1       4.190   6.986  17.378  0.00  0.00    +0.000 A 
ATOM      7  C   UNL     1       5.143   6.152  16.809  0.00  0.00    +0.000 A 
ATOM      8  C   UNL     1       4.938   4.779  16.781  0.00  0.00    +0.000 A 
ATOM      9  C   UNL     1       3.780   4.217  17.332  0.00  0.00    +0.000 A 
ATOM     10  C   UNL     1       3.606   2.824  17.287  0.00  0.00    +0.000 A 
ATOM     11  C   UNL     1       2.475   2.224  17.833  0.00  0.00    +0.000 A 
ATOM     12  C   UNL     1       1.499   3.011  18.425  0.00  0.00    +0.000 A 
ATOM     13  C   UNL     1       1.652   4.401  18.462  0.00  0.00    +0.000 A 
ATOM     14  C   UNL     1       2.792   5.049  17.922  0.00  0.00    +0.000 A 
ENDBRANCH   4   5
ENDBRANCH   1   4
BRANCH   1  15
ATOM     15  C   UNL     1       1.886   9.894  18.454  0.00  0.00    +0.000 C 
BRANCH  15  16
ATOM     16  C   UNL     1       0.608  10.706  18.252  0.00  0.00    +0.000 C 
ATOM     17  O   UNL     1       0.590  11.911  18.489  0.00  0.00    +0.000 OA
ATOM     18  N   UNL     1      -0.452   9.948  17.785  0.00  0.00    +0.000 N 
ATOM     19  H   UNL     1      -0.318   8.937  17.815  0.00  0.00    +0.000 HD
BRANCH  18  20
ATOM     20  C   UNL     1      -1.747  10.424  17.486  0.00  0.00    +0.000 A 
ATOM     21  C   UNL     1      -2.321  10.338  16.210  0.00  0.00    +0.000 A 
ATOM     22  C   UNL     1      -3.576  10.896  15.954  0.00  0.00    +0.000 A 
ATOM     23  C   UNL     1      -4.269  11.528  16.980  0.00  0.00    +0.000 A 
ATOM     24  F   UNL     1      -5.455  12.091  16.716  0.00  0.00    +0.000 F 
ATOM     25  C   UNL     1      -3.735  11.586  18.258  0.00  0.00    +0.000 A 
ATOM     26  F   UNL     1      -4.414  12.195  19.242  0.00  0.00    +0.000 F 
ATOM     27  C   UNL     1      -2.487  11.027  18.511  0.00  0.00    +0.000 A 
ATOM     28  F   UNL     1      -1.972  11.093  19.750  0.00  0.00    +0.000 F 
ENDBRANCH  18  20
ENDBRANCH  15  16
ENDBRANCH   1  15
TORSDOF 5
ENDMDL
MODEL 8
REMARK VINA RESULT:      -7.7      1.173      1.579
REMARK  Name = 
REMARK  6 active torsions:
REMARK  status: ('A' for Active; 'I' for Inactive)
REMARK    1  A    between atoms: C_1  and  C_2
REMARK    2  A    between atoms: C_2  and  N_3
REMARK    3  A    between atoms: C_2  and  C_17
REMARK    4  A    between atoms: N_3  and  C_4
REMARK    5  A    between atoms: C_4  and  C_5
REMARK    6  A    between atoms: N_7  and  C_8
REMARK                            x       y       z     vdW  Elec       q    Type
REMARK                         _______ _______ _______ _____ _____    ______ ____
ROOT
ATOM      1  N   UNL     1       2.957   4.877  20.995  0.00  0.00    +0.000 NA
ATOM      2  H   UNL     1       3.068   4.730  21.999  0.00  0.00    +0.000 HD
ENDROOT
BRANCH   1   4
ATOM      3  C   UNL     1       0.608   4.423  20.245  0.00  0.00    +0.000 C 
ATOM      4  C   UNL     1       1.618   5.466  20.763  0.00  0.00    +0.000 C 
BRANCH   4   5
ATOM      5  C   UNL     1       1.692   6.763  19.953  0.00  0.00    +0.000 A 
ATOM      6  C   UNL     1       2.398   6.776  18.731  0.00  0.00    +0.000 A 
ATOM      7  C   UNL     1       2.562   7.950  18.008  0.00  0.00    +0.000 A 
ATOM      8  C   UNL     1       2.025   9.139  18.482  0.00  0.00    +0.000 A 
ATOM      9  C   UNL     1       1.307   9.172  19.684  0.00  0.00    +0.000 A 
ATOM     10  C   UNL     1       0.777  10.392  20.132  0.00  0.00    +0.000 A 
ATOM     11  C   UNL     1       0.047  10.467  21.316  0.00  0.00    +0.000 A 
ATOM     12  C   UNL     1      -0.156   9.320  22.068  0.00  0.00    +0.000 A 
ATOM     13  C   UNL     1       0.380   8.101  21.642  0.00  0.00    +0.000 A 
ATOM     14  C   UNL     1       1.123   7.984  20.440  0.00  0.00    +0.000 A 
ENDBRANCH   4   5
ENDBRANCH   1   4
BRANCH   1  15
ATOM     15  C   UNL     1       3.139   3.577  20.319  0.00  0.00    +0.000 C 
BRANCH  15  16
ATOM     16  C   UNL     1       4.325   3.642  19.359  0.00  0.00    +0.000 C 
ATOM     17  O   UNL     1       5.384   3.083  19.635  0.00  0.00    +0.000 OA
ATOM     18  N   UNL     1       4.057   4.360  18.206  0.00  0.00    +0.000 N 
ATOM     19  H   UNL     1       3.196   4.908  18.219  0.00  0.00    +0.000 HD
BRANCH  18  20
ATOM     20  C   UNL     1       4.947   4.574  17.132  0.00  0.00    +0.000 A 
ATOM     21  C   UNL     1       4.907   3.834  15.943  0.00  0.00    +0.000 A 
ATOM     22  C   UNL     1       5.864   4.036  14.945  0.00  0.00    +0.000 A 
ATOM     23  C   UNL     1       6.854   4.993  15.127  0.00  0.00    +0.000 A 
ATOM     24  F   UNL     1       7.788   5.155  14.180  0.00  0.00    +0.000 F 
ATOM     25  C   UNL     1       6.886   5.764  16.279  0.00  0.00    +0.000 A 
ATOM     26  F   UNL     1       7.844   6.687  16.443  0.00  0.00    +0.000 F 
ATOM     27  C   UNL     1       5.931   5.562  17.270  0.00  0.00    +0.000 A 
ATOM     28  F   UNL     1       5.970   6.307  18.388  0.00  0.00    +0.000 F 
ENDBRANCH  18  20
ENDBRANCH  15  16
ENDBRANCH   1  15
TORSDOF 5
ENDMDL
MODEL 9
REMARK VINA RESULT:      -7.7      3.610      5.493
REMARK  Name = 
REMARK  6 active torsions:
REMARK  status: ('A' for Active; 'I' for Inactive)
REMARK    1  A    between atoms: C_1  and  C_2
REMARK    2  A    between atoms: C_2  and  N_3
REMARK    3  A    between atoms: C_2  and  C_17
REMARK    4  A    between atoms: N_3  and  C_4
REMARK    5  A    between atoms: C_4  and  C_5
REMARK    6  A    between atoms: N_7  and  C_8
REMARK                            x       y       z     vdW  Elec       q    Type
REMARK                         _______ _______ _______ _____ _____    ______ ____
ROOT
ATOM      1  N   UNL     1       0.948   9.353  18.226  0.00  0.00    +0.000 NA
ATOM      2  H   UNL     1       0.380   9.341  17.378  0.00  0.00    +0.000 HD
ENDROOT
BRANCH   1   4
ATOM      3  C   UNL     1       1.734  11.697  18.646  0.00  0.00    +0.000 C 
ATOM      4  C   UNL     1       0.674  10.619  18.945  0.00  0.00    +0.000 C 
BRANCH   4   5
ATOM      5  C   UNL     1       0.379  10.385  20.429  0.00  0.00    +0.000 A 
ATOM      6  C   UNL     1       1.049   9.349  21.114  0.00  0.00    +0.000 A 
ATOM      7  C   UNL     1       0.750   9.048  22.435  0.00  0.00    +0.000 A 
ATOM      8  C   UNL     1      -0.223   9.773  23.109  0.00  0.00    +0.000 A 
ATOM      9  C   UNL     1      -0.906  10.818  22.475  0.00  0.00    +0.000 A 
ATOM     10  C   UNL     1      -1.884  11.530  23.188  0.00  0.00    +0.000 A 
ATOM     11  C   UNL     1      -2.579  12.583  22.598  0.00  0.00    +0.000 A 
ATOM     12  C   UNL     1      -2.307  12.932  21.285  0.00  0.00    +0.000 A 
ATOM     13  C   UNL     1      -1.348  12.220  20.557  0.00  0.00    +0.000 A 
ATOM     14  C   UNL     1      -0.615  11.146  21.125  0.00  0.00    +0.000 A 
ENDBRANCH   4   5
ENDBRANCH   1   4
BRANCH   1  15
ATOM     15  C   UNL     1       2.364   9.211  17.831  0.00  0.00    +0.000 C 
BRANCH  15  16
ATOM     16  C   UNL     1       2.798   7.750  17.936  0.00  0.00    +0.000 C 
ATOM     17  O   UNL     1       3.909   7.400  17.547  0.00  0.00    +0.000 OA
ATOM     18  N   UNL     1       1.835   6.933  18.502  0.00  0.00    +0.000 N 
ATOM     19  H   UNL     1       0.908   7.348  18.600  0.00  0.00    +0.000 HD
BRANCH  18  20
ATOM     20  C   UNL     1       1.957   5.548  18.745  0.00  0.00    +0.000 A 
ATOM     21  C   UNL     1       2.083   4.598  17.723  0.00  0.00    +0.000 A 
ATOM     22  C   UNL     1       2.121   3.232  18.021  0.00  0.00    +0.000 A 
ATOM     23  C   UNL     1       2.052   2.816  19.344  0.00  0.00    +0.000 A 
ATOM     24  F   UNL     1       2.053   1.504  19.617  0.00  0.00    +0.000 F 
ATOM     25  C   UNL     1       1.969   3.744  20.372  0.00  0.00    +0.000 A 
ATOM     26  F   UNL     1       1.906   3.331  21.646  0.00  0.00    +0.000 F 
ATOM     27  C   UNL     1       1.933   5.102  20.074  0.00  0.00    +0.000 A 
ATOM     28  F   UNL     1       1.846   5.996  21.072  0.00  0.00    +0.000 F 
ENDBRANCH  18  20
ENDBRANCH  15  16
ENDBRANCH   1  15
TORSDOF 5
ENDMDL
