MODEL 1
REMARK VINA RESULT:      -9.8      0.000      0.000
REMARK  Name = 
REMARK  6 active torsions:
REMARK  status: ('A' for Active; 'I' for Inactive)
REMARK    1  A    between atoms: C_1  and  C_2
REMARK    2  A    between atoms: C_5  and  S_6
REMARK    3  A    between atoms: S_6  and  C_7
REMARK    4  A    between atoms: C_11  and  C_12
REMARK    5  A    between atoms: N_14  and  C_15
REMARK    6  A    between atoms: C_18  and  C_19
REMARK                            x       y       z     vdW  Elec       q    Type
REMARK                         _______ _______ _______ _____ _____    ______ ____
ROOT
ATOM      1  C   UNL     1       1.411   8.584  20.027  0.00  0.00    +0.000 A 
ATOM      2  C   UNL     1       0.659   9.589  19.415  0.00  0.00    +0.000 A 
ATOM      3  C   UNL     1      -0.089  10.506  20.176  0.00  0.00    +0.000 A 
ATOM      4  C   UNL     1      -0.112  10.440  21.572  0.00  0.00    +0.000 A 
ATOM      5  C   UNL     1       0.608   9.399  22.181  0.00  0.00    +0.000 A 
ATOM      6  C   UNL     1       1.350   8.478  21.418  0.00  0.00    +0.000 A 
ENDROOT
BRANCH   4   7
ATOM      7  C   UNL     1      -0.848  11.457  22.346  0.00  0.00    +0.000 A 
ATOM      8  N   UNL     1      -1.954  11.283  23.054  0.00  0.00    +0.000 NA
ATOM      9  C   UNL     1      -2.322  12.530  23.533  0.00  0.00    +0.000 A 
ATOM     10  C   UNL     1      -3.408  12.957  24.320  0.00  0.00    +0.000 A 
ATOM     11  F   UNL     1      -4.321  12.090  24.777  0.00  0.00    +0.000 F 
ATOM     12  C   UNL     1      -3.548  14.315  24.629  0.00  0.00    +0.000 A 
ATOM     13  C   UNL     1      -2.619  15.252  24.171  0.00  0.00    +0.000 A 
ATOM     14  C   UNL     1      -1.520  14.854  23.404  0.00  0.00    +0.000 A 
ATOM     15  C   UNL     1      -1.410  13.491  23.113  0.00  0.00    +0.000 A 
ATOM     16  N   UNL     1      -0.478  12.784  22.396  0.00  0.00    +0.000 N 
ATOM     17  H   UNL     1       0.329  13.185  21.948  0.00  0.00    +0.000 HD
ENDBRANCH   4   7
BRANCH   1  20
ATOM     18  C   UNL     1       2.424   6.330  19.630  0.00  0.00    +0.000 C 
ATOM     19  O   UNL     1       1.883   5.733  20.557  0.00  0.00    +0.000 OA
ATOM     20  N   UNL     1       2.237   7.670  19.315  0.00  0.00    +0.000 N 
ATOM     21  H   UNL     1       2.609   8.002  18.433  0.00  0.00    +0.000 HD
BRANCH  18  28
ATOM     22  C   UNL     1       1.407   4.233  17.713  0.00  0.00    +0.000 C 
ATOM     23  C   UNL     1       2.871   4.556  17.862  0.00  0.00    +0.000 A 
ATOM     24  C   UNL     1       3.785   3.807  17.093  0.00  0.00    +0.000 A 
ATOM     25  C   UNL     1       5.155   4.029  17.193  0.00  0.00    +0.000 A 
ATOM     26  C   UNL     1       5.623   4.992  18.084  0.00  0.00    +0.000 A 
ATOM     27  C   UNL     1       4.740   5.762  18.852  0.00  0.00    +0.000 A 
ATOM     28  C   UNL     1       3.356   5.553  18.745  0.00  0.00    +0.000 A 
BRANCH  26  29
ATOM     29  S   UNL     1       7.374   5.275  18.207  0.00  0.00    +0.000 S 
ATOM     30  C   UNL     1       7.569   6.950  17.659  0.00  0.00    +0.000 C 
ATOM     31  O   UNL     1       7.728   5.209  19.611  0.00  0.00    +0.000 OA
ATOM     32  O   UNL     1       8.011   4.399  17.241  0.00  0.00    +0.000 OA
ENDBRANCH  26  29
ENDBRANCH  18  28
ENDBRANCH   1  20
TORSDOF 4
ENDMDL
MODEL 2
REMARK VINA RESULT:      -9.7      1.064      1.158
REMARK  Name = 
REMARK  6 active torsions:
REMARK  status: ('A' for Active; 'I' for Inactive)
REMARK    1  A    between atoms: C_1  and  C_2
REMARK    2  A    between atoms: C_5  and  S_6
REMARK    3  A    between atoms: S_6  and  C_7
REMARK    4  A    between atoms: C_11  and  C_12
REMARK    5  A    between atoms: N_14  and  C_15
REMARK    6  A    between atoms: C_18  and  C_19
REMARK                            x       y       z     vdW  Elec       q    Type
REMARK                         _______ _______ _______ _____ _____    ______ ____
ROOT
ATOM      1  C   UNL     1       1.414   8.436  20.311  0.00  0.00    +0.000 A 
ATOM      2  C   UNL     1       1.190   9.699  19.760  0.00  0.00    +0.000 A 
ATOM      3  C   UNL     1       0.419  10.663  20.435  0.00  0.00    +0.000 A 
ATOM      4  C   UNL     1      -0.156  10.389  21.680  0.00  0.00    +0.000 A 
ATOM      5  C   UNL     1       0.033   9.102  22.208  0.00  0.00    +0.000 A 
ATOM      6  C   UNL     1       0.798   8.136  21.529  0.00  0.00    +0.000 A 
ENDROOT
BRANCH   4   7
ATOM      7  C   UNL     1      -0.899  11.443  22.396  0.00  0.00    +0.000 A 
ATOM      8  N   UNL     1      -1.993  11.297  23.129  0.00  0.00    +0.000 NA
ATOM      9  C   UNL     1      -2.377  12.566  23.531  0.00  0.00    +0.000 A 
ATOM     10  C   UNL     1      -3.460  13.026  24.304  0.00  0.00    +0.000 A 
ATOM     11  F   UNL     1      -4.351  12.175  24.829  0.00  0.00    +0.000 F 
ATOM     12  C   UNL     1      -3.619  14.399  24.526  0.00  0.00    +0.000 A 
ATOM     13  C   UNL     1      -2.711  15.318  23.996  0.00  0.00    +0.000 A 
ATOM     14  C   UNL     1      -1.615  14.889  23.241  0.00  0.00    +0.000 A 
ATOM     15  C   UNL     1      -1.487  13.513  23.037  0.00  0.00    +0.000 A 
ATOM     16  N   UNL     1      -0.551  12.776  22.355  0.00  0.00    +0.000 N 
ATOM     17  H   UNL     1       0.243  13.160  21.871  0.00  0.00    +0.000 HD
ENDBRANCH   4   7
BRANCH   1  20
ATOM     18  C   UNL     1       2.462   7.297  18.345  0.00  0.00    +0.000 C 
ATOM     19  O   UNL     1       2.002   8.017  17.463  0.00  0.00    +0.000 OA
ATOM     20  N   UNL     1       2.237   7.444  19.707  0.00  0.00    +0.000 N 
ATOM     21  H   UNL     1       2.801   6.891  20.340  0.00  0.00    +0.000 HD
BRANCH  18  28
ATOM     22  C   UNL     1       1.375   4.536  17.792  0.00  0.00    +0.000 C 
ATOM     23  C   UNL     1       2.842   4.867  17.690  0.00  0.00    +0.000 A 
ATOM     24  C   UNL     1       3.725   3.819  17.360  0.00  0.00    +0.000 A 
ATOM     25  C   UNL     1       5.096   4.040  17.271  0.00  0.00    +0.000 A 
ATOM     26  C   UNL     1       5.597   5.313  17.534  0.00  0.00    +0.000 A 
ATOM     27  C   UNL     1       4.744   6.378  17.851  0.00  0.00    +0.000 A 
ATOM     28  C   UNL     1       3.359   6.166  17.928  0.00  0.00    +0.000 A 
BRANCH  26  29
ATOM     29  S   UNL     1       7.349   5.593  17.417  0.00  0.00    +0.000 S 
ATOM     30  C   UNL     1       7.828   5.956  19.085  0.00  0.00    +0.000 C 
ATOM     31  O   UNL     1       7.965   4.340  17.028  0.00  0.00    +0.000 OA
ATOM     32  O   UNL     1       7.532   6.789  16.616  0.00  0.00    +0.000 OA
ENDBRANCH  26  29
ENDBRANCH  18  28
ENDBRANCH   1  20
TORSDOF 4
ENDMDL
MODEL 3
REMARK VINA RESULT:      -9.6      1.231      1.666
REMARK  Name = 
REMARK  6 active torsions:
REMARK  status: ('A' for Active; 'I' for Inactive)
REMARK    1  A    between atoms: C_1  and  C_2
REMARK    2  A    between atoms: C_5  and  S_6
REMARK    3  A    between atoms: S_6  and  C_7
REMARK    4  A    between atoms: C_11  and  C_12
REMARK    5  A    between atoms: N_14  and  C_15
REMARK    6  A    between atoms: C_18  and  C_19
REMARK                            x       y       z     vdW  Elec       q    Type
REMARK                         _______ _______ _______ _____ _____    ______ ____
ROOT
ATOM      1  C   UNL     1       1.498   8.687  19.612  0.00  0.00    +0.000 A 
ATOM      2  C   UNL     1       0.885   9.789  19.011  0.00  0.00    +0.000 A 
ATOM      3  C   UNL     1       0.171  10.731  19.772  0.00  0.00    +0.000 A 
ATOM      4  C   UNL     1       0.041  10.595  21.158  0.00  0.00    +0.000 A 
ATOM      5  C   UNL     1       0.618   9.461  21.751  0.00  0.00    +0.000 A 
ATOM      6  C   UNL     1       1.327   8.515  20.988  0.00  0.00    +0.000 A 
ENDROOT
BRANCH   4   7
ATOM      7  C   UNL     1      -0.654  11.636  21.938  0.00  0.00    +0.000 A 
ATOM      8  N   UNL     1      -0.184  12.824  22.292  0.00  0.00    +0.000 NA
ATOM      9  C   UNL     1      -1.154  13.418  23.082  0.00  0.00    +0.000 A 
ATOM     10  C   UNL     1      -1.203  14.659  23.745  0.00  0.00    +0.000 A 
ATOM     11  F   UNL     1      -0.193  15.535  23.660  0.00  0.00    +0.000 F 
ATOM     12  C   UNL     1      -2.323  14.988  24.517  0.00  0.00    +0.000 A 
ATOM     13  C   UNL     1      -3.397  14.102  24.632  0.00  0.00    +0.000 A 
ATOM     14  C   UNL     1      -3.384  12.872  23.969  0.00  0.00    +0.000 A 
ATOM     15  C   UNL     1      -2.251  12.574  23.208  0.00  0.00    +0.000 A 
ATOM     16  N   UNL     1      -1.922  11.476  22.453  0.00  0.00    +0.000 N 
ATOM     17  H   UNL     1      -2.507  10.666  22.329  0.00  0.00    +0.000 HD
ENDBRANCH   4   7
BRANCH   1  20
ATOM     18  C   UNL     1       2.545   6.434  19.311  0.00  0.00    +0.000 C 
ATOM     19  O   UNL     1       2.110   5.904  20.330  0.00  0.00    +0.000 OA
ATOM     20  N   UNL     1       2.287   7.737  18.905  0.00  0.00    +0.000 N 
ATOM     21  H   UNL     1       2.567   8.002  17.969  0.00  0.00    +0.000 HD
BRANCH  18  28
ATOM     22  C   UNL     1       1.447   4.107  17.734  0.00  0.00    +0.000 C 
ATOM     23  C   UNL     1       2.900   4.505  17.690  0.00  0.00    +0.000 A 
ATOM     24  C   UNL     1       3.767   3.719  16.904  0.00  0.00    +0.000 A 
ATOM     25  C   UNL     1       5.126   4.008  16.832  0.00  0.00    +0.000 A 
ATOM     26  C   UNL     1       5.633   5.078  17.566  0.00  0.00    +0.000 A 
ATOM     27  C   UNL     1       4.795   5.885  18.346  0.00  0.00    +0.000 A 
ATOM     28  C   UNL     1       3.420   5.609  18.412  0.00  0.00    +0.000 A 
BRANCH  26  29
ATOM     29  S   UNL     1       7.370   5.445  17.470  0.00  0.00    +0.000 S 
ATOM     30  C   UNL     1       7.791   5.918  19.126  0.00  0.00    +0.000 C 
ATOM     31  O   UNL     1       8.060   4.209  17.159  0.00  0.00    +0.000 OA
ATOM     32  O   UNL     1       7.508   6.607  16.613  0.00  0.00    +0.000 OA
ENDBRANCH  26  29
ENDBRANCH  18  28
ENDBRANCH   1  20
TORSDOF 4
ENDMDL
MODEL 4
REMARK VINA RESULT:      -9.5      0.687      1.094
REMARK  Name = 
REMARK  6 active torsions:
REMARK  status: ('A' for Active; 'I' for Inactive)
REMARK    1  A    between atoms: C_1  and  C_2
REMARK    2  A    between atoms: C_5  and  S_6
REMARK    3  A    between atoms: S_6  and  C_7
REMARK    4  A    between atoms: C_11  and  C_12
REMARK    5  A    between atoms: N_14  and  C_15
REMARK    6  A    between atoms: C_18  and  C_19
REMARK                            x       y       z     vdW  Elec       q    Type
REMARK                         _______ _______ _______ _____ _____    ______ ____
ROOT
ATOM      1  C   UNL     1       1.487   8.655  19.871  0.00  0.00    +0.000 A 
ATOM      2  C   UNL     1       1.067   8.488  21.192  0.00  0.00    +0.000 A 
ATOM      3  C   UNL     1       0.238   9.436  21.819  0.00  0.00    +0.000 A 
ATOM      4  C   UNL     1      -0.189  10.583  21.145  0.00  0.00    +0.000 A 
ATOM      5  C   UNL     1       0.275  10.771  19.833  0.00  0.00    +0.000 A 
ATOM      6  C   UNL     1       1.109   9.826  19.209  0.00  0.00    +0.000 A 
ENDROOT
BRANCH   4   7
ATOM      7  C   UNL     1      -1.115  11.524  21.805  0.00  0.00    +0.000 A 
ATOM      8  N   UNL     1      -1.918  11.275  22.829  0.00  0.00    +0.000 NA
ATOM      9  C   UNL     1      -2.654  12.428  23.048  0.00  0.00    +0.000 A 
ATOM     10  C   UNL     1      -3.661  12.743  23.980  0.00  0.00    +0.000 A 
ATOM     11  F   UNL     1      -4.062  11.856  24.900  0.00  0.00    +0.000 F 
ATOM     12  C   UNL     1      -4.266  14.005  23.946  0.00  0.00    +0.000 A 
ATOM     13  C   UNL     1      -3.877  14.959  23.003  0.00  0.00    +0.000 A 
ATOM     14  C   UNL     1      -2.866  14.680  22.078  0.00  0.00    +0.000 A 
ATOM     15  C   UNL     1      -2.284  13.411  22.138  0.00  0.00    +0.000 A 
ATOM     16  N   UNL     1      -1.293  12.826  21.391  0.00  0.00    +0.000 N 
ATOM     17  H   UNL     1      -0.803  13.273  20.634  0.00  0.00    +0.000 HD
ENDBRANCH   4   7
BRANCH   1  20
ATOM     18  C   UNL     1       2.495   6.387  19.552  0.00  0.00    +0.000 C 
ATOM     19  O   UNL     1       2.030   5.849  20.553  0.00  0.00    +0.000 OA
ATOM     20  N   UNL     1       2.271   7.701  19.163  0.00  0.00    +0.000 N 
ATOM     21  H   UNL     1       2.574   7.976  18.237  0.00  0.00    +0.000 HD
BRANCH  18  28
ATOM     22  C   UNL     1       1.352   4.233  17.774  0.00  0.00    +0.000 C 
ATOM     23  C   UNL     1       2.827   4.536  17.838  0.00  0.00    +0.000 A 
ATOM     24  C   UNL     1       3.690   3.741  17.057  0.00  0.00    +0.000 A 
ATOM     25  C   UNL     1       5.066   3.943  17.080  0.00  0.00    +0.000 A 
ATOM     26  C   UNL     1       5.593   4.932  17.907  0.00  0.00    +0.000 A 
ATOM     27  C   UNL     1       4.761   5.747  18.686  0.00  0.00    +0.000 A 
ATOM     28  C   UNL     1       3.370   5.559  18.655  0.00  0.00    +0.000 A 
BRANCH  26  29
ATOM     29  S   UNL     1       7.352   5.189  17.933  0.00  0.00    +0.000 S 
ATOM     30  C   UNL     1       7.531   6.912  17.554  0.00  0.00    +0.000 C 
ATOM     31  O   UNL     1       7.804   4.971  19.293  0.00  0.00    +0.000 OA
ATOM     32  O   UNL     1       7.906   4.418  16.836  0.00  0.00    +0.000 OA
ENDBRANCH  26  29
ENDBRANCH  18  28
ENDBRANCH   1  20
TORSDOF 4
ENDMDL
MODEL 5
REMARK VINA RESULT:      -9.4      1.099      1.751
REMARK  Name = 
REMARK  6 active torsions:
REMARK  status: ('A' for Active; 'I' for Inactive)
REMARK    1  A    between atoms: C_1  and  C_2
REMARK    2  A    between atoms: C_5  and  S_6
REMARK    3  A    between atoms: S_6  and  C_7
REMARK    4  A    between atoms: C_11  and  C_12
REMARK    5  A    between atoms: N_14  and  C_15
REMARK    6  A    between atoms: C_18  and  C_19
REMARK                            x       y       z     vdW  Elec       q    Type
REMARK                         _______ _______ _______ _____ _____    ______ ____
ROOT
ATOM      1  C   UNL     1       1.685   8.593  19.842  0.00  0.00    +0.000 A 
ATOM      2  C   UNL     1       1.536   8.526  21.229  0.00  0.00    +0.000 A 
ATOM      3  C   UNL     1       0.801   9.499  21.930  0.00  0.00    +0.000 A 
ATOM      4  C   UNL     1       0.199  10.572  21.266  0.00  0.00    +0.000 A 
ATOM      5  C   UNL     1       0.392  10.661  19.878  0.00  0.00    +0.000 A 
ATOM      6  C   UNL     1       1.134   9.691  19.177  0.00  0.00    +0.000 A 
ENDROOT
BRANCH   4   7
ATOM      7  C   UNL     1      -0.624  11.537  22.019  0.00  0.00    +0.000 A 
ATOM      8  N   UNL     1      -0.262  12.736  22.451  0.00  0.00    +0.000 NA
ATOM      9  C   UNL     1      -1.331  13.239  23.175  0.00  0.00    +0.000 A 
ATOM     10  C   UNL     1      -1.515  14.447  23.873  0.00  0.00    +0.000 A 
ATOM     11  F   UNL     1      -0.560  15.386  23.903  0.00  0.00    +0.000 F 
ATOM     12  C   UNL     1      -2.714  14.677  24.557  0.00  0.00    +0.000 A 
ATOM     13  C   UNL     1      -3.734  13.723  24.550  0.00  0.00    +0.000 A 
ATOM     14  C   UNL     1      -3.587  12.522  23.849  0.00  0.00    +0.000 A 
ATOM     15  C   UNL     1      -2.378  12.324  23.178  0.00  0.00    +0.000 A 
ATOM     16  N   UNL     1      -1.918  11.279  22.418  0.00  0.00    +0.000 N 
ATOM     17  H   UNL     1      -2.437  10.440  22.217  0.00  0.00    +0.000 HD
ENDBRANCH   4   7
BRANCH   1  20
ATOM     18  C   UNL     1       2.587   6.290  19.454  0.00  0.00    +0.000 C 
ATOM     19  O   UNL     1       2.215   5.781  20.508  0.00  0.00    +0.000 OA
ATOM     20  N   UNL     1       2.361   7.606  19.070  0.00  0.00    +0.000 N 
ATOM     21  H   UNL     1       2.571   7.859  18.113  0.00  0.00    +0.000 HD
BRANCH  18  28
ATOM     22  C   UNL     1       1.239   4.023  17.988  0.00  0.00    +0.000 C 
ATOM     23  C   UNL     1       2.701   4.349  17.814  0.00  0.00    +0.000 A 
ATOM     24  C   UNL     1       3.454   3.522  16.957  0.00  0.00    +0.000 A 
ATOM     25  C   UNL     1       4.814   3.743  16.764  0.00  0.00    +0.000 A 
ATOM     26  C   UNL     1       5.436   4.785  17.447  0.00  0.00    +0.000 A 
ATOM     27  C   UNL     1       4.712   5.632  18.296  0.00  0.00    +0.000 A 
ATOM     28  C   UNL     1       3.337   5.424  18.484  0.00  0.00    +0.000 A 
BRANCH  26  29
ATOM     29  S   UNL     1       7.174   5.066  17.196  0.00  0.00    +0.000 S 
ATOM     30  C   UNL     1       7.349   6.820  17.394  0.00  0.00    +0.000 C 
ATOM     31  O   UNL     1       7.882   4.411  18.278  0.00  0.00    +0.000 OA
ATOM     32  O   UNL     1       7.459   4.731  15.813  0.00  0.00    +0.000 OA
ENDBRANCH  26  29
ENDBRANCH  18  28
ENDBRANCH   1  20
TORSDOF 4
ENDMDL
MODEL 6
REMARK VINA RESULT:      -9.3      1.222      1.586
REMARK  Name = 
REMARK  6 active torsions:
REMARK  status: ('A' for Active; 'I' for Inactive)
REMARK    1  A    between atoms: C_1  and  C_2
REMARK    2  A    between atoms: C_5  and  S_6
REMARK    3  A    between atoms: S_6  and  C_7
REMARK    4  A    between atoms: C_11  and  C_12
REMARK    5  A    between atoms: N_14  and  C_15
REMARK    6  A    between atoms: C_18  and  C_19
REMARK                            x       y       z     vdW  Elec       q    Type
REMARK                         _______ _______ _______ _____ _____    ______ ____
ROOT
ATOM      1  C   UNL     1       1.578   8.403  20.462  0.00  0.00    +0.000 A 
ATOM      2  C   UNL     1       1.481   8.475  21.853  0.00  0.00    +0.000 A 
ATOM      3  C   UNL     1       0.715   9.474  22.479  0.00  0.00    +0.000 A 
ATOM      4  C   UNL     1       0.029  10.436  21.733  0.00  0.00    +0.000 A 
ATOM      5  C   UNL     1       0.168  10.389  20.336  0.00  0.00    +0.000 A 
ATOM      6  C   UNL     1       0.941   9.394  19.710  0.00  0.00    +0.000 A 
ENDROOT
BRANCH   4   7
ATOM      7  C   UNL     1      -0.823  11.429  22.415  0.00  0.00    +0.000 A 
ATOM      8  N   UNL     1      -1.923  11.197  23.118  0.00  0.00    +0.000 NA
ATOM      9  C   UNL     1      -2.425  12.432  23.493  0.00  0.00    +0.000 A 
ATOM     10  C   UNL     1      -3.566  12.804  24.229  0.00  0.00    +0.000 A 
ATOM     11  F   UNL     1      -4.397  11.885  24.738  0.00  0.00    +0.000 F 
ATOM     12  C   UNL     1      -3.848  14.160  24.430  0.00  0.00    +0.000 A 
ATOM     13  C   UNL     1      -3.007  15.149  23.916  0.00  0.00    +0.000 A 
ATOM     14  C   UNL     1      -1.857  14.809  23.198  0.00  0.00    +0.000 A 
ATOM     15  C   UNL     1      -1.605  13.447  23.014  0.00  0.00    +0.000 A 
ATOM     16  N   UNL     1      -0.590  12.787  22.368  0.00  0.00    +0.000 N 
ATOM     17  H   UNL     1       0.183  13.233  21.903  0.00  0.00    +0.000 HD
ENDBRANCH   4   7
BRANCH   1  20
ATOM     18  C   UNL     1       2.632   7.400  18.425  0.00  0.00    +0.000 C 
ATOM     19  O   UNL     1       2.401   8.317  17.643  0.00  0.00    +0.000 OA
ATOM     20  N   UNL     1       2.284   7.379  19.770  0.00  0.00    +0.000 N 
ATOM     21  H   UNL     1       2.672   6.642  20.345  0.00  0.00    +0.000 HD
BRANCH  18  28
ATOM     22  C   UNL     1       1.345   4.672  18.340  0.00  0.00    +0.000 C 
ATOM     23  C   UNL     1       2.759   4.917  17.882  0.00  0.00    +0.000 A 
ATOM     24  C   UNL     1       3.502   3.805  17.438  0.00  0.00    +0.000 A 
ATOM     25  C   UNL     1       4.823   3.946  17.023  0.00  0.00    +0.000 A 
ATOM     26  C   UNL     1       5.418   5.205  17.070  0.00  0.00    +0.000 A 
ATOM     27  C   UNL     1       4.702   6.332  17.494  0.00  0.00    +0.000 A 
ATOM     28  C   UNL     1       3.365   6.199  17.900  0.00  0.00    +0.000 A 
BRANCH  26  29
ATOM     29  S   UNL     1       7.105   5.382  16.537  0.00  0.00    +0.000 S 
ATOM     30  C   UNL     1       7.064   4.871  14.839  0.00  0.00    +0.000 C 
ATOM     31  O   UNL     1       7.430   6.794  16.581  0.00  0.00    +0.000 OA
ATOM     32  O   UNL     1       7.887   4.418  17.287  0.00  0.00    +0.000 OA
ENDBRANCH  26  29
ENDBRANCH  18  28
ENDBRANCH   1  20
TORSDOF 4
ENDMDL
MODEL 7
REMARK VINA RESULT:      -9.2      1.230      1.733
REMARK  Name = 
REMARK  6 active torsions:
REMARK  status: ('A' for Active; 'I' for Inactive)
REMARK    1  A    between atoms: C_1  and  C_2
REMARK    2  A    between atoms: C_5  and  S_6
REMARK    3  A    between atoms: S_6  and  C_7
REMARK    4  A    between atoms: C_11  and  C_12
REMARK    5  A    between atoms: N_14  and  C_15
REMARK    6  A    between atoms: C_18  and  C_19
REMARK                            x       y       z     vdW  Elec       q    Type
REMARK                         _______ _______ _______ _____ _____    ______ ____
ROOT
ATOM      1  C   UNL     1       1.447   8.727  19.712  0.00  0.00    +0.000 A 
ATOM      2  C   UNL     1       1.206   8.751  21.087  0.00  0.00    +0.000 A 
ATOM      3  C   UNL     1       0.329   9.690  21.658  0.00  0.00    +0.000 A 
ATOM      4  C   UNL     1      -0.329  10.639  20.870  0.00  0.00    +0.000 A 
ATOM      5  C   UNL     1      -0.048  10.642  19.494  0.00  0.00    +0.000 A 
ATOM      6  C   UNL     1       0.835   9.707  18.925  0.00  0.00    +0.000 A 
ENDROOT
BRANCH   4   7
ATOM      7  C   UNL     1      -1.297  11.566  21.487  0.00  0.00    +0.000 A 
ATOM      8  N   UNL     1      -1.776  12.689  20.971  0.00  0.00    +0.000 NA
ATOM      9  C   UNL     1      -2.584  13.261  21.940  0.00  0.00    +0.000 A 
ATOM     10  C   UNL     1      -3.333  14.452  21.962  0.00  0.00    +0.000 A 
ATOM     11  F   UNL     1      -3.375  15.269  20.901  0.00  0.00    +0.000 F 
ATOM     12  C   UNL     1      -4.045  14.802  23.116  0.00  0.00    +0.000 A 
ATOM     13  C   UNL     1      -4.026  13.978  24.244  0.00  0.00    +0.000 A 
ATOM     14  C   UNL     1      -3.307  12.779  24.243  0.00  0.00    +0.000 A 
ATOM     15  C   UNL     1      -2.607  12.461  23.076  0.00  0.00    +0.000 A 
ATOM     16  N   UNL     1      -1.816  11.387  22.752  0.00  0.00    +0.000 N 
ATOM     17  H   UNL     1      -1.619  10.611  23.361  0.00  0.00    +0.000 HD
ENDBRANCH   4   7
BRANCH   1  20
ATOM     18  C   UNL     1       2.461   6.450  19.486  0.00  0.00    +0.000 C 
ATOM     19  O   UNL     1       1.925   5.926  20.458  0.00  0.00    +0.000 OA
ATOM     20  N   UNL     1       2.272   7.762  19.069  0.00  0.00    +0.000 N 
ATOM     21  H   UNL     1       2.639   8.025  18.163  0.00  0.00    +0.000 HD
BRANCH  18  28
ATOM     22  C   UNL     1       1.434   4.249  17.696  0.00  0.00    +0.000 C 
ATOM     23  C   UNL     1       2.902   4.563  17.837  0.00  0.00    +0.000 A 
ATOM     24  C   UNL     1       3.812   3.757  17.125  0.00  0.00    +0.000 A 
ATOM     25  C   UNL     1       5.184   3.969  17.222  0.00  0.00    +0.000 A 
ATOM     26  C   UNL     1       5.657   4.981  18.055  0.00  0.00    +0.000 A 
ATOM     27  C   UNL     1       4.776   5.807  18.766  0.00  0.00    +0.000 A 
ATOM     28  C   UNL     1       3.391   5.609  18.660  0.00  0.00    +0.000 A 
BRANCH  26  29
ATOM     29  S   UNL     1       7.410   5.250  18.176  0.00  0.00    +0.000 S 
ATOM     30  C   UNL     1       7.609   6.943  17.687  0.00  0.00    +0.000 C 
ATOM     31  O   UNL     1       7.773   5.133  19.574  0.00  0.00    +0.000 OA
ATOM     32  O   UNL     1       8.036   4.407  17.175  0.00  0.00    +0.000 OA
ENDBRANCH  26  29
ENDBRANCH  18  28
ENDBRANCH   1  20
TORSDOF 4
ENDMDL
MODEL 8
REMARK VINA RESULT:      -9.1      1.584      1.956
REMARK  Name = 
REMARK  6 active torsions:
REMARK  status: ('A' for Active; 'I' for Inactive)
REMARK    1  A    between atoms: C_1  and  C_2
REMARK    2  A    between atoms: C_5  and  S_6
REMARK    3  A    between atoms: S_6  and  C_7
REMARK    4  A    between atoms: C_11  and  C_12
REMARK    5  A    between atoms: N_14  and  C_15
REMARK    6  A    between atoms: C_18  and  C_19
REMARK                            x       y       z     vdW  Elec       q    Type
REMARK                         _______ _______ _______ _____ _____    ______ ____
ROOT
ATOM      1  C   UNL     1       1.458   8.419  20.246  0.00  0.00    +0.000 A 
ATOM      2  C   UNL     1       1.301   9.681  19.668  0.00  0.00    +0.000 A 
ATOM      3  C   UNL     1       0.577  10.695  20.320  0.00  0.00    +0.000 A 
ATOM      4  C   UNL     1      -0.016  10.477  21.567  0.00  0.00    +0.000 A 
ATOM      5  C   UNL     1       0.104   9.193  22.122  0.00  0.00    +0.000 A 
ATOM      6  C   UNL     1       0.822   8.175  21.466  0.00  0.00    +0.000 A 
ENDROOT
BRANCH   4   7
ATOM      7  C   UNL     1      -0.708  11.581  22.258  0.00  0.00    +0.000 A 
ATOM      8  N   UNL     1      -0.210  12.766  22.578  0.00  0.00    +0.000 NA
ATOM      9  C   UNL     1      -1.195  13.436  23.285  0.00  0.00    +0.000 A 
ATOM     10  C   UNL     1      -1.228  14.710  23.884  0.00  0.00    +0.000 A 
ATOM     11  F   UNL     1      -0.180  15.541  23.812  0.00  0.00    +0.000 F 
ATOM     12  C   UNL     1      -2.373  15.119  24.578  0.00  0.00    +0.000 A 
ATOM     13  C   UNL     1      -3.486  14.282  24.677  0.00  0.00    +0.000 A 
ATOM     14  C   UNL     1      -3.489  13.020  24.075  0.00  0.00    +0.000 A 
ATOM     15  C   UNL     1      -2.330  12.641  23.392  0.00  0.00    +0.000 A 
ATOM     16  N   UNL     1      -2.008  11.495  22.710  0.00  0.00    +0.000 N 
ATOM     17  H   UNL     1      -2.617  10.703  22.594  0.00  0.00    +0.000 HD
ENDBRANCH   4   7
BRANCH   1  20
ATOM     18  C   UNL     1       2.541   7.246  18.319  0.00  0.00    +0.000 C 
ATOM     19  O   UNL     1       2.210   8.029  17.433  0.00  0.00    +0.000 OA
ATOM     20  N   UNL     1       2.232   7.374  19.667  0.00  0.00    +0.000 N 
ATOM     21  H   UNL     1       2.699   6.756  20.318  0.00  0.00    +0.000 HD
BRANCH  18  28
ATOM     22  C   UNL     1       1.491   4.433  18.626  0.00  0.00    +0.000 C 
ATOM     23  C   UNL     1       2.869   4.733  18.093  0.00  0.00    +0.000 A 
ATOM     24  C   UNL     1       3.695   3.637  17.770  0.00  0.00    +0.000 A 
ATOM     25  C   UNL     1       4.988   3.831  17.296  0.00  0.00    +0.000 A 
ATOM     26  C   UNL     1       5.474   5.130  17.162  0.00  0.00    +0.000 A 
ATOM     27  C   UNL     1       4.673   6.240  17.463  0.00  0.00    +0.000 A 
ATOM     28  C   UNL     1       3.363   6.051  17.927  0.00  0.00    +0.000 A 
BRANCH  26  29
ATOM     29  S   UNL     1       7.127   5.375  16.554  0.00  0.00    +0.000 S 
ATOM     30  C   UNL     1       7.011   4.942  14.838  0.00  0.00    +0.000 C 
ATOM     31  O   UNL     1       7.421   6.791  16.649  0.00  0.00    +0.000 OA
ATOM     32  O   UNL     1       7.969   4.396  17.217  0.00  0.00    +0.000 OA
ENDBRANCH  26  29
ENDBRANCH  18  28
ENDBRANCH   1  20
TORSDOF 4
ENDMDL
MODEL 9
REMARK VINA RESULT:      -9.1      1.256      1.599
REMARK  Name = 
REMARK  6 active torsions:
REMARK  status: ('A' for Active; 'I' for Inactive)
REMARK    1  A    between atoms: C_1  and  C_2
REMARK    2  A    between atoms: C_5  and  S_6
REMARK    3  A    between atoms: S_6  and  C_7
REMARK    4  A    between atoms: C_11  and  C_12
REMARK    5  A    between atoms: N_14  and  C_15
REMARK    6  A    between atoms: C_18  and  C_19
REMARK                            x       y       z     vdW  Elec       q    Type
REMARK                         _______ _______ _______ _____ _____    ______ ____
ROOT
ATOM      1  C   UNL     1       1.537   8.761  19.603  0.00  0.00    +0.000 A 
ATOM      2  C   UNL     1       1.171   8.639  20.945  0.00  0.00    +0.000 A 
ATOM      3  C   UNL     1       0.349   9.597  21.566  0.00  0.00    +0.000 A 
ATOM      4  C   UNL     1      -0.125  10.709  20.864  0.00  0.00    +0.000 A 
ATOM      5  C   UNL     1       0.285  10.852  19.529  0.00  0.00    +0.000 A 
ATOM      6  C   UNL     1       1.112   9.897  18.910  0.00  0.00    +0.000 A 
ENDROOT
BRANCH   4   7
ATOM      7  C   UNL     1      -1.042  11.659  21.522  0.00  0.00    +0.000 A 
ATOM      8  N   UNL     1      -2.253  12.017  21.120  0.00  0.00    +0.000 NA
ATOM      9  C   UNL     1      -2.696  12.988  22.002  0.00  0.00    +0.000 A 
ATOM     10  C   UNL     1      -3.887  13.736  22.064  0.00  0.00    +0.000 A 
ATOM     11  F   UNL     1      -4.870  13.555  21.172  0.00  0.00    +0.000 F 
ATOM     12  C   UNL     1      -4.052  14.694  23.071  0.00  0.00    +0.000 A 
ATOM     13  C   UNL     1      -3.051  14.913  24.020  0.00  0.00    +0.000 A 
ATOM     14  C   UNL     1      -1.866  14.172  23.995  0.00  0.00    +0.000 A 
ATOM     15  C   UNL     1      -1.733  13.224  22.976  0.00  0.00    +0.000 A 
ATOM     16  N   UNL     1      -0.718  12.353  22.669  0.00  0.00    +0.000 N 
ATOM     17  H   UNL     1       0.142  12.266  23.183  0.00  0.00    +0.000 HD
ENDBRANCH   4   7
BRANCH   1  20
ATOM     18  C   UNL     1       2.561   6.494  19.326  0.00  0.00    +0.000 C 
ATOM     19  O   UNL     1       2.131   5.984  20.357  0.00  0.00    +0.000 OA
ATOM     20  N   UNL     1       2.311   7.792  18.902  0.00  0.00    +0.000 N 
ATOM     21  H   UNL     1       2.583   8.040  17.960  0.00  0.00    +0.000 HD
BRANCH  18  28
ATOM     22  C   UNL     1       1.423   4.157  17.792  0.00  0.00    +0.000 C 
ATOM     23  C   UNL     1       2.880   4.539  17.729  0.00  0.00    +0.000 A 
ATOM     24  C   UNL     1       3.731   3.732  16.947  0.00  0.00    +0.000 A 
ATOM     25  C   UNL     1       5.093   4.005  16.859  0.00  0.00    +0.000 A 
ATOM     26  C   UNL     1       5.618   5.079  17.574  0.00  0.00    +0.000 A 
ATOM     27  C   UNL     1       4.796   5.907  18.350  0.00  0.00    +0.000 A 
ATOM     28  C   UNL     1       3.419   5.646  18.431  0.00  0.00    +0.000 A 
BRANCH  26  29
ATOM     29  S   UNL     1       7.358   5.426  17.457  0.00  0.00    +0.000 S 
ATOM     30  C   UNL     1       7.809   5.872  19.113  0.00  0.00    +0.000 C 
ATOM     31  O   UNL     1       8.028   4.185  17.120  0.00  0.00    +0.000 OA
ATOM     32  O   UNL     1       7.498   6.597  16.613  0.00  0.00    +0.000 OA
ENDBRANCH  26  29
ENDBRANCH  18  28
ENDBRANCH   1  20
TORSDOF 4
ENDMDL
