MODEL 1
REMARK VINA RESULT:      -9.9      0.000      0.000
REMARK  Name = 
REMARK  6 active torsions:
REMARK  status: ('A' for Active; 'I' for Inactive)
REMARK    1  A    between atoms: C_1  and  N_2
REMARK    2  A    between atoms: C_6  and  C_7
REMARK    3  A    between atoms: C_7  and  C_8
REMARK    4  A    between atoms: C_8  and  C_9
REMARK    5  A    between atoms: C_11  and  N_12
REMARK    6  A    between atoms: C_19  and  C_20
REMARK                            x       y       z     vdW  Elec       q    Type
REMARK                         _______ _______ _______ _____ _____    ______ ____
ROOT
ATOM      1  C   UNL     1       4.291   4.988  17.677  0.00  0.00    +0.000 A 
ATOM      2  C   UNL     1       3.690   6.216  18.008  0.00  0.00    +0.000 A 
ATOM      3  C   UNL     1       2.520   6.299  18.791  0.00  0.00    +0.000 A 
ATOM      4  C   UNL     1       1.924   5.112  19.235  0.00  0.00    +0.000 A 
ATOM      5  C   UNL     1       2.492   3.898  18.872  0.00  0.00    +0.000 A 
ATOM      6  C   UNL     1       3.658   3.833  18.123  0.00  0.00    +0.000 A 
ATOM      7  C   UNL     1       4.019   2.405  17.921  0.00  0.00    +0.000 C 
ATOM      8  O   UNL     1       3.001   1.643  18.610  0.00  0.00    +0.000 OA
ATOM      9  C   UNL     1       1.994   2.527  19.144  0.00  0.00    +0.000 C 
ENDROOT
BRANCH   3  10
ATOM     10  N   UNL     1       1.959   7.558  19.126  0.00  0.00    +0.000 N 
ATOM     11  C   UNL     1       1.315   7.810  20.407  0.00  0.00    +0.000 C 
ATOM     12  C   UNL     1       0.971   9.267  20.342  0.00  0.00    +0.000 A 
ATOM     13  C   UNL     1       1.345   9.772  19.099  0.00  0.00    +0.000 A 
ATOM     14  C   UNL     1       1.120  11.081  18.717  0.00  0.00    +0.000 A 
ATOM     15  C   UNL     1       0.504  11.922  19.640  0.00  0.00    +0.000 A 
ATOM     16  C   UNL     1       0.143  11.439  20.912  0.00  0.00    +0.000 A 
ATOM     17  C   UNL     1       0.375  10.098  21.287  0.00  0.00    +0.000 A 
ATOM     18  C   UNL     1       1.993   8.704  18.331  0.00  0.00    +0.000 C 
ATOM     19  O   UNL     1       2.433   8.885  17.210  0.00  0.00    +0.000 OA
BRANCH  17  20
ATOM     20  C   UNL     1      -0.006   9.632  22.667  0.00  0.00    +0.000 C 
ATOM     21  F   UNL     1      -0.649  10.581  23.405  0.00  0.00    +0.000 F 
ATOM     22  F   UNL     1      -0.841   8.557  22.639  0.00  0.00    +0.000 F 
ATOM     23  F   UNL     1       1.070   9.255  23.406  0.00  0.00    +0.000 F 
ENDBRANCH  17  20
ENDBRANCH   3  10
BRANCH   1  24
ATOM     24  C   UNL     1       5.552   4.952  16.844  0.00  0.00    +0.000 C 
BRANCH  24  25
ATOM     25  C   UNL     1       5.335   4.371  15.442  0.00  0.00    +0.000 C 
BRANCH  25  31
ATOM     26  C   UNL     1       5.779   3.380  12.495  0.00  0.00    +0.000 C 
ATOM     27  N   UNL     1       6.617   4.284  13.235  0.00  0.00    +0.000 N 
ATOM     28  C   UNL     1       7.749   4.881  12.769  0.00  0.00    +0.000 A 
ATOM     29  N   UNL     1       8.265   5.635  13.707  0.00  0.00    +0.000 NA
ATOM     30  N   UNL     1       7.454   5.538  14.813  0.00  0.00    +0.000 NA
ATOM     31  C   UNL     1       6.456   4.727  14.523  0.00  0.00    +0.000 A 
ENDBRANCH  25  31
ENDBRANCH  24  25
ENDBRANCH   1  24
TORSDOF 5
ENDMDL
MODEL 2
REMARK VINA RESULT:      -9.9      1.629      2.349
REMARK  Name = 
REMARK  6 active torsions:
REMARK  status: ('A' for Active; 'I' for Inactive)
REMARK    1  A    between atoms: C_1  and  N_2
REMARK    2  A    between atoms: C_6  and  C_7
REMARK    3  A    between atoms: C_7  and  C_8
REMARK    4  A    between atoms: C_8  and  C_9
REMARK    5  A    between atoms: C_11  and  N_12
REMARK    6  A    between atoms: C_19  and  C_20
REMARK                            x       y       z     vdW  Elec       q    Type
REMARK                         _______ _______ _______ _____ _____    ______ ____
ROOT
ATOM      1  C   UNL     1       3.943   4.761  17.536  0.00  0.00    +0.000 A 
ATOM      2  C   UNL     1       3.414   6.021  17.871  0.00  0.00    +0.000 A 
ATOM      3  C   UNL     1       2.381   6.180  18.819  0.00  0.00    +0.000 A 
ATOM      4  C   UNL     1       1.850   5.037  19.430  0.00  0.00    +0.000 A 
ATOM      5  C   UNL     1       2.341   3.790  19.066  0.00  0.00    +0.000 A 
ATOM      6  C   UNL     1       3.376   3.652  18.152  0.00  0.00    +0.000 A 
ATOM      7  C   UNL     1       3.685   2.207  17.993  0.00  0.00    +0.000 C 
ATOM      8  O   UNL     1       2.779   1.512  18.881  0.00  0.00    +0.000 OA
ATOM      9  C   UNL     1       1.877   2.451  19.504  0.00  0.00    +0.000 C 
ENDROOT
BRANCH   3  10
ATOM     10  N   UNL     1       1.893   7.469  19.151  0.00  0.00    +0.000 N 
ATOM     11  C   UNL     1       1.259   7.759  20.430  0.00  0.00    +0.000 C 
ATOM     12  C   UNL     1       1.001   9.234  20.362  0.00  0.00    +0.000 A 
ATOM     13  C   UNL     1       1.408   9.715  19.120  0.00  0.00    +0.000 A 
ATOM     14  C   UNL     1       1.261  11.034  18.736  0.00  0.00    +0.000 A 
ATOM     15  C   UNL     1       0.690  11.910  19.657  0.00  0.00    +0.000 A 
ATOM     16  C   UNL     1       0.298  11.450  20.927  0.00  0.00    +0.000 A 
ATOM     17  C   UNL     1       0.449  10.098  21.304  0.00  0.00    +0.000 A 
ATOM     18  C   UNL     1       1.997   8.611  18.355  0.00  0.00    +0.000 C 
ATOM     19  O   UNL     1       2.450   8.765  17.236  0.00  0.00    +0.000 OA
BRANCH  17  20
ATOM     20  C   UNL     1       0.036   9.656  22.683  0.00  0.00    +0.000 C 
ATOM     21  F   UNL     1      -0.570  10.637  23.411  0.00  0.00    +0.000 F 
ATOM     22  F   UNL     1      -0.845   8.620  22.652  0.00  0.00    +0.000 F 
ATOM     23  F   UNL     1       1.089   9.235  23.433  0.00  0.00    +0.000 F 
ENDBRANCH  17  20
ENDBRANCH   3  10
BRANCH   1  24
ATOM     24  C   UNL     1       5.058   4.645  16.522  0.00  0.00    +0.000 C 
BRANCH  24  25
ATOM     25  C   UNL     1       6.449   4.546  17.160  0.00  0.00    +0.000 C 
BRANCH  25  31
ATOM     26  C   UNL     1       7.930   5.564  19.736  0.00  0.00    +0.000 C 
ATOM     27  N   UNL     1       7.690   6.308  18.529  0.00  0.00    +0.000 N 
ATOM     28  C   UNL     1       8.085   7.591  18.295  0.00  0.00    +0.000 A 
ATOM     29  N   UNL     1       7.696   7.958  17.099  0.00  0.00    +0.000 NA
ATOM     30  N   UNL     1       7.036   6.894  16.531  0.00  0.00    +0.000 NA
ATOM     31  C   UNL     1       7.040   5.897  17.394  0.00  0.00    +0.000 A 
ENDBRANCH  25  31
ENDBRANCH  24  25
ENDBRANCH   1  24
TORSDOF 5
ENDMDL
MODEL 3
REMARK VINA RESULT:      -9.9      1.086      1.763
REMARK  Name = 
REMARK  6 active torsions:
REMARK  status: ('A' for Active; 'I' for Inactive)
REMARK    1  A    between atoms: C_1  and  N_2
REMARK    2  A    between atoms: C_6  and  C_7
REMARK    3  A    between atoms: C_7  and  C_8
REMARK    4  A    between atoms: C_8  and  C_9
REMARK    5  A    between atoms: C_11  and  N_12
REMARK    6  A    between atoms: C_19  and  C_20
REMARK                            x       y       z     vdW  Elec       q    Type
REMARK                         _______ _______ _______ _____ _____    ______ ____
ROOT
ATOM      1  C   UNL     1       4.639   4.996  19.109  0.00  0.00    +0.000 A 
ATOM      2  C   UNL     1       3.965   6.215  19.310  0.00  0.00    +0.000 A 
ATOM      3  C   UNL     1       2.563   6.331  19.198  0.00  0.00    +0.000 A 
ATOM      4  C   UNL     1       1.821   5.194  18.851  0.00  0.00    +0.000 A 
ATOM      5  C   UNL     1       2.491   4.002  18.609  0.00  0.00    +0.000 A 
ATOM      6  C   UNL     1       3.867   3.898  18.749  0.00  0.00    +0.000 A 
ATOM      7  C   UNL     1       4.275   2.501  18.443  0.00  0.00    +0.000 C 
ATOM      8  O   UNL     1       3.052   1.795  18.131  0.00  0.00    +0.000 OA
ATOM      9  C   UNL     1       1.934   2.708  18.145  0.00  0.00    +0.000 C 
ENDROOT
BRANCH   3  10
ATOM     10  N   UNL     1       1.917   7.570  19.436  0.00  0.00    +0.000 N 
ATOM     11  C   UNL     1       1.240   7.871  20.690  0.00  0.00    +0.000 C 
ATOM     12  C   UNL     1       0.802   9.293  20.516  0.00  0.00    +0.000 A 
ATOM     13  C   UNL     1       1.158   9.730  19.242  0.00  0.00    +0.000 A 
ATOM     14  C   UNL     1       0.853  10.991  18.764  0.00  0.00    +0.000 A 
ATOM     15  C   UNL     1       0.170  11.853  19.618  0.00  0.00    +0.000 A 
ATOM     16  C   UNL     1      -0.174  11.440  20.918  0.00  0.00    +0.000 A 
ATOM     17  C   UNL     1       0.140  10.148  21.392  0.00  0.00    +0.000 A 
ATOM     18  C   UNL     1       1.886   8.656  18.559  0.00  0.00    +0.000 C 
ATOM     19  O   UNL     1       2.327   8.784  17.432  0.00  0.00    +0.000 OA
BRANCH  17  20
ATOM     20  C   UNL     1      -0.228   9.759  22.800  0.00  0.00    +0.000 C 
ATOM     21  F   UNL     1      -1.028   8.657  22.869  0.00  0.00    +0.000 F 
ATOM     22  F   UNL     1       0.864   9.471  23.559  0.00  0.00    +0.000 F 
ATOM     23  F   UNL     1      -0.896  10.744  23.456  0.00  0.00    +0.000 F 
ENDBRANCH  17  20
ENDBRANCH   3  10
BRANCH   1  24
ATOM     24  C   UNL     1       6.142   4.920  19.252  0.00  0.00    +0.000 C 
BRANCH  24  25
ATOM     25  C   UNL     1       6.888   5.896  18.333  0.00  0.00    +0.000 C 
BRANCH  25  31
ATOM     26  C   UNL     1       4.934   6.779  16.038  0.00  0.00    +0.000 C 
ATOM     27  N   UNL     1       6.017   5.840  15.934  0.00  0.00    +0.000 N 
ATOM     28  C   UNL     1       6.390   5.180  14.802  0.00  0.00    +0.000 A 
ATOM     29  N   UNL     1       7.409   4.399  15.065  0.00  0.00    +0.000 NA
ATOM     30  N   UNL     1       7.717   4.552  16.396  0.00  0.00    +0.000 NA
ATOM     31  C   UNL     1       6.879   5.427  16.917  0.00  0.00    +0.000 A 
ENDBRANCH  25  31
ENDBRANCH  24  25
ENDBRANCH   1  24
TORSDOF 5
ENDMDL
MODEL 4
REMARK VINA RESULT:      -9.8      3.066      4.494
REMARK  Name = 
REMARK  6 active torsions:
REMARK  status: ('A' for Active; 'I' for Inactive)
REMARK    1  A    between atoms: C_1  and  N_2
REMARK    2  A    between atoms: C_6  and  C_7
REMARK    3  A    between atoms: C_7  and  C_8
REMARK    4  A    between atoms: C_8  and  C_9
REMARK    5  A    between atoms: C_11  and  N_12
REMARK    6  A    between atoms: C_19  and  C_20
REMARK                            x       y       z     vdW  Elec       q    Type
REMARK                         _______ _______ _______ _____ _____    ______ ____
ROOT
ATOM      1  C   UNL     1       2.695   4.730  17.583  0.00  0.00    +0.000 A 
ATOM      2  C   UNL     1       2.021   5.853  18.096  0.00  0.00    +0.000 A 
ATOM      3  C   UNL     1       2.689   7.052  18.423  0.00  0.00    +0.000 A 
ATOM      4  C   UNL     1       4.077   7.115  18.251  0.00  0.00    +0.000 A 
ATOM      5  C   UNL     1       4.749   5.992  17.787  0.00  0.00    +0.000 A 
ATOM      6  C   UNL     1       4.075   4.828  17.444  0.00  0.00    +0.000 A 
ATOM      7  C   UNL     1       5.063   3.825  16.966  0.00  0.00    +0.000 C 
ATOM      8  O   UNL     1       6.351   4.480  17.036  0.00  0.00    +0.000 OA
ATOM      9  C   UNL     1       6.209   5.794  17.614  0.00  0.00    +0.000 C 
ENDROOT
BRANCH   3  10
ATOM     10  N   UNL     1       1.970   8.172  18.912  0.00  0.00    +0.000 N 
ATOM     11  C   UNL     1       1.341   8.184  20.225  0.00  0.00    +0.000 C 
ATOM     12  C   UNL     1       0.795   9.576  20.336  0.00  0.00    +0.000 A 
ATOM     13  C   UNL     1       1.052  10.264  19.153  0.00  0.00    +0.000 A 
ATOM     14  C   UNL     1       0.633  11.563  18.929  0.00  0.00    +0.000 A 
ATOM     15  C   UNL     1      -0.062  12.198  19.955  0.00  0.00    +0.000 A 
ATOM     16  C   UNL     1      -0.307  11.529  21.168  0.00  0.00    +0.000 A 
ATOM     17  C   UNL     1       0.121  10.201  21.381  0.00  0.00    +0.000 A 
ATOM     18  C   UNL     1       1.816   9.393  18.255  0.00  0.00    +0.000 C 
ATOM     19  O   UNL     1       2.187   9.759  17.154  0.00  0.00    +0.000 OA
BRANCH  17  20
ATOM     20  C   UNL     1      -0.143   9.534  22.705  0.00  0.00    +0.000 C 
ATOM     21  F   UNL     1      -0.864   8.381  22.599  0.00  0.00    +0.000 F 
ATOM     22  F   UNL     1       1.004   9.194  23.352  0.00  0.00    +0.000 F 
ATOM     23  F   UNL     1      -0.839  10.329  23.560  0.00  0.00    +0.000 F 
ENDBRANCH  17  20
ENDBRANCH   3  10
BRANCH   1  24
ATOM     24  C   UNL     1       1.933   3.471  17.237  0.00  0.00    +0.000 C 
BRANCH  24  25
ATOM     25  C   UNL     1       2.347   2.260  18.082  0.00  0.00    +0.000 C 
BRANCH  25  31
ATOM     26  C   UNL     1       4.517   2.246  20.353  0.00  0.00    +0.000 C 
ATOM     27  N   UNL     1       3.112   2.510  20.505  0.00  0.00    +0.000 N 
ATOM     28  C   UNL     1       2.483   2.817  21.674  0.00  0.00    +0.000 A 
ATOM     29  N   UNL     1       1.203   2.988  21.452  0.00  0.00    +0.000 NA
ATOM     30  N   UNL     1       0.985   2.796  20.108  0.00  0.00    +0.000 NA
ATOM     31  C   UNL     1       2.140   2.514  19.537  0.00  0.00    +0.000 A 
ENDBRANCH  25  31
ENDBRANCH  24  25
ENDBRANCH   1  24
TORSDOF 5
ENDMDL
MODEL 5
REMARK VINA RESULT:      -9.7      1.809      2.539
REMARK  Name = 
REMARK  6 active torsions:
REMARK  status: ('A' for Active; 'I' for Inactive)
REMARK    1  A    between atoms: C_1  and  N_2
REMARK    2  A    between atoms: C_6  and  C_7
REMARK    3  A    between atoms: C_7  and  C_8
REMARK    4  A    between atoms: C_8  and  C_9
REMARK    5  A    between atoms: C_11  and  N_12
REMARK    6  A    between atoms: C_19  and  C_20
REMARK                            x       y       z     vdW  Elec       q    Type
REMARK                         _______ _______ _______ _____ _____    ______ ____
ROOT
ATOM      1  C   UNL     1       3.863   4.831  17.473  0.00  0.00    +0.000 A 
ATOM      2  C   UNL     1       3.321   6.084  17.814  0.00  0.00    +0.000 A 
ATOM      3  C   UNL     1       2.374   6.241  18.848  0.00  0.00    +0.000 A 
ATOM      4  C   UNL     1       1.943   5.103  19.542  0.00  0.00    +0.000 A 
ATOM      5  C   UNL     1       2.445   3.862  19.176  0.00  0.00    +0.000 A 
ATOM      6  C   UNL     1       3.396   3.726  18.174  0.00  0.00    +0.000 A 
ATOM      7  C   UNL     1       3.743   2.287  18.035  0.00  0.00    +0.000 C 
ATOM      8  O   UNL     1       2.949   1.595  19.026  0.00  0.00    +0.000 OA
ATOM      9  C   UNL     1       2.073   2.524  19.698  0.00  0.00    +0.000 C 
ENDROOT
BRANCH   3  10
ATOM     10  N   UNL     1       1.871   7.524  19.181  0.00  0.00    +0.000 N 
ATOM     11  C   UNL     1       1.233   7.806  20.460  0.00  0.00    +0.000 C 
ATOM     12  C   UNL     1       0.958   9.277  20.394  0.00  0.00    +0.000 A 
ATOM     13  C   UNL     1       1.359   9.764  19.152  0.00  0.00    +0.000 A 
ATOM     14  C   UNL     1       1.196  11.082  18.770  0.00  0.00    +0.000 A 
ATOM     15  C   UNL     1       0.616  11.951  19.691  0.00  0.00    +0.000 A 
ATOM     16  C   UNL     1       0.229  11.484  20.961  0.00  0.00    +0.000 A 
ATOM     17  C   UNL     1       0.396  10.134  21.337  0.00  0.00    +0.000 A 
ATOM     18  C   UNL     1       1.961   8.668  18.387  0.00  0.00    +0.000 C 
ATOM     19  O   UNL     1       2.413   8.828  17.267  0.00  0.00    +0.000 OA
BRANCH  17  20
ATOM     20  C   UNL     1      -0.011   9.686  22.715  0.00  0.00    +0.000 C 
ATOM     21  F   UNL     1       1.033   9.259  23.480  0.00  0.00    +0.000 F 
ATOM     22  F   UNL     1      -0.609  10.679  23.427  0.00  0.00    +0.000 F 
ATOM     23  F   UNL     1      -0.896   8.655  22.688  0.00  0.00    +0.000 F 
ENDBRANCH  17  20
ENDBRANCH   3  10
BRANCH   1  24
ATOM     24  C   UNL     1       4.885   4.716  16.364  0.00  0.00    +0.000 C 
BRANCH  24  25
ATOM     25  C   UNL     1       5.907   5.859  16.361  0.00  0.00    +0.000 C 
BRANCH  25  31
ATOM     26  C   UNL     1       7.649   8.161  17.601  0.00  0.00    +0.000 C 
ATOM     27  N   UNL     1       7.569   6.799  18.056  0.00  0.00    +0.000 N 
ATOM     28  C   UNL     1       8.233   6.280  19.126  0.00  0.00    +0.000 A 
ATOM     29  N   UNL     1       7.936   5.010  19.252  0.00  0.00    +0.000 NA
ATOM     30  N   UNL     1       7.053   4.688  18.249  0.00  0.00    +0.000 NA
ATOM     31  C   UNL     1       6.828   5.771  17.532  0.00  0.00    +0.000 A 
ENDBRANCH  25  31
ENDBRANCH  24  25
ENDBRANCH   1  24
TORSDOF 5
ENDMDL
MODEL 6
REMARK VINA RESULT:      -9.5      4.362      8.947
REMARK  Name = 
REMARK  6 active torsions:
REMARK  status: ('A' for Active; 'I' for Inactive)
REMARK    1  A    between atoms: C_1  and  N_2
REMARK    2  A    between atoms: C_6  and  C_7
REMARK    3  A    between atoms: C_7  and  C_8
REMARK    4  A    between atoms: C_8  and  C_9
REMARK    5  A    between atoms: C_11  and  N_12
REMARK    6  A    between atoms: C_19  and  C_20
REMARK                            x       y       z     vdW  Elec       q    Type
REMARK                         _______ _______ _______ _____ _____    ______ ____
ROOT
ATOM      1  C   UNL     1       0.167  10.131  19.681  0.00  0.00    +0.000 A 
ATOM      2  C   UNL     1       0.903   9.078  19.107  0.00  0.00    +0.000 A 
ATOM      3  C   UNL     1       1.497   8.060  19.883  0.00  0.00    +0.000 A 
ATOM      4  C   UNL     1       1.366   8.116  21.276  0.00  0.00    +0.000 A 
ATOM      5  C   UNL     1       0.678   9.179  21.845  0.00  0.00    +0.000 A 
ATOM      6  C   UNL     1       0.077  10.158  21.067  0.00  0.00    +0.000 A 
ATOM      7  C   UNL     1      -0.594  11.137  21.963  0.00  0.00    +0.000 C 
ATOM      8  O   UNL     1      -0.360  10.660  23.309  0.00  0.00    +0.000 OA
ATOM      9  C   UNL     1       0.490   9.495  23.282  0.00  0.00    +0.000 C 
ENDROOT
BRANCH   3  10
ATOM     10  N   UNL     1       2.209   7.000  19.266  0.00  0.00    +0.000 N 
ATOM     11  C   UNL     1       3.164   7.222  18.190  0.00  0.00    +0.000 C 
ATOM     12  C   UNL     1       3.718   5.854  17.930  0.00  0.00    +0.000 A 
ATOM     13  C   UNL     1       3.078   4.935  18.758  0.00  0.00    +0.000 A 
ATOM     14  C   UNL     1       3.341   3.578  18.725  0.00  0.00    +0.000 A 
ATOM     15  C   UNL     1       4.305   3.133  17.824  0.00  0.00    +0.000 A 
ATOM     16  C   UNL     1       4.983   4.049  16.998  0.00  0.00    +0.000 A 
ATOM     17  C   UNL     1       4.701   5.431  17.039  0.00  0.00    +0.000 A 
ATOM     18  C   UNL     1       2.139   5.653  19.625  0.00  0.00    +0.000 C 
ATOM     19  O   UNL     1       1.460   5.084  20.460  0.00  0.00    +0.000 OA
BRANCH  17  20
ATOM     20  C   UNL     1       5.468   6.377  16.153  0.00  0.00    +0.000 C 
ATOM     21  F   UNL     1       4.678   7.081  15.294  0.00  0.00    +0.000 F 
ATOM     22  F   UNL     1       6.161   7.307  16.865  0.00  0.00    +0.000 F 
ATOM     23  F   UNL     1       6.382   5.738  15.376  0.00  0.00    +0.000 F 
ENDBRANCH  17  20
ENDBRANCH   3  10
BRANCH   1  24
ATOM     24  C   UNL     1      -0.460  11.192  18.805  0.00  0.00    +0.000 C 
BRANCH  24  25
ATOM     25  C   UNL     1      -1.266  10.613  17.636  0.00  0.00    +0.000 C 
BRANCH  25  31
ATOM     26  C   UNL     1      -3.254  10.729  15.207  0.00  0.00    +0.000 C 
ATOM     27  N   UNL     1      -3.517  11.150  16.556  0.00  0.00    +0.000 N 
ATOM     28  C   UNL     1      -4.693  11.661  17.014  0.00  0.00    +0.000 A 
ATOM     29  N   UNL     1      -4.582  11.944  18.288  0.00  0.00    +0.000 NA
ATOM     30  N   UNL     1      -3.308  11.607  18.680  0.00  0.00    +0.000 NA
ATOM     31  C   UNL     1      -2.669  11.122  17.634  0.00  0.00    +0.000 A 
ENDBRANCH  25  31
ENDBRANCH  24  25
ENDBRANCH   1  24
TORSDOF 5
ENDMDL
MODEL 7
REMARK VINA RESULT:      -9.5      2.826      4.305
REMARK  Name = 
REMARK  6 active torsions:
REMARK  status: ('A' for Active; 'I' for Inactive)
REMARK    1  A    between atoms: C_1  and  N_2
REMARK    2  A    between atoms: C_6  and  C_7
REMARK    3  A    between atoms: C_7  and  C_8
REMARK    4  A    between atoms: C_8  and  C_9
REMARK    5  A    between atoms: C_11  and  N_12
REMARK    6  A    between atoms: C_19  and  C_20
REMARK                            x       y       z     vdW  Elec       q    Type
REMARK                         _______ _______ _______ _____ _____    ______ ____
ROOT
ATOM      1  C   UNL     1       2.732   4.920  17.585  0.00  0.00    +0.000 A 
ATOM      2  C   UNL     1       2.050   6.017  18.141  0.00  0.00    +0.000 A 
ATOM      3  C   UNL     1       2.669   7.269  18.344  0.00  0.00    +0.000 A 
ATOM      4  C   UNL     1       4.019   7.413  18.000  0.00  0.00    +0.000 A 
ATOM      5  C   UNL     1       4.705   6.318  17.493  0.00  0.00    +0.000 A 
ATOM      6  C   UNL     1       4.075   5.101  17.274  0.00  0.00    +0.000 A 
ATOM      7  C   UNL     1       5.064   4.144  16.710  0.00  0.00    +0.000 C 
ATOM      8  O   UNL     1       6.303   4.882  16.600  0.00  0.00    +0.000 OA
ATOM      9  C   UNL     1       6.143   6.207  17.148  0.00  0.00    +0.000 C 
ENDROOT
BRANCH   3  10
ATOM     10  N   UNL     1       1.940   8.360  18.882  0.00  0.00    +0.000 N 
ATOM     11  C   UNL     1       1.314   8.310  20.196  0.00  0.00    +0.000 C 
ATOM     12  C   UNL     1       0.755   9.689  20.366  0.00  0.00    +0.000 A 
ATOM     13  C   UNL     1       1.001  10.430  19.213  0.00  0.00    +0.000 A 
ATOM     14  C   UNL     1       0.567  11.732  19.045  0.00  0.00    +0.000 A 
ATOM     15  C   UNL     1      -0.132  12.316  20.099  0.00  0.00    +0.000 A 
ATOM     16  C   UNL     1      -0.366  11.594  21.283  0.00  0.00    +0.000 A 
ATOM     17  C   UNL     1       0.077  10.263  21.439  0.00  0.00    +0.000 A 
ATOM     18  C   UNL     1       1.771   9.606  18.277  0.00  0.00    +0.000 C 
ATOM     19  O   UNL     1       2.135  10.022  17.192  0.00  0.00    +0.000 OA
BRANCH  17  20
ATOM     20  C   UNL     1      -0.176   9.538  22.734  0.00  0.00    +0.000 C 
ATOM     21  F   UNL     1       0.963   9.155  23.376  0.00  0.00    +0.000 F 
ATOM     22  F   UNL     1      -0.867  10.298  23.627  0.00  0.00    +0.000 F 
ATOM     23  F   UNL     1      -0.903   8.402  22.561  0.00  0.00    +0.000 F 
ENDBRANCH  17  20
ENDBRANCH   3  10
BRANCH   1  24
ATOM     24  C   UNL     1       2.021   3.602  17.375  0.00  0.00    +0.000 C 
BRANCH  24  25
ATOM     25  C   UNL     1       1.629   2.911  18.687  0.00  0.00    +0.000 C 
BRANCH  25  31
ATOM     26  C   UNL     1       2.179   3.366  21.746  0.00  0.00    +0.000 C 
ATOM     27  N   UNL     1       3.038   2.698  20.805  0.00  0.00    +0.000 N 
ATOM     28  C   UNL     1       4.242   2.130  21.094  0.00  0.00    +0.000 A 
ATOM     29  N   UNL     1       4.756   1.615  20.004  0.00  0.00    +0.000 NA
ATOM     30  N   UNL     1       3.871   1.845  18.978  0.00  0.00    +0.000 NA
ATOM     31  C   UNL     1       2.831   2.493  19.465  0.00  0.00    +0.000 A 
ENDBRANCH  25  31
ENDBRANCH  24  25
ENDBRANCH   1  24
TORSDOF 5
ENDMDL
MODEL 8
REMARK VINA RESULT:      -9.4      3.012      4.534
REMARK  Name = 
REMARK  6 active torsions:
REMARK  status: ('A' for Active; 'I' for Inactive)
REMARK    1  A    between atoms: C_1  and  N_2
REMARK    2  A    between atoms: C_6  and  C_7
REMARK    3  A    between atoms: C_7  and  C_8
REMARK    4  A    between atoms: C_8  and  C_9
REMARK    5  A    between atoms: C_11  and  N_12
REMARK    6  A    between atoms: C_19  and  C_20
REMARK                            x       y       z     vdW  Elec       q    Type
REMARK                         _______ _______ _______ _____ _____    ______ ____
ROOT
ATOM      1  C   UNL     1       3.175   4.765  17.580  0.00  0.00    +0.000 A 
ATOM      2  C   UNL     1       2.402   5.818  18.105  0.00  0.00    +0.000 A 
ATOM      3  C   UNL     1       2.927   7.110  18.315  0.00  0.00    +0.000 A 
ATOM      4  C   UNL     1       4.275   7.344  18.011  0.00  0.00    +0.000 A 
ATOM      5  C   UNL     1       5.049   6.294  17.536  0.00  0.00    +0.000 A 
ATOM      6  C   UNL     1       4.511   5.035  17.309  0.00  0.00    +0.000 A 
ATOM      7  C   UNL     1       5.580   4.145  16.785  0.00  0.00    +0.000 C 
ATOM      8  O   UNL     1       6.769   4.965  16.705  0.00  0.00    +0.000 OA
ATOM      9  C   UNL     1       6.502   6.280  17.236  0.00  0.00    +0.000 C 
ENDROOT
BRANCH   3  10
ATOM     10  N   UNL     1       2.109   8.153  18.819  0.00  0.00    +0.000 N 
ATOM     11  C   UNL     1       1.500   8.098  20.141  0.00  0.00    +0.000 C 
ATOM     12  C   UNL     1       0.823   9.428  20.266  0.00  0.00    +0.000 A 
ATOM     13  C   UNL     1       0.994  10.144  19.083  0.00  0.00    +0.000 A 
ATOM     14  C   UNL     1       0.448  11.396  18.873  0.00  0.00    +0.000 A 
ATOM     15  C   UNL     1      -0.293  11.956  19.911  0.00  0.00    +0.000 A 
ATOM     16  C   UNL     1      -0.455  11.261  21.124  0.00  0.00    +0.000 A 
ATOM     17  C   UNL     1       0.105   9.981  21.324  0.00  0.00    +0.000 A 
ATOM     18  C   UNL     1       1.828   9.356  18.171  0.00  0.00    +0.000 C 
ATOM     19  O   UNL     1       2.146   9.761  17.068  0.00  0.00    +0.000 OA
BRANCH  17  20
ATOM     20  C   UNL     1      -0.075   9.285  22.647  0.00  0.00    +0.000 C 
ATOM     21  F   UNL     1       1.100   8.990  23.271  0.00  0.00    +0.000 F 
ATOM     22  F   UNL     1      -0.787  10.033  23.533  0.00  0.00    +0.000 F 
ATOM     23  F   UNL     1      -0.739   8.105  22.530  0.00  0.00    +0.000 F 
ENDBRANCH  17  20
ENDBRANCH   3  10
BRANCH   1  24
ATOM     24  C   UNL     1       2.562   3.401  17.362  0.00  0.00    +0.000 C 
BRANCH  24  25
ATOM     25  C   UNL     1       3.170   2.314  18.257  0.00  0.00    +0.000 C 
BRANCH  25  31
ATOM     26  C   UNL     1       0.261   2.752  19.358  0.00  0.00    +0.000 C 
ATOM     27  N   UNL     1       1.470   2.662  20.131  0.00  0.00    +0.000 N 
ATOM     28  C   UNL     1       1.553   2.738  21.488  0.00  0.00    +0.000 A 
ATOM     29  N   UNL     1       2.805   2.624  21.858  0.00  0.00    +0.000 NA
ATOM     30  N   UNL     1       3.562   2.466  20.722  0.00  0.00    +0.000 NA
ATOM     31  C   UNL     1       2.753   2.482  19.680  0.00  0.00    +0.000 A 
ENDBRANCH  25  31
ENDBRANCH  24  25
ENDBRANCH   1  24
TORSDOF 5
ENDMDL
MODEL 9
REMARK VINA RESULT:      -9.4      0.718      1.016
REMARK  Name = 
REMARK  6 active torsions:
REMARK  status: ('A' for Active; 'I' for Inactive)
REMARK    1  A    between atoms: C_1  and  N_2
REMARK    2  A    between atoms: C_6  and  C_7
REMARK    3  A    between atoms: C_7  and  C_8
REMARK    4  A    between atoms: C_8  and  C_9
REMARK    5  A    between atoms: C_11  and  N_12
REMARK    6  A    between atoms: C_19  and  C_20
REMARK                            x       y       z     vdW  Elec       q    Type
REMARK                         _______ _______ _______ _____ _____    ______ ____
ROOT
ATOM      1  C   UNL     1       4.317   5.852  17.505  0.00  0.00    +0.000 A 
ATOM      2  C   UNL     1       3.539   6.967  17.868  0.00  0.00    +0.000 A 
ATOM      3  C   UNL     1       2.578   6.915  18.899  0.00  0.00    +0.000 A 
ATOM      4  C   UNL     1       2.377   5.701  19.569  0.00  0.00    +0.000 A 
ATOM      5  C   UNL     1       3.113   4.589  19.180  0.00  0.00    +0.000 A 
ATOM      6  C   UNL     1       4.073   4.663  18.181  0.00  0.00    +0.000 A 
ATOM      7  C   UNL     1       4.695   3.323  18.015  0.00  0.00    +0.000 C 
ATOM      8  O   UNL     1       4.050   2.468  18.988  0.00  0.00    +0.000 OA
ATOM      9  C   UNL     1       3.009   3.194  19.674  0.00  0.00    +0.000 C 
ENDROOT
BRANCH   3  10
ATOM     10  N   UNL     1       1.833   8.068  19.255  0.00  0.00    +0.000 N 
ATOM     11  C   UNL     1       1.151   8.193  20.536  0.00  0.00    +0.000 C 
ATOM     12  C   UNL     1       0.593   9.583  20.498  0.00  0.00    +0.000 A 
ATOM     13  C   UNL     1       0.893  10.164  19.268  0.00  0.00    +0.000 A 
ATOM     14  C   UNL     1       0.475  11.433  18.911  0.00  0.00    +0.000 A 
ATOM     15  C   UNL     1      -0.265  12.152  19.846  0.00  0.00    +0.000 A 
ATOM     16  C   UNL     1      -0.555  11.593  21.104  0.00  0.00    +0.000 A 
ATOM     17  C   UNL     1      -0.126  10.294  21.454  0.00  0.00    +0.000 A 
ATOM     18  C   UNL     1       1.698   9.223  18.484  0.00  0.00    +0.000 C 
ATOM     19  O   UNL     1       2.111   9.491  17.370  0.00  0.00    +0.000 OA
BRANCH  17  20
ATOM     20  C   UNL     1      -0.440   9.747  22.822  0.00  0.00    +0.000 C 
ATOM     21  F   UNL     1      -0.988   8.499  22.796  0.00  0.00    +0.000 F 
ATOM     22  F   UNL     1       0.667   9.649  23.606  0.00  0.00    +0.000 F 
ATOM     23  F   UNL     1      -1.321  10.524  23.505  0.00  0.00    +0.000 F 
ENDBRANCH  17  20
ENDBRANCH   3  10
BRANCH   1  24
ATOM     24  C   UNL     1       5.343   5.962  16.399  0.00  0.00    +0.000 C 
BRANCH  24  25
ATOM     25  C   UNL     1       5.333   4.763  15.443  0.00  0.00    +0.000 C 
BRANCH  25  31
ATOM     26  C   UNL     1       5.467   3.398  12.618  0.00  0.00    +0.000 C 
ATOM     27  N   UNL     1       6.462   4.251  13.211  0.00  0.00    +0.000 N 
ATOM     28  C   UNL     1       7.636   4.625  12.631  0.00  0.00    +0.000 A 
ATOM     29  N   UNL     1       8.303   5.398  13.452  0.00  0.00    +0.000 NA
ATOM     30  N   UNL     1       7.551   5.541  14.593  0.00  0.00    +0.000 NA
ATOM     31  C   UNL     1       6.437   4.852  14.444  0.00  0.00    +0.000 A 
ENDBRANCH  25  31
ENDBRANCH  24  25
ENDBRANCH   1  24
TORSDOF 5
ENDMDL
