MODEL 1
REMARK VINA RESULT:      -9.3      0.000      0.000
REMARK  Name = 
REMARK  4 active torsions:
REMARK  status: ('A' for Active; 'I' for Inactive)
REMARK    1  A    between atoms: C_2  and  C_19
REMARK    2  A    between atoms: N_3  and  C_4
REMARK    3  A    between atoms: C_6  and  C_7
REMARK    4  A    between atoms: C_13  and  N_14
REMARK                            x       y       z     vdW  Elec       q    Type
REMARK                         _______ _______ _______ _____ _____    ______ ____
ROOT
ATOM      1  C   UNL     1       3.297   5.516  18.349  0.00  0.00    +0.000 A 
ATOM      2  C   UNL     1       4.015   5.893  17.203  0.00  0.00    +0.000 A 
ATOM      3  C   UNL     1       4.836   4.982  16.516  0.00  0.00    +0.000 A 
ATOM      4  C   UNL     1       4.948   3.675  16.998  0.00  0.00    +0.000 A 
ATOM      5  C   UNL     1       4.240   3.274  18.131  0.00  0.00    +0.000 A 
ATOM      6  C   UNL     1       3.399   4.177  18.808  0.00  0.00    +0.000 A 
ENDROOT
BRANCH   6   7
ATOM      7  N   UNL     1       2.637   3.698  19.917  0.00  0.00    +0.000 N 
ATOM      8  C   UNL     1       3.074   3.076  21.066  0.00  0.00    +0.000 A 
ATOM      9  N   UNL     1       2.059   2.700  21.809  0.00  0.00    +0.000 NA
ATOM     10  C   UNL     1       0.989   3.125  21.090  0.00  0.00    +0.000 A 
ATOM     11  N   UNL     1       1.278   3.763  19.955  0.00  0.00    +0.000 NA
ENDBRANCH   6   7
BRANCH   1  14
ATOM     12  O   UNL     1       2.444   8.328  17.706  0.00  0.00    +0.000 OA
ATOM     13  C   UNL     1       2.212   7.768  18.772  0.00  0.00    +0.000 C 
ATOM     14  N   UNL     1       2.525   6.456  19.068  0.00  0.00    +0.000 N 
ATOM     15  H   UNL     1       2.104   6.106  19.935  0.00  0.00    +0.000 HD
BRANCH  13  16
ATOM     16  C   UNL     1       1.560   8.447  19.881  0.00  0.00    +0.000 A 
ATOM     17  C   UNL     1       1.215   8.016  21.151  0.00  0.00    +0.000 A 
ATOM     18  C   UNL     1       0.477   9.066  21.760  0.00  0.00    +0.000 A 
ATOM     19  C   UNL     1      -0.190   9.256  22.984  0.00  0.00    +0.000 A 
ATOM     20  C   UNL     1      -0.873  10.463  23.199  0.00  0.00    +0.000 A 
ATOM     21  C   UNL     1      -0.879  11.472  22.232  0.00  0.00    +0.000 A 
ATOM     22  C   UNL     1      -0.203  11.311  21.019  0.00  0.00    +0.000 A 
ATOM     23  C   UNL     1       0.449  10.095  20.827  0.00  0.00    +0.000 A 
ATOM     24  O   UNL     1       1.123   9.736  19.703  0.00  0.00    +0.000 OA
ENDBRANCH  13  16
ENDBRANCH   1  14
BRANCH   3  25
ATOM     25  C   UNL     1       5.607   5.386  15.281  0.00  0.00    +0.000 C 
ATOM     26  F   UNL     1       6.950   5.479  15.467  0.00  0.00    +0.000 F 
ATOM     27  F   UNL     1       5.430   4.505  14.256  0.00  0.00    +0.000 F 
ATOM     28  F   UNL     1       5.208   6.596  14.800  0.00  0.00    +0.000 F 
ENDBRANCH   3  25
TORSDOF 4
ENDMDL
MODEL 2
REMARK VINA RESULT:      -8.8      0.898      1.164
REMARK  Name = 
REMARK  4 active torsions:
REMARK  status: ('A' for Active; 'I' for Inactive)
REMARK    1  A    between atoms: C_2  and  C_19
REMARK    2  A    between atoms: N_3  and  C_4
REMARK    3  A    between atoms: C_6  and  C_7
REMARK    4  A    between atoms: C_13  and  N_14
REMARK                            x       y       z     vdW  Elec       q    Type
REMARK                         _______ _______ _______ _____ _____    ______ ____
ROOT
ATOM      1  C   UNL     1       3.517   5.482  18.140  0.00  0.00    +0.000 A 
ATOM      2  C   UNL     1       4.600   5.914  17.360  0.00  0.00    +0.000 A 
ATOM      3  C   UNL     1       5.429   5.003  16.681  0.00  0.00    +0.000 A 
ATOM      4  C   UNL     1       5.173   3.635  16.804  0.00  0.00    +0.000 A 
ATOM      5  C   UNL     1       4.098   3.180  17.568  0.00  0.00    +0.000 A 
ATOM      6  C   UNL     1       3.253   4.090  18.230  0.00  0.00    +0.000 A 
ENDROOT
BRANCH   6   7
ATOM      7  N   UNL     1       2.122   3.579  18.938  0.00  0.00    +0.000 N 
ATOM      8  C   UNL     1       1.163   2.688  18.512  0.00  0.00    +0.000 A 
ATOM      9  N   UNL     1       0.229   2.535  19.422  0.00  0.00    +0.000 NA
ATOM     10  C   UNL     1       0.654   3.346  20.424  0.00  0.00    +0.000 A 
ATOM     11  N   UNL     1       1.808   3.976  20.201  0.00  0.00    +0.000 NA
ENDBRANCH   6   7
BRANCH   1  14
ATOM     12  O   UNL     1       2.567   8.262  17.498  0.00  0.00    +0.000 OA
ATOM     13  C   UNL     1       2.371   7.702  18.571  0.00  0.00    +0.000 C 
ATOM     14  N   UNL     1       2.729   6.402  18.867  0.00  0.00    +0.000 N 
ATOM     15  H   UNL     1       2.335   6.045  19.744  0.00  0.00    +0.000 HD
BRANCH  13  16
ATOM     16  C   UNL     1       1.717   8.368  19.687  0.00  0.00    +0.000 A 
ATOM     17  C   UNL     1       1.455   7.952  20.981  0.00  0.00    +0.000 A 
ATOM     18  C   UNL     1       0.670   8.966  21.592  0.00  0.00    +0.000 A 
ATOM     19  C   UNL     1       0.041   9.146  22.837  0.00  0.00    +0.000 A 
ATOM     20  C   UNL     1      -0.715  10.309  23.049  0.00  0.00    +0.000 A 
ATOM     21  C   UNL     1      -0.830  11.286  22.056  0.00  0.00    +0.000 A 
ATOM     22  C   UNL     1      -0.193  11.136  20.820  0.00  0.00    +0.000 A 
ATOM     23  C   UNL     1       0.533   9.963  20.634  0.00  0.00    +0.000 A 
ATOM     24  O   UNL     1       1.186   9.617  19.493  0.00  0.00    +0.000 OA
ENDBRANCH  13  16
ENDBRANCH   1  14
BRANCH   3  25
ATOM     25  C   UNL     1       6.593   5.467  15.838  0.00  0.00    +0.000 C 
ATOM     26  F   UNL     1       7.504   4.496  15.562  0.00  0.00    +0.000 F 
ATOM     27  F   UNL     1       6.190   5.958  14.633  0.00  0.00    +0.000 F 
ATOM     28  F   UNL     1       7.287   6.476  16.434  0.00  0.00    +0.000 F 
ENDBRANCH   3  25
TORSDOF 4
ENDMDL
MODEL 3
REMARK VINA RESULT:      -8.7      1.266      1.564
REMARK  Name = 
REMARK  4 active torsions:
REMARK  status: ('A' for Active; 'I' for Inactive)
REMARK    1  A    between atoms: C_2  and  C_19
REMARK    2  A    between atoms: N_3  and  C_4
REMARK    3  A    between atoms: C_6  and  C_7
REMARK    4  A    between atoms: C_13  and  N_14
REMARK                            x       y       z     vdW  Elec       q    Type
REMARK                         _______ _______ _______ _____ _____    ______ ____
ROOT
ATOM      1  C   UNL     1       3.792   5.911  19.284  0.00  0.00    +0.000 A 
ATOM      2  C   UNL     1       4.906   6.408  18.590  0.00  0.00    +0.000 A 
ATOM      3  C   UNL     1       5.902   5.552  18.087  0.00  0.00    +0.000 A 
ATOM      4  C   UNL     1       5.783   4.176  18.301  0.00  0.00    +0.000 A 
ATOM      5  C   UNL     1       4.682   3.657  18.983  0.00  0.00    +0.000 A 
ATOM      6  C   UNL     1       3.672   4.509  19.467  0.00  0.00    +0.000 A 
ENDROOT
BRANCH   6   7
ATOM      7  N   UNL     1       2.528   3.923  20.091  0.00  0.00    +0.000 N 
ATOM      8  C   UNL     1       2.432   3.299  21.315  0.00  0.00    +0.000 A 
ATOM      9  N   UNL     1       1.228   2.808  21.497  0.00  0.00    +0.000 NA
ATOM     10  C   UNL     1       0.585   3.165  20.356  0.00  0.00    +0.000 A 
ATOM     11  N   UNL     1       1.310   3.868  19.485  0.00  0.00    +0.000 NA
ENDBRANCH   6   7
BRANCH   1  14
ATOM     12  O   UNL     1       2.036   8.015  18.045  0.00  0.00    +0.000 OA
ATOM     13  C   UNL     1       2.091   7.791  19.249  0.00  0.00    +0.000 C 
ATOM     14  N   UNL     1       2.830   6.785  19.839  0.00  0.00    +0.000 N 
ATOM     15  H   UNL     1       2.623   6.635  20.832  0.00  0.00    +0.000 HD
BRANCH  13  16
ATOM     16  C   UNL     1       1.360   8.588  20.222  0.00  0.00    +0.000 A 
ATOM     17  C   UNL     1       1.073   8.373  21.559  0.00  0.00    +0.000 A 
ATOM     18  C   UNL     1       0.210   9.423  21.973  0.00  0.00    +0.000 A 
ATOM     19  C   UNL     1      -0.474   9.764  23.153  0.00  0.00    +0.000 A 
ATOM     20  C   UNL     1      -1.302  10.897  23.149  0.00  0.00    +0.000 A 
ATOM     21  C   UNL     1      -1.436  11.689  22.006  0.00  0.00    +0.000 A 
ATOM     22  C   UNL     1      -0.746  11.380  20.830  0.00  0.00    +0.000 A 
ATOM     23  C   UNL     1       0.052  10.239  20.860  0.00  0.00    +0.000 A 
ATOM     24  O   UNL     1       0.766   9.754  19.810  0.00  0.00    +0.000 OA
ENDBRANCH  13  16
ENDBRANCH   1  14
BRANCH   3  25
ATOM     25  C   UNL     1       7.100   6.085  17.337  0.00  0.00    +0.000 C 
ATOM     26  F   UNL     1       6.888   7.277  16.720  0.00  0.00    +0.000 F 
ATOM     27  F   UNL     1       8.175   6.270  18.153  0.00  0.00    +0.000 F 
ATOM     28  F   UNL     1       7.518   5.227  16.365  0.00  0.00    +0.000 F 
ENDBRANCH   3  25
TORSDOF 4
ENDMDL
MODEL 4
REMARK VINA RESULT:      -8.6      0.949      1.504
REMARK  Name = 
REMARK  4 active torsions:
REMARK  status: ('A' for Active; 'I' for Inactive)
REMARK    1  A    between atoms: C_2  and  C_19
REMARK    2  A    between atoms: N_3  and  C_4
REMARK    3  A    between atoms: C_6  and  C_7
REMARK    4  A    between atoms: C_13  and  N_14
REMARK                            x       y       z     vdW  Elec       q    Type
REMARK                         _______ _______ _______ _____ _____    ______ ____
ROOT
ATOM      1  C   UNL     1       3.667   5.840  18.602  0.00  0.00    +0.000 A 
ATOM      2  C   UNL     1       4.714   6.223  17.750  0.00  0.00    +0.000 A 
ATOM      3  C   UNL     1       5.713   5.314  17.357  0.00  0.00    +0.000 A 
ATOM      4  C   UNL     1       5.665   4.004  17.844  0.00  0.00    +0.000 A 
ATOM      5  C   UNL     1       4.631   3.598  18.687  0.00  0.00    +0.000 A 
ATOM      6  C   UNL     1       3.617   4.499  19.063  0.00  0.00    +0.000 A 
ENDROOT
BRANCH   6   7
ATOM      7  N   UNL     1       2.539   4.015  19.866  0.00  0.00    +0.000 N 
ATOM      8  C   UNL     1       2.578   3.455  21.124  0.00  0.00    +0.000 A 
ATOM      9  N   UNL     1       1.385   3.049  21.492  0.00  0.00    +0.000 NA
ATOM     10  C   UNL     1       0.612   3.391  20.429  0.00  0.00    +0.000 A 
ATOM     11  N   UNL     1       1.249   4.007  19.432  0.00  0.00    +0.000 NA
ENDBRANCH   6   7
BRANCH   1  14
ATOM     12  O   UNL     1       2.640   8.388  17.377  0.00  0.00    +0.000 OA
ATOM     13  C   UNL     1       2.308   7.978  18.484  0.00  0.00    +0.000 C 
ATOM     14  N   UNL     1       2.704   6.777  19.040  0.00  0.00    +0.000 N 
ATOM     15  H   UNL     1       2.196   6.519  19.892  0.00  0.00    +0.000 HD
BRANCH  13  16
ATOM     16  C   UNL     1       1.431   8.735  19.363  0.00  0.00    +0.000 A 
ATOM     17  C   UNL     1       0.763   9.935  19.187  0.00  0.00    +0.000 A 
ATOM     18  C   UNL     1       0.161  10.262  20.431  0.00  0.00    +0.000 A 
ATOM     19  C   UNL     1      -0.592  11.336  20.939  0.00  0.00    +0.000 A 
ATOM     20  C   UNL     1      -0.974  11.313  22.289  0.00  0.00    +0.000 A 
ATOM     21  C   UNL     1      -0.635  10.239  23.117  0.00  0.00    +0.000 A 
ATOM     22  C   UNL     1       0.093   9.151  22.625  0.00  0.00    +0.000 A 
ATOM     23  C   UNL     1       0.474   9.213  21.287  0.00  0.00    +0.000 A 
ATOM     24  O   UNL     1       1.217   8.277  20.639  0.00  0.00    +0.000 OA
ENDBRANCH  13  16
ENDBRANCH   1  14
BRANCH   3  25
ATOM     25  C   UNL     1       6.839   5.723  16.438  0.00  0.00    +0.000 C 
ATOM     26  F   UNL     1       7.561   6.787  16.878  0.00  0.00    +0.000 F 
ATOM     27  F   UNL     1       7.736   4.715  16.246  0.00  0.00    +0.000 F 
ATOM     28  F   UNL     1       6.391   6.059  15.197  0.00  0.00    +0.000 F 
ENDBRANCH   3  25
TORSDOF 4
ENDMDL
MODEL 5
REMARK VINA RESULT:      -8.5      1.459      1.977
REMARK  Name = 
REMARK  4 active torsions:
REMARK  status: ('A' for Active; 'I' for Inactive)
REMARK    1  A    between atoms: C_2  and  C_19
REMARK    2  A    between atoms: N_3  and  C_4
REMARK    3  A    between atoms: C_6  and  C_7
REMARK    4  A    between atoms: C_13  and  N_14
REMARK                            x       y       z     vdW  Elec       q    Type
REMARK                         _______ _______ _______ _____ _____    ______ ____
ROOT
ATOM      1  C   UNL     1       3.797   5.992  19.181  0.00  0.00    +0.000 A 
ATOM      2  C   UNL     1       4.959   6.466  18.553  0.00  0.00    +0.000 A 
ATOM      3  C   UNL     1       6.031   5.611  18.245  0.00  0.00    +0.000 A 
ATOM      4  C   UNL     1       5.939   4.259  18.590  0.00  0.00    +0.000 A 
ATOM      5  C   UNL     1       4.792   3.762  19.210  0.00  0.00    +0.000 A 
ATOM      6  C   UNL     1       3.708   4.611  19.499  0.00  0.00    +0.000 A 
ENDROOT
BRANCH   6   7
ATOM      7  N   UNL     1       2.527   4.041  20.064  0.00  0.00    +0.000 N 
ATOM      8  C   UNL     1       2.360   3.425  21.285  0.00  0.00    +0.000 A 
ATOM      9  N   UNL     1       1.144   2.947  21.405  0.00  0.00    +0.000 NA
ATOM     10  C   UNL     1       0.565   3.303  20.229  0.00  0.00    +0.000 A 
ATOM     11  N   UNL     1       1.343   3.994  19.395  0.00  0.00    +0.000 NA
ENDBRANCH   6   7
BRANCH   1  14
ATOM     12  O   UNL     1       2.390   8.173  17.660  0.00  0.00    +0.000 OA
ATOM     13  C   UNL     1       2.178   7.913  18.840  0.00  0.00    +0.000 C 
ATOM     14  N   UNL     1       2.753   6.872  19.543  0.00  0.00    +0.000 N 
ATOM     15  H   UNL     1       2.332   6.700  20.462  0.00  0.00    +0.000 HD
BRANCH  13  16
ATOM     16  C   UNL     1       1.266   8.699  19.657  0.00  0.00    +0.000 A 
ATOM     17  C   UNL     1       0.564   9.863  19.394  0.00  0.00    +0.000 A 
ATOM     18  C   UNL     1      -0.064  10.253  20.607  0.00  0.00    +0.000 A 
ATOM     19  C   UNL     1      -0.856  11.333  21.033  0.00  0.00    +0.000 A 
ATOM     20  C   UNL     1      -1.255  11.387  22.378  0.00  0.00    +0.000 A 
ATOM     21  C   UNL     1      -0.895  10.382  23.279  0.00  0.00    +0.000 A 
ATOM     22  C   UNL     1      -0.127   9.287  22.868  0.00  0.00    +0.000 A 
ATOM     23  C   UNL     1       0.269   9.273  21.533  0.00  0.00    +0.000 A 
ATOM     24  O   UNL     1       1.050   8.320  20.958  0.00  0.00    +0.000 OA
ENDBRANCH  13  16
ENDBRANCH   1  14
BRANCH   3  25
ATOM     25  C   UNL     1       7.281   6.118  17.565  0.00  0.00    +0.000 C 
ATOM     26  F   UNL     1       7.772   5.288  16.607  0.00  0.00    +0.000 F 
ATOM     27  F   UNL     1       7.081   7.319  16.954  0.00  0.00    +0.000 F 
ATOM     28  F   UNL     1       8.299   6.318  18.448  0.00  0.00    +0.000 F 
ENDBRANCH   3  25
TORSDOF 4
ENDMDL
MODEL 6
REMARK VINA RESULT:      -8.5      1.440      2.065
REMARK  Name = 
REMARK  4 active torsions:
REMARK  status: ('A' for Active; 'I' for Inactive)
REMARK    1  A    between atoms: C_2  and  C_19
REMARK    2  A    between atoms: N_3  and  C_4
REMARK    3  A    between atoms: C_6  and  C_7
REMARK    4  A    between atoms: C_13  and  N_14
REMARK                            x       y       z     vdW  Elec       q    Type
REMARK                         _______ _______ _______ _____ _____    ______ ____
ROOT
ATOM      1  C   UNL     1       3.707   6.192  18.639  0.00  0.00    +0.000 A 
ATOM      2  C   UNL     1       4.905   6.707  18.122  0.00  0.00    +0.000 A 
ATOM      3  C   UNL     1       5.960   5.864  17.728  0.00  0.00    +0.000 A 
ATOM      4  C   UNL     1       5.811   4.482  17.872  0.00  0.00    +0.000 A 
ATOM      5  C   UNL     1       4.627   3.945  18.377  0.00  0.00    +0.000 A 
ATOM      6  C   UNL     1       3.561   4.784  18.751  0.00  0.00    +0.000 A 
ENDROOT
BRANCH   6   7
ATOM      7  N   UNL     1       2.342   4.183  19.191  0.00  0.00    +0.000 N 
ATOM      8  C   UNL     1       1.498   3.335  18.510  0.00  0.00    +0.000 A 
ATOM      9  N   UNL     1       0.427   3.069  19.222  0.00  0.00    +0.000 NA
ATOM     10  C   UNL     1       0.649   3.766  20.366  0.00  0.00    +0.000 A 
ATOM     11  N   UNL     1       1.804   4.431  20.417  0.00  0.00    +0.000 NA
ENDBRANCH   6   7
BRANCH   1  14
ATOM     12  O   UNL     1       2.384   8.580  17.377  0.00  0.00    +0.000 OA
ATOM     13  C   UNL     1       2.144   8.184  18.512  0.00  0.00    +0.000 C 
ATOM     14  N   UNL     1       2.679   7.050  19.090  0.00  0.00    +0.000 N 
ATOM     15  H   UNL     1       2.237   6.778  19.974  0.00  0.00    +0.000 HD
BRANCH  13  16
ATOM     16  C   UNL     1       1.238   8.890  19.406  0.00  0.00    +0.000 A 
ATOM     17  C   UNL     1       0.478  10.033  19.232  0.00  0.00    +0.000 A 
ATOM     18  C   UNL     1      -0.111  10.336  20.489  0.00  0.00    +0.000 A 
ATOM     19  C   UNL     1      -0.927  11.359  21.003  0.00  0.00    +0.000 A 
ATOM     20  C   UNL     1      -1.268  11.330  22.364  0.00  0.00    +0.000 A 
ATOM     21  C   UNL     1      -0.828  10.297  23.197  0.00  0.00    +0.000 A 
ATOM     22  C   UNL     1      -0.035   9.258  22.699  0.00  0.00    +0.000 A 
ATOM     23  C   UNL     1       0.302   9.326  21.349  0.00  0.00    +0.000 A 
ATOM     24  O   UNL     1       1.095   8.438  20.693  0.00  0.00    +0.000 OA
ENDBRANCH  13  16
ENDBRANCH   1  14
BRANCH   3  25
ATOM     25  C   UNL     1       7.249   6.417  17.168  0.00  0.00    +0.000 C 
ATOM     26  F   UNL     1       7.238   7.760  16.961  0.00  0.00    +0.000 F 
ATOM     27  F   UNL     1       8.310   6.172  17.987  0.00  0.00    +0.000 F 
ATOM     28  F   UNL     1       7.570   5.854  15.970  0.00  0.00    +0.000 F 
ENDBRANCH   3  25
TORSDOF 4
ENDMDL
MODEL 7
REMARK VINA RESULT:      -8.5      4.451      5.935
REMARK  Name = 
REMARK  4 active torsions:
REMARK  status: ('A' for Active; 'I' for Inactive)
REMARK    1  A    between atoms: C_2  and  C_19
REMARK    2  A    between atoms: N_3  and  C_4
REMARK    3  A    between atoms: C_6  and  C_7
REMARK    4  A    between atoms: C_13  and  N_14
REMARK                            x       y       z     vdW  Elec       q    Type
REMARK                         _______ _______ _______ _____ _____    ______ ____
ROOT
ATOM      1  C   UNL     1       5.918   4.406  15.365  0.00  0.00    +0.000 A 
ATOM      2  C   UNL     1       5.757   3.924  14.057  0.00  0.00    +0.000 A 
ATOM      3  C   UNL     1       6.715   4.172  13.058  0.00  0.00    +0.000 A 
ATOM      4  C   UNL     1       7.844   4.932  13.377  0.00  0.00    +0.000 A 
ATOM      5  C   UNL     1       8.030   5.417  14.672  0.00  0.00    +0.000 A 
ATOM      6  C   UNL     1       7.085   5.151  15.680  0.00  0.00    +0.000 A 
ENDROOT
BRANCH   6   7
ATOM      7  N   UNL     1       7.357   5.605  17.006  0.00  0.00    +0.000 N 
ATOM      8  C   UNL     1       7.560   6.890  17.458  0.00  0.00    +0.000 A 
ATOM      9  N   UNL     1       7.876   6.893  18.733  0.00  0.00    +0.000 NA
ATOM     10  C   UNL     1       7.843   5.574  19.051  0.00  0.00    +0.000 A 
ATOM     11  N   UNL     1       7.504   4.752  18.057  0.00  0.00    +0.000 NA
ENDBRANCH   6   7
BRANCH   1  14
ATOM     12  O   UNL     1       4.123   6.324  16.830  0.00  0.00    +0.000 OA
ATOM     13  C   UNL     1       4.162   5.118  17.050  0.00  0.00    +0.000 C 
ATOM     14  N   UNL     1       4.920   4.204  16.344  0.00  0.00    +0.000 N 
ATOM     15  H   UNL     1       4.698   3.224  16.550  0.00  0.00    +0.000 HD
BRANCH  13  16
ATOM     16  C   UNL     1       3.389   4.497  18.114  0.00  0.00    +0.000 A 
ATOM     17  C   UNL     1       2.070   4.651  18.505  0.00  0.00    +0.000 A 
ATOM     18  C   UNL     1       1.897   3.891  19.692  0.00  0.00    +0.000 A 
ATOM     19  C   UNL     1       0.851   3.663  20.604  0.00  0.00    +0.000 A 
ATOM     20  C   UNL     1       1.097   2.857  21.726  0.00  0.00    +0.000 A 
ATOM     21  C   UNL     1       2.349   2.270  21.932  0.00  0.00    +0.000 A 
ATOM     22  C   UNL     1       3.395   2.465  21.025  0.00  0.00    +0.000 A 
ATOM     23  C   UNL     1       3.125   3.286  19.933  0.00  0.00    +0.000 A 
ATOM     24  O   UNL     1       4.020   3.628  18.969  0.00  0.00    +0.000 OA
ENDBRANCH  13  16
ENDBRANCH   1  14
BRANCH   3  25
ATOM     25  C   UNL     1       6.546   3.650  11.651  0.00  0.00    +0.000 C 
ATOM     26  F   UNL     1       7.161   2.460  11.419  0.00  0.00    +0.000 F 
ATOM     27  F   UNL     1       5.236   3.466  11.326  0.00  0.00    +0.000 F 
ATOM     28  F   UNL     1       7.038   4.516  10.721  0.00  0.00    +0.000 F 
ENDBRANCH   3  25
TORSDOF 4
ENDMDL
MODEL 8
REMARK VINA RESULT:      -8.4      1.089      1.655
REMARK  Name = 
REMARK  4 active torsions:
REMARK  status: ('A' for Active; 'I' for Inactive)
REMARK    1  A    between atoms: C_2  and  C_19
REMARK    2  A    between atoms: N_3  and  C_4
REMARK    3  A    between atoms: C_6  and  C_7
REMARK    4  A    between atoms: C_13  and  N_14
REMARK                            x       y       z     vdW  Elec       q    Type
REMARK                         _______ _______ _______ _____ _____    ______ ____
ROOT
ATOM      1  C   UNL     1       3.475   5.605  17.897  0.00  0.00    +0.000 A 
ATOM      2  C   UNL     1       4.568   5.981  17.101  0.00  0.00    +0.000 A 
ATOM      3  C   UNL     1       5.472   5.031  16.596  0.00  0.00    +0.000 A 
ATOM      4  C   UNL     1       5.282   3.682  16.911  0.00  0.00    +0.000 A 
ATOM      5  C   UNL     1       4.200   3.282  17.695  0.00  0.00    +0.000 A 
ATOM      6  C   UNL     1       3.280   4.228  18.183  0.00  0.00    +0.000 A 
ENDROOT
BRANCH   6   7
ATOM      7  N   UNL     1       2.147   3.761  18.917  0.00  0.00    +0.000 N 
ATOM      8  C   UNL     1       1.205   2.824  18.555  0.00  0.00    +0.000 A 
ATOM      9  N   UNL     1       0.261   2.734  19.463  0.00  0.00    +0.000 NA
ATOM     10  C   UNL     1       0.663   3.631  20.400  0.00  0.00    +0.000 A 
ATOM     11  N   UNL     1       1.811   4.257  20.139  0.00  0.00    +0.000 NA
ENDBRANCH   6   7
BRANCH   1  14
ATOM     12  O   UNL     1       2.876   8.447  17.115  0.00  0.00    +0.000 OA
ATOM     13  C   UNL     1       2.412   7.897  18.108  0.00  0.00    +0.000 C 
ATOM     14  N   UNL     1       2.609   6.574  18.451  0.00  0.00    +0.000 N 
ATOM     15  H   UNL     1       2.008   6.242  19.213  0.00  0.00    +0.000 HD
BRANCH  13  16
ATOM     16  C   UNL     1       1.574   8.602  19.066  0.00  0.00    +0.000 A 
ATOM     17  C   UNL     1       0.819   9.756  18.955  0.00  0.00    +0.000 A 
ATOM     18  C   UNL     1       0.315  10.049  20.251  0.00  0.00    +0.000 A 
ATOM     19  C   UNL     1      -0.454  11.076  20.828  0.00  0.00    +0.000 A 
ATOM     20  C   UNL     1      -0.708  11.033  22.208  0.00  0.00    +0.000 A 
ATOM     21  C   UNL     1      -0.228   9.985  22.998  0.00  0.00    +0.000 A 
ATOM     22  C   UNL     1       0.518   8.943  22.438  0.00  0.00    +0.000 A 
ATOM     23  C   UNL     1       0.769   9.025  21.071  0.00  0.00    +0.000 A 
ATOM     24  O   UNL     1       1.507   8.135  20.355  0.00  0.00    +0.000 OA
ENDBRANCH  13  16
ENDBRANCH   1  14
BRANCH   3  25
ATOM     25  C   UNL     1       6.647   5.433  15.736  0.00  0.00    +0.000 C 
ATOM     26  F   UNL     1       7.521   4.424  15.478  0.00  0.00    +0.000 F 
ATOM     27  F   UNL     1       6.255   5.910  14.522  0.00  0.00    +0.000 F 
ATOM     28  F   UNL     1       7.380   6.430  16.305  0.00  0.00    +0.000 F 
ENDBRANCH   3  25
TORSDOF 4
ENDMDL
MODEL 9
REMARK VINA RESULT:      -8.2      3.535      7.725
REMARK  Name = 
REMARK  4 active torsions:
REMARK  status: ('A' for Active; 'I' for Inactive)
REMARK    1  A    between atoms: C_2  and  C_19
REMARK    2  A    between atoms: N_3  and  C_4
REMARK    3  A    between atoms: C_6  and  C_7
REMARK    4  A    between atoms: C_13  and  N_14
REMARK                            x       y       z     vdW  Elec       q    Type
REMARK                         _______ _______ _______ _____ _____    ______ ____
ROOT
ATOM      1  C   UNL     1       3.247   5.666  18.627  0.00  0.00    +0.000 A 
ATOM      2  C   UNL     1       2.817   6.995  18.756  0.00  0.00    +0.000 A 
ATOM      3  C   UNL     1       1.909   7.382  19.758  0.00  0.00    +0.000 A 
ATOM      4  C   UNL     1       1.413   6.411  20.633  0.00  0.00    +0.000 A 
ATOM      5  C   UNL     1       1.830   5.083  20.529  0.00  0.00    +0.000 A 
ATOM      6  C   UNL     1       2.757   4.698  19.543  0.00  0.00    +0.000 A 
ENDROOT
BRANCH   6   7
ATOM      7  N   UNL     1       3.209   3.343  19.526  0.00  0.00    +0.000 N 
ATOM      8  C   UNL     1       4.063   2.703  20.396  0.00  0.00    +0.000 A 
ATOM      9  N   UNL     1       4.311   1.479  19.992  0.00  0.00    +0.000 NA
ATOM     10  C   UNL     1       3.571   1.383  18.858  0.00  0.00    +0.000 A 
ATOM     11  N   UNL     1       2.859   2.466  18.545  0.00  0.00    +0.000 NA
ENDBRANCH   6   7
BRANCH   1  14
ATOM     12  O   UNL     1       6.168   4.946  18.592  0.00  0.00    +0.000 OA
ATOM     13  C   UNL     1       5.468   5.023  17.587  0.00  0.00    +0.000 C 
ATOM     14  N   UNL     1       4.111   5.277  17.579  0.00  0.00    +0.000 N 
ATOM     15  H   UNL     1       3.660   5.133  16.669  0.00  0.00    +0.000 HD
BRANCH  13  16
ATOM     16  C   UNL     1       6.010   4.848  16.248  0.00  0.00    +0.000 A 
ATOM     17  C   UNL     1       7.062   5.463  15.593  0.00  0.00    +0.000 A 
ATOM     18  C   UNL     1       7.050   4.992  14.253  0.00  0.00    +0.000 A 
ATOM     19  C   UNL     1       7.791   5.247  13.085  0.00  0.00    +0.000 A 
ATOM     20  C   UNL     1       7.425   4.592  11.899  0.00  0.00    +0.000 A 
ATOM     21  C   UNL     1       6.360   3.687  11.872  0.00  0.00    +0.000 A 
ATOM     22  C   UNL     1       5.627   3.402  13.029  0.00  0.00    +0.000 A 
ATOM     23  C   UNL     1       6.002   4.083  14.185  0.00  0.00    +0.000 A 
ATOM     24  O   UNL     1       5.389   3.973  15.393  0.00  0.00    +0.000 OA
ENDBRANCH  13  16
ENDBRANCH   1  14
BRANCH   3  25
ATOM     25  C   UNL     1       1.448   8.813  19.900  0.00  0.00    +0.000 C 
ATOM     26  F   UNL     1       1.955   9.659  18.964  0.00  0.00    +0.000 F 
ATOM     27  F   UNL     1       0.093   8.926  19.815  0.00  0.00    +0.000 F 
ATOM     28  F   UNL     1       1.787   9.342  21.109  0.00  0.00    +0.000 F 
ENDBRANCH   3  25
TORSDOF 4
ENDMDL
