MODEL 1
REMARK VINA RESULT:      -8.7      0.000      0.000
REMARK  Name = 
REMARK  6 active torsions:
REMARK  status: ('A' for Active; 'I' for Inactive)
REMARK    1  A    between atoms: C_2  and  C_7
REMARK    2  A    between atoms: N_3  and  C_4
REMARK    3  A    between atoms: C_10  and  C_11
REMARK    4  A    between atoms: C_11  and  N_12
REMARK    5  A    between atoms: N_12  and  C_26
REMARK    6  A    between atoms: C_13  and  C_15
REMARK                            x       y       z     vdW  Elec       q    Type
REMARK                         _______ _______ _______ _____ _____    ______ ____
ROOT
ATOM      1  N   UNL     1       1.615   9.009  19.403  0.00  0.00    +0.000 N 
ATOM      2  C   UNL     1       2.262   8.305  18.382  0.00  0.00    +0.000 C 
ATOM      3  O   UNL     1       2.589   8.854  17.322  0.00  0.00    +0.000 OA
ENDROOT
BRANCH   2   4
ATOM      4  C   UNL     1       2.513   6.804  18.523  0.00  0.00    +0.000 A 
ATOM      5  C   UNL     1       1.499   6.005  18.924  0.00  0.00    +0.000 A 
ATOM      6  C   UNL     1       1.843   4.700  19.487  0.00  0.00    +0.000 A 
ATOM      7  C   UNL     1       0.896   3.956  20.200  0.00  0.00    +0.000 A 
ATOM      8  C   UNL     1       1.306   2.893  21.016  0.00  0.00    +0.000 A 
ATOM      9  C   UNL     1       2.656   2.549  21.095  0.00  0.00    +0.000 A 
ATOM     10  C   UNL     1       3.589   3.215  20.304  0.00  0.00    +0.000 A 
ATOM     11  C   UNL     1       3.178   4.289  19.502  0.00  0.00    +0.000 A 
ATOM     12  C   UNL     1       4.180   5.033  18.712  0.00  0.00    +0.000 A 
ATOM     13  O   UNL     1       5.264   4.544  18.421  0.00  0.00    +0.000 OA
ATOM     14  O   UNL     1       3.833   6.310  18.382  0.00  0.00    +0.000 OA
ENDBRANCH   2   4
BRANCH   1  15
ATOM     15  C   UNL     1       1.357   8.469  20.719  0.00  0.00    +0.000 C 
ATOM     16  C   UNL     1       0.059   8.642  21.469  0.00  0.00    +0.000 C 
ATOM     17  C   UNL     1       1.265   9.417  21.894  0.00  0.00    +0.000 C 
ENDBRANCH   1  15
BRANCH   1  18
ATOM     18  C   UNL     1       1.071  10.356  19.101  0.00  0.00    +0.000 C 
BRANCH  18  22
ATOM     19  C   UNL     1      -2.830  10.823  17.436  0.00  0.00    +0.000 A 
ATOM     20  C   UNL     1      -2.039   9.738  17.032  0.00  0.00    +0.000 A 
ATOM     21  C   UNL     1      -0.827   9.469  17.671  0.00  0.00    +0.000 A 
ATOM     22  C   UNL     1      -0.394  10.296  18.711  0.00  0.00    +0.000 A 
ATOM     23  C   UNL     1      -1.317  11.174  19.287  0.00  0.00    +0.000 A 
ATOM     24  C   UNL     1      -2.547  11.413  18.666  0.00  0.00    +0.000 A 
BRANCH  19  26
ATOM     25  O   UNL     1      -3.429  11.316  15.207  0.00  0.00    +0.000 OA
ATOM     26  C   UNL     1      -3.749  11.390  16.397  0.00  0.00    +0.000 C 
ATOM     27  N   UNL     1      -4.870  12.144  16.694  0.00  0.00    +0.000 N 
ATOM     28  H   UNL     1      -5.255  12.579  15.861  0.00  0.00    +0.000 HD
BRANCH  27  29
ATOM     29  C   UNL     1      -5.651  12.217  17.879  0.00  0.00    +0.000 C 
ATOM     30  C   UNL     1      -6.619  11.093  18.159  0.00  0.00    +0.000 C 
ATOM     31  C   UNL     1      -7.132  12.461  17.849  0.00  0.00    +0.000 C 
ENDBRANCH  27  29
ENDBRANCH  19  26
ENDBRANCH  18  22
ENDBRANCH   1  18
TORSDOF 6
ENDMDL
MODEL 2
REMARK VINA RESULT:      -8.5      4.042      6.940
REMARK  Name = 
REMARK  6 active torsions:
REMARK  status: ('A' for Active; 'I' for Inactive)
REMARK    1  A    between atoms: C_2  and  C_7
REMARK    2  A    between atoms: N_3  and  C_4
REMARK    3  A    between atoms: C_10  and  C_11
REMARK    4  A    between atoms: C_11  and  N_12
REMARK    5  A    between atoms: N_12  and  C_26
REMARK    6  A    between atoms: C_13  and  C_15
REMARK                            x       y       z     vdW  Elec       q    Type
REMARK                         _______ _______ _______ _____ _____    ______ ____
ROOT
ATOM      1  N   UNL     1       4.853   4.249  17.931  0.00  0.00    +0.000 N 
ATOM      2  C   UNL     1       5.920   4.970  17.384  0.00  0.00    +0.000 C 
ATOM      3  O   UNL     1       6.688   5.632  18.094  0.00  0.00    +0.000 OA
ENDROOT
BRANCH   2   4
ATOM      4  C   UNL     1       6.118   5.021  15.869  0.00  0.00    +0.000 A 
ATOM      5  C   UNL     1       5.166   4.493  15.066  0.00  0.00    +0.000 A 
ATOM      6  C   UNL     1       5.551   4.133  13.702  0.00  0.00    +0.000 A 
ATOM      7  C   UNL     1       4.730   3.311  12.922  0.00  0.00    +0.000 A 
ATOM      8  C   UNL     1       5.242   2.696  11.770  0.00  0.00    +0.000 A 
ATOM      9  C   UNL     1       6.561   2.929  11.378  0.00  0.00    +0.000 A 
ATOM     10  C   UNL     1       7.348   3.831  12.090  0.00  0.00    +0.000 A 
ATOM     11  C   UNL     1       6.838   4.431  13.250  0.00  0.00    +0.000 A 
ATOM     12  C   UNL     1       7.696   5.339  14.037  0.00  0.00    +0.000 A 
ATOM     13  O   UNL     1       8.673   5.891  13.546  0.00  0.00    +0.000 OA
ATOM     14  O   UNL     1       7.356   5.475  15.351  0.00  0.00    +0.000 OA
ENDBRANCH   2   4
BRANCH   1  15
ATOM     15  C   UNL     1       4.027   3.333  17.178  0.00  0.00    +0.000 C 
ATOM     16  C   UNL     1       2.567   3.079  17.458  0.00  0.00    +0.000 C 
ATOM     17  C   UNL     1       3.579   2.045  17.833  0.00  0.00    +0.000 C 
ENDBRANCH   1  15
BRANCH   1  18
ATOM     18  C   UNL     1       4.477   4.503  19.344  0.00  0.00    +0.000 C 
BRANCH  18  22
ATOM     19  C   UNL     1       1.609   7.529  20.254  0.00  0.00    +0.000 A 
ATOM     20  C   UNL     1       2.390   7.653  19.096  0.00  0.00    +0.000 A 
ATOM     21  C   UNL     1       3.222   6.608  18.688  0.00  0.00    +0.000 A 
ATOM     22  C   UNL     1       3.285   5.437  19.448  0.00  0.00    +0.000 A 
ATOM     23  C   UNL     1       2.296   5.219  20.412  0.00  0.00    +0.000 A 
ATOM     24  C   UNL     1       1.438   6.255  20.792  0.00  0.00    +0.000 A 
BRANCH  19  26
ATOM     25  O   UNL     1       1.449   8.938  22.141  0.00  0.00    +0.000 OA
ATOM     26  C   UNL     1       1.231   8.811  20.932  0.00  0.00    +0.000 C 
ATOM     27  N   UNL     1       0.498   9.814  20.324  0.00  0.00    +0.000 N 
ATOM     28  H   UNL     1       0.198  10.514  20.996  0.00  0.00    +0.000 HD
BRANCH  27  29
ATOM     29  C   UNL     1       0.304  10.116  18.948  0.00  0.00    +0.000 C 
ATOM     30  C   UNL     1      -0.420  11.393  18.599  0.00  0.00    +0.000 C 
ATOM     31  C   UNL     1      -1.051  10.072  18.303  0.00  0.00    +0.000 C 
ENDBRANCH  27  29
ENDBRANCH  19  26
ENDBRANCH  18  22
ENDBRANCH   1  18
TORSDOF 6
ENDMDL
MODEL 3
REMARK VINA RESULT:      -8.5      1.352      1.970
REMARK  Name = 
REMARK  6 active torsions:
REMARK  status: ('A' for Active; 'I' for Inactive)
REMARK    1  A    between atoms: C_2  and  C_7
REMARK    2  A    between atoms: N_3  and  C_4
REMARK    3  A    between atoms: C_10  and  C_11
REMARK    4  A    between atoms: C_11  and  N_12
REMARK    5  A    between atoms: N_12  and  C_26
REMARK    6  A    between atoms: C_13  and  C_15
REMARK                            x       y       z     vdW  Elec       q    Type
REMARK                         _______ _______ _______ _____ _____    ______ ____
ROOT
ATOM      1  N   UNL     1       1.284   9.361  19.488  0.00  0.00    +0.000 N 
ATOM      2  C   UNL     1       2.148   8.657  18.643  0.00  0.00    +0.000 C 
ATOM      3  O   UNL     1       2.616   9.171  17.620  0.00  0.00    +0.000 OA
ENDROOT
BRANCH   2   4
ATOM      4  C   UNL     1       2.474   7.190  18.925  0.00  0.00    +0.000 A 
ATOM      5  C   UNL     1       3.392   6.563  18.155  0.00  0.00    +0.000 A 
ATOM      6  C   UNL     1       3.366   5.102  18.119  0.00  0.00    +0.000 A 
ATOM      7  C   UNL     1       4.060   4.399  17.129  0.00  0.00    +0.000 A 
ATOM      8  C   UNL     1       3.766   3.049  16.887  0.00  0.00    +0.000 A 
ATOM      9  C   UNL     1       2.805   2.392  17.656  0.00  0.00    +0.000 A 
ATOM     10  C   UNL     1       2.189   3.057  18.714  0.00  0.00    +0.000 A 
ATOM     11  C   UNL     1       2.474   4.411  18.942  0.00  0.00    +0.000 A 
ATOM     12  C   UNL     1       1.773   5.129  20.025  0.00  0.00    +0.000 A 
ATOM     13  O   UNL     1       1.254   4.536  20.962  0.00  0.00    +0.000 OA
ATOM     14  O   UNL     1       1.700   6.483  19.878  0.00  0.00    +0.000 OA
ENDBRANCH   2   4
BRANCH   1  15
ATOM     15  C   UNL     1       0.837   8.874  20.774  0.00  0.00    +0.000 C 
ATOM     16  C   UNL     1       0.223   9.742  21.845  0.00  0.00    +0.000 C 
ATOM     17  C   UNL     1       1.624   9.249  22.011  0.00  0.00    +0.000 C 
ENDBRANCH   1  15
BRANCH   1  18
ATOM     18  C   UNL     1       0.709  10.642  19.007  0.00  0.00    +0.000 C 
BRANCH  18  22
ATOM     19  C   UNL     1      -3.238  10.867  17.401  0.00  0.00    +0.000 A 
ATOM     20  C   UNL     1      -2.402   9.809  17.017  0.00  0.00    +0.000 A 
ATOM     21  C   UNL     1      -1.168   9.619  17.642  0.00  0.00    +0.000 A 
ATOM     22  C   UNL     1      -0.758  10.499  18.647  0.00  0.00    +0.000 A 
ATOM     23  C   UNL     1      -1.712  11.350  19.211  0.00  0.00    +0.000 A 
ATOM     24  C   UNL     1      -2.963  11.510  18.606  0.00  0.00    +0.000 A 
BRANCH  19  26
ATOM     25  O   UNL     1      -3.835  11.412  15.184  0.00  0.00    +0.000 OA
ATOM     26  C   UNL     1      -4.201  11.356  16.361  0.00  0.00    +0.000 C 
ATOM     27  N   UNL     1      -5.434  11.906  16.657  0.00  0.00    +0.000 N 
ATOM     28  H   UNL     1      -5.856  12.333  15.838  0.00  0.00    +0.000 HD
BRANCH  27  29
ATOM     29  C   UNL     1      -6.254  11.777  17.811  0.00  0.00    +0.000 C 
ATOM     30  C   UNL     1      -7.442  12.698  17.941  0.00  0.00    +0.000 C 
ATOM     31  C   UNL     1      -6.293  12.824  18.887  0.00  0.00    +0.000 C 
ENDBRANCH  27  29
ENDBRANCH  19  26
ENDBRANCH  18  22
ENDBRANCH   1  18
TORSDOF 6
ENDMDL
MODEL 4
REMARK VINA RESULT:      -8.5      4.123      8.956
REMARK  Name = 
REMARK  6 active torsions:
REMARK  status: ('A' for Active; 'I' for Inactive)
REMARK    1  A    between atoms: C_2  and  C_7
REMARK    2  A    between atoms: N_3  and  C_4
REMARK    3  A    between atoms: C_10  and  C_11
REMARK    4  A    between atoms: C_11  and  N_12
REMARK    5  A    between atoms: N_12  and  C_26
REMARK    6  A    between atoms: C_13  and  C_15
REMARK                            x       y       z     vdW  Elec       q    Type
REMARK                         _______ _______ _______ _____ _____    ______ ____
ROOT
ATOM      1  N   UNL     1       2.606   4.791  19.691  0.00  0.00    +0.000 N 
ATOM      2  C   UNL     1       3.024   6.123  19.604  0.00  0.00    +0.000 C 
ATOM      3  O   UNL     1       4.216   6.421  19.455  0.00  0.00    +0.000 OA
ENDROOT
BRANCH   2   4
ATOM      4  C   UNL     1       2.014   7.259  19.772  0.00  0.00    +0.000 A 
ATOM      5  C   UNL     1       1.922   8.201  18.806  0.00  0.00    +0.000 A 
ATOM      6  C   UNL     1       1.321   9.485  19.165  0.00  0.00    +0.000 A 
ATOM      7  C   UNL     1       1.468  10.600  18.333  0.00  0.00    +0.000 A 
ATOM      8  C   UNL     1       1.198  11.885  18.824  0.00  0.00    +0.000 A 
ATOM      9  C   UNL     1       0.748  12.055  20.134  0.00  0.00    +0.000 A 
ATOM     10  C   UNL     1       0.496  10.941  20.932  0.00  0.00    +0.000 A 
ATOM     11  C   UNL     1       0.784   9.659  20.442  0.00  0.00    +0.000 A 
ATOM     12  C   UNL     1       0.574   8.484  21.312  0.00  0.00    +0.000 A 
ATOM     13  O   UNL     1      -0.179   8.522  22.277  0.00  0.00    +0.000 OA
ATOM     14  O   UNL     1       1.315   7.383  20.997  0.00  0.00    +0.000 OA
ENDBRANCH   2   4
BRANCH   1  15
ATOM     15  C   UNL     1       1.221   4.378  19.701  0.00  0.00    +0.000 C 
ATOM     16  C   UNL     1       0.735   3.046  20.217  0.00  0.00    +0.000 C 
ATOM     17  C   UNL     1       0.775   3.295  18.744  0.00  0.00    +0.000 C 
ENDBRANCH   1  15
BRANCH   1  18
ATOM     18  C   UNL     1       3.633   3.737  19.882  0.00  0.00    +0.000 C 
BRANCH  18  22
ATOM     19  C   UNL     1       6.318   4.566  16.670  0.00  0.00    +0.000 A 
ATOM     20  C   UNL     1       6.834   4.354  17.956  0.00  0.00    +0.000 A 
ATOM     21  C   UNL     1       6.001   3.927  18.992  0.00  0.00    +0.000 A 
ATOM     22  C   UNL     1       4.640   3.723  18.747  0.00  0.00    +0.000 A 
ATOM     23  C   UNL     1       4.211   3.651  17.419  0.00  0.00    +0.000 A 
ATOM     24  C   UNL     1       5.059   4.043  16.379  0.00  0.00    +0.000 A 
BRANCH  19  26
ATOM     25  O   UNL     1       7.355   5.220  14.653  0.00  0.00    +0.000 OA
ATOM     26  C   UNL     1       7.069   5.538  15.811  0.00  0.00    +0.000 C 
ATOM     27  N   UNL     1       7.611   6.719  16.284  0.00  0.00    +0.000 N 
ATOM     28  H   UNL     1       8.225   7.146  15.597  0.00  0.00    +0.000 HD
BRANCH  27  29
ATOM     29  C   UNL     1       7.284   7.496  17.429  0.00  0.00    +0.000 C 
ATOM     30  C   UNL     1       8.015   8.800  17.631  0.00  0.00    +0.000 C 
ATOM     31  C   UNL     1       8.235   7.666  18.578  0.00  0.00    +0.000 C 
ENDBRANCH  27  29
ENDBRANCH  19  26
ENDBRANCH  18  22
ENDBRANCH   1  18
TORSDOF 6
ENDMDL
MODEL 5
REMARK VINA RESULT:      -8.4      3.997      6.797
REMARK  Name = 
REMARK  6 active torsions:
REMARK  status: ('A' for Active; 'I' for Inactive)
REMARK    1  A    between atoms: C_2  and  C_7
REMARK    2  A    between atoms: N_3  and  C_4
REMARK    3  A    between atoms: C_10  and  C_11
REMARK    4  A    between atoms: C_11  and  N_12
REMARK    5  A    between atoms: N_12  and  C_26
REMARK    6  A    between atoms: C_13  and  C_15
REMARK                            x       y       z     vdW  Elec       q    Type
REMARK                         _______ _______ _______ _____ _____    ______ ____
ROOT
ATOM      1  N   UNL     1       4.679   4.683  17.789  0.00  0.00    +0.000 N 
ATOM      2  C   UNL     1       5.763   5.363  17.225  0.00  0.00    +0.000 C 
ATOM      3  O   UNL     1       6.490   6.101  17.902  0.00  0.00    +0.000 OA
ENDROOT
BRANCH   2   4
ATOM      4  C   UNL     1       6.032   5.271  15.722  0.00  0.00    +0.000 A 
ATOM      5  C   UNL     1       5.098   4.707  14.923  0.00  0.00    +0.000 A 
ATOM      6  C   UNL     1       5.530   4.214  13.616  0.00  0.00    +0.000 A 
ATOM      7  C   UNL     1       4.715   3.354  12.872  0.00  0.00    +0.000 A 
ATOM      8  C   UNL     1       5.255   2.621  11.805  0.00  0.00    +0.000 A 
ATOM      9  C   UNL     1       6.598   2.772  11.459  0.00  0.00    +0.000 A 
ATOM     10  C   UNL     1       7.386   3.707  12.127  0.00  0.00    +0.000 A 
ATOM     11  C   UNL     1       6.847   4.426  13.204  0.00  0.00    +0.000 A 
ATOM     12  C   UNL     1       7.703   5.370  13.949  0.00  0.00    +0.000 A 
ATOM     13  O   UNL     1       8.722   5.842  13.460  0.00  0.00    +0.000 OA
ATOM     14  O   UNL     1       7.308   5.634  15.227  0.00  0.00    +0.000 OA
ENDBRANCH   2   4
BRANCH   1  15
ATOM     15  C   UNL     1       3.899   3.685  17.090  0.00  0.00    +0.000 C 
ATOM     16  C   UNL     1       2.521   3.238  17.510  0.00  0.00    +0.000 C 
ATOM     17  C   UNL     1       3.690   2.335  17.739  0.00  0.00    +0.000 C 
ENDBRANCH   1  15
BRANCH   1  18
ATOM     18  C   UNL     1       4.233   5.065  19.151  0.00  0.00    +0.000 C 
BRANCH  18  22
ATOM     19  C   UNL     1       1.563   8.387  19.363  0.00  0.00    +0.000 A 
ATOM     20  C   UNL     1       2.117   8.031  18.125  0.00  0.00    +0.000 A 
ATOM     21  C   UNL     1       2.865   6.860  17.994  0.00  0.00    +0.000 A 
ATOM     22  C   UNL     1       3.075   6.044  19.109  0.00  0.00    +0.000 A 
ATOM     23  C   UNL     1       2.282   6.254  20.241  0.00  0.00    +0.000 A 
ATOM     24  C   UNL     1       1.502   7.409  20.354  0.00  0.00    +0.000 A 
BRANCH  19  26
ATOM     25  O   UNL     1       1.813  10.665  18.798  0.00  0.00    +0.000 OA
ATOM     26  C   UNL     1       1.308   9.849  19.575  0.00  0.00    +0.000 C 
ATOM     27  N   UNL     1       0.670  10.362  20.689  0.00  0.00    +0.000 N 
ATOM     28  H   UNL     1       0.752  11.374  20.730  0.00  0.00    +0.000 HD
BRANCH  27  29
ATOM     29  C   UNL     1      -0.221   9.750  21.612  0.00  0.00    +0.000 C 
ATOM     30  C   UNL     1      -0.837  10.616  22.682  0.00  0.00    +0.000 C 
ATOM     31  C   UNL     1       0.136   9.547  23.056  0.00  0.00    +0.000 C 
ENDBRANCH  27  29
ENDBRANCH  19  26
ENDBRANCH  18  22
ENDBRANCH   1  18
TORSDOF 6
ENDMDL
MODEL 6
REMARK VINA RESULT:      -8.4      4.078      9.100
REMARK  Name = 
REMARK  6 active torsions:
REMARK  status: ('A' for Active; 'I' for Inactive)
REMARK    1  A    between atoms: C_2  and  C_7
REMARK    2  A    between atoms: N_3  and  C_4
REMARK    3  A    between atoms: C_10  and  C_11
REMARK    4  A    between atoms: C_11  and  N_12
REMARK    5  A    between atoms: N_12  and  C_26
REMARK    6  A    between atoms: C_13  and  C_15
REMARK                            x       y       z     vdW  Elec       q    Type
REMARK                         _______ _______ _______ _____ _____    ______ ____
ROOT
ATOM      1  N   UNL     1       2.654   4.902  19.906  0.00  0.00    +0.000 N 
ATOM      2  C   UNL     1       3.039   6.220  19.641  0.00  0.00    +0.000 C 
ATOM      3  O   UNL     1       4.212   6.513  19.377  0.00  0.00    +0.000 OA
ENDROOT
BRANCH   2   4
ATOM      4  C   UNL     1       2.021   7.356  19.750  0.00  0.00    +0.000 A 
ATOM      5  C   UNL     1       1.940   8.261  18.749  0.00  0.00    +0.000 A 
ATOM      6  C   UNL     1       1.327   9.554  19.051  0.00  0.00    +0.000 A 
ATOM      7  C   UNL     1       1.481  10.638  18.180  0.00  0.00    +0.000 A 
ATOM      8  C   UNL     1       1.196  11.939  18.619  0.00  0.00    +0.000 A 
ATOM      9  C   UNL     1       0.725  12.155  19.914  0.00  0.00    +0.000 A 
ATOM     10  C   UNL     1       0.466  11.070  20.748  0.00  0.00    +0.000 A 
ATOM     11  C   UNL     1       0.767   9.772  20.311  0.00  0.00    +0.000 A 
ATOM     12  C   UNL     1       0.550   8.629  21.221  0.00  0.00    +0.000 A 
ATOM     13  O   UNL     1      -0.219   8.698  22.171  0.00  0.00    +0.000 OA
ATOM     14  O   UNL     1       1.301   7.521  20.959  0.00  0.00    +0.000 OA
ENDBRANCH   2   4
BRANCH   1  15
ATOM     15  C   UNL     1       1.281   4.476  20.059  0.00  0.00    +0.000 C 
ATOM     16  C   UNL     1       0.863   3.142  20.626  0.00  0.00    +0.000 C 
ATOM     17  C   UNL     1       0.750   3.385  19.156  0.00  0.00    +0.000 C 
ENDBRANCH   1  15
BRANCH   1  18
ATOM     18  C   UNL     1       3.712   3.888  20.142  0.00  0.00    +0.000 C 
BRANCH  18  22
ATOM     19  C   UNL     1       6.044   4.282  16.589  0.00  0.00    +0.000 A 
ATOM     20  C   UNL     1       6.683   4.331  17.836  0.00  0.00    +0.000 A 
ATOM     21  C   UNL     1       5.975   4.049  19.006  0.00  0.00    +0.000 A 
ATOM     22  C   UNL     1       4.616   3.729  18.934  0.00  0.00    +0.000 A 
ATOM     23  C   UNL     1       4.080   3.400  17.685  0.00  0.00    +0.000 A 
ATOM     24  C   UNL     1       4.806   3.647  16.516  0.00  0.00    +0.000 A 
BRANCH  19  26
ATOM     25  O   UNL     1       7.216   6.179  15.814  0.00  0.00    +0.000 OA
ATOM     26  C   UNL     1       6.646   5.127  15.508  0.00  0.00    +0.000 C 
ATOM     27  N   UNL     1       6.466   4.887  14.157  0.00  0.00    +0.000 N 
ATOM     28  H   UNL     1       6.803   5.663  13.595  0.00  0.00    +0.000 HD
BRANCH  27  29
ATOM     29  C   UNL     1       6.109   3.697  13.467  0.00  0.00    +0.000 C 
ATOM     30  C   UNL     1       6.685   3.479  12.089  0.00  0.00    +0.000 C 
ATOM     31  C   UNL     1       5.219   3.709  12.258  0.00  0.00    +0.000 C 
ENDBRANCH  27  29
ENDBRANCH  19  26
ENDBRANCH  18  22
ENDBRANCH   1  18
TORSDOF 6
ENDMDL
MODEL 7
REMARK VINA RESULT:      -8.3      0.922      1.152
REMARK  Name = 
REMARK  6 active torsions:
REMARK  status: ('A' for Active; 'I' for Inactive)
REMARK    1  A    between atoms: C_2  and  C_7
REMARK    2  A    between atoms: N_3  and  C_4
REMARK    3  A    between atoms: C_10  and  C_11
REMARK    4  A    between atoms: C_11  and  N_12
REMARK    5  A    between atoms: N_12  and  C_26
REMARK    6  A    between atoms: C_13  and  C_15
REMARK                            x       y       z     vdW  Elec       q    Type
REMARK                         _______ _______ _______ _____ _____    ______ ____
ROOT
ATOM      1  N   UNL     1       1.448   9.428  19.334  0.00  0.00    +0.000 N 
ATOM      2  C   UNL     1       2.195   9.121  18.191  0.00  0.00    +0.000 C 
ATOM      3  O   UNL     1       2.448   9.976  17.333  0.00  0.00    +0.000 OA
ENDROOT
BRANCH   2   4
ATOM      4  C   UNL     1       2.653   7.685  17.934  0.00  0.00    +0.000 A 
ATOM      5  C   UNL     1       1.823   6.666  18.251  0.00  0.00    +0.000 A 
ATOM      6  C   UNL     1       2.414   5.341  18.437  0.00  0.00    +0.000 A 
ATOM      7  C   UNL     1       1.690   4.318  19.058  0.00  0.00    +0.000 A 
ATOM      8  C   UNL     1       2.354   3.179  19.539  0.00  0.00    +0.000 A 
ATOM      9  C   UNL     1       3.732   3.046  19.369  0.00  0.00    +0.000 A 
ATOM     10  C   UNL     1       4.439   4.011  18.655  0.00  0.00    +0.000 A 
ATOM     11  C   UNL     1       3.775   5.156  18.190  0.00  0.00    +0.000 A 
ATOM     12  C   UNL     1       4.540   6.206  17.488  0.00  0.00    +0.000 A 
ATOM     13  O   UNL     1       5.619   5.973  16.959  0.00  0.00    +0.000 OA
ATOM     14  O   UNL     1       3.987   7.452  17.520  0.00  0.00    +0.000 OA
ENDBRANCH   2   4
BRANCH   1  15
ATOM     15  C   UNL     1       1.261   8.520  20.444  0.00  0.00    +0.000 C 
ATOM     16  C   UNL     1       0.070   8.546  21.369  0.00  0.00    +0.000 C 
ATOM     17  C   UNL     1       1.389   9.053  21.853  0.00  0.00    +0.000 C 
ENDBRANCH   1  15
BRANCH   1  18
ATOM     18  C   UNL     1       0.723  10.721  19.381  0.00  0.00    +0.000 C 
BRANCH  18  22
ATOM     19  C   UNL     1      -3.125  10.904  17.546  0.00  0.00    +0.000 A 
ATOM     20  C   UNL     1      -2.275   9.830  17.247  0.00  0.00    +0.000 A 
ATOM     21  C   UNL     1      -1.079   9.658  17.947  0.00  0.00    +0.000 A 
ATOM     22  C   UNL     1      -0.722  10.571  18.943  0.00  0.00    +0.000 A 
ATOM     23  C   UNL     1      -1.703  11.445  19.422  0.00  0.00    +0.000 A 
ATOM     24  C   UNL     1      -2.916  11.588  18.742  0.00  0.00    +0.000 A 
BRANCH  19  26
ATOM     25  O   UNL     1      -3.567  11.457  15.294  0.00  0.00    +0.000 OA
ATOM     26  C   UNL     1      -4.025  11.359  16.436  0.00  0.00    +0.000 C 
ATOM     27  N   UNL     1      -5.307  11.838  16.636  0.00  0.00    +0.000 N 
ATOM     28  H   UNL     1      -5.683  12.256  15.791  0.00  0.00    +0.000 HD
BRANCH  27  29
ATOM     29  C   UNL     1      -6.210  11.645  17.717  0.00  0.00    +0.000 C 
ATOM     30  C   UNL     1      -7.339  12.633  17.880  0.00  0.00    +0.000 C 
ATOM     31  C   UNL     1      -6.250  12.566  18.901  0.00  0.00    +0.000 C 
ENDBRANCH  27  29
ENDBRANCH  19  26
ENDBRANCH  18  22
ENDBRANCH   1  18
TORSDOF 6
ENDMDL
MODEL 8
REMARK VINA RESULT:      -8.3      4.070      9.299
REMARK  Name = 
REMARK  6 active torsions:
REMARK  status: ('A' for Active; 'I' for Inactive)
REMARK    1  A    between atoms: C_2  and  C_7
REMARK    2  A    between atoms: N_3  and  C_4
REMARK    3  A    between atoms: C_10  and  C_11
REMARK    4  A    between atoms: C_11  and  N_12
REMARK    5  A    between atoms: N_12  and  C_26
REMARK    6  A    between atoms: C_13  and  C_15
REMARK                            x       y       z     vdW  Elec       q    Type
REMARK                         _______ _______ _______ _____ _____    ______ ____
ROOT
ATOM      1  N   UNL     1      -0.478  11.750  19.994  0.00  0.00    +0.000 N 
ATOM      2  C   UNL     1      -0.546  12.647  18.923  0.00  0.00    +0.000 C 
ATOM      3  O   UNL     1      -1.036  12.322  17.834  0.00  0.00    +0.000 OA
ENDROOT
BRANCH   2   4
ATOM      4  C   UNL     1       0.061  14.045  19.050  0.00  0.00    +0.000 A 
ATOM      5  C   UNL     1      -0.752  15.122  18.968  0.00  0.00    +0.000 A 
ATOM      6  C   UNL     1      -0.143  16.409  18.632  0.00  0.00    +0.000 A 
ATOM      7  C   UNL     1      -0.934  17.489  18.227  0.00  0.00    +0.000 A 
ATOM      8  C   UNL     1      -0.346  18.591  17.589  0.00  0.00    +0.000 A 
ATOM      9  C   UNL     1       1.034  18.630  17.385  0.00  0.00    +0.000 A 
ATOM     10  C   UNL     1       1.838  17.607  17.883  0.00  0.00    +0.000 A 
ATOM     11  C   UNL     1       1.245  16.500  18.506  0.00  0.00    +0.000 A 
ATOM     12  C   UNL     1       2.095  15.388  18.977  0.00  0.00    +0.000 A 
ATOM     13  O   UNL     1       3.290  15.539  19.200  0.00  0.00    +0.000 OA
ATOM     14  O   UNL     1       1.470  14.182  19.093  0.00  0.00    +0.000 OA
ENDBRANCH   2   4
BRANCH   1  15
ATOM     15  C   UNL     1      -0.070  12.118  21.331  0.00  0.00    +0.000 C 
ATOM     16  C   UNL     1      -0.667  11.540  22.591  0.00  0.00    +0.000 C 
ATOM     17  C   UNL     1      -1.014  12.936  22.184  0.00  0.00    +0.000 C 
ENDBRANCH   1  15
BRANCH   1  18
ATOM     18  C   UNL     1      -0.745  10.314  19.734  0.00  0.00    +0.000 C 
BRANCH  18  22
ATOM     19  C   UNL     1       2.324   7.465  18.908  0.00  0.00    +0.000 A 
ATOM     20  C   UNL     1       2.052   8.470  17.969  0.00  0.00    +0.000 A 
ATOM     21  C   UNL     1       1.168   9.506  18.276  0.00  0.00    +0.000 A 
ATOM     22  C   UNL     1       0.539   9.533  19.524  0.00  0.00    +0.000 A 
ATOM     23  C   UNL     1       1.040   8.708  20.535  0.00  0.00    +0.000 A 
ATOM     24  C   UNL     1       1.956   7.695  20.233  0.00  0.00    +0.000 A 
BRANCH  19  26
ATOM     25  O   UNL     1       3.517   6.131  17.370  0.00  0.00    +0.000 OA
ATOM     26  C   UNL     1       2.769   6.147  18.351  0.00  0.00    +0.000 C 
ATOM     27  N   UNL     1       2.263   4.929  18.768  0.00  0.00    +0.000 N 
ATOM     28  H   UNL     1       2.558   4.175  18.154  0.00  0.00    +0.000 HD
BRANCH  27  29
ATOM     29  C   UNL     1       1.617   4.559  19.979  0.00  0.00    +0.000 C 
ATOM     30  C   UNL     1       2.266   3.496  20.831  0.00  0.00    +0.000 C 
ATOM     31  C   UNL     1       0.961   3.220  20.159  0.00  0.00    +0.000 C 
ENDBRANCH  27  29
ENDBRANCH  19  26
ENDBRANCH  18  22
ENDBRANCH   1  18
TORSDOF 6
ENDMDL
MODEL 9
REMARK VINA RESULT:      -8.3      4.112      9.539
REMARK  Name = 
REMARK  6 active torsions:
REMARK  status: ('A' for Active; 'I' for Inactive)
REMARK    1  A    between atoms: C_2  and  C_7
REMARK    2  A    between atoms: N_3  and  C_4
REMARK    3  A    between atoms: C_10  and  C_11
REMARK    4  A    between atoms: C_11  and  N_12
REMARK    5  A    between atoms: N_12  and  C_26
REMARK    6  A    between atoms: C_13  and  C_15
REMARK                            x       y       z     vdW  Elec       q    Type
REMARK                         _______ _______ _______ _____ _____    ______ ____
ROOT
ATOM      1  N   UNL     1      -0.387  11.635  19.920  0.00  0.00    +0.000 N 
ATOM      2  C   UNL     1      -0.479  12.528  18.847  0.00  0.00    +0.000 C 
ATOM      3  O   UNL     1      -0.989  12.196  17.770  0.00  0.00    +0.000 OA
ENDROOT
BRANCH   2   4
ATOM      4  C   UNL     1       0.127  13.927  18.956  0.00  0.00    +0.000 A 
ATOM      5  C   UNL     1      -0.699  14.998  18.987  0.00  0.00    +0.000 A 
ATOM      6  C   UNL     1      -0.136  16.300  18.633  0.00  0.00    +0.000 A 
ATOM      7  C   UNL     1      -0.971  17.384  18.340  0.00  0.00    +0.000 A 
ATOM      8  C   UNL     1      -0.458  18.510  17.681  0.00  0.00    +0.000 A 
ATOM      9  C   UNL     1       0.895  18.570  17.344  0.00  0.00    +0.000 A 
ATOM     10  C   UNL     1       1.752  17.542  17.730  0.00  0.00    +0.000 A 
ATOM     11  C   UNL     1       1.232  16.410  18.375  0.00  0.00    +0.000 A 
ATOM     12  C   UNL     1       2.133  15.295  18.726  0.00  0.00    +0.000 A 
ATOM     13  O   UNL     1       3.342  15.452  18.836  0.00  0.00    +0.000 OA
ATOM     14  O   UNL     1       1.532  14.078  18.866  0.00  0.00    +0.000 OA
ENDBRANCH   2   4
BRANCH   1  15
ATOM     15  C   UNL     1       0.046  12.010  21.248  0.00  0.00    +0.000 C 
ATOM     16  C   UNL     1      -0.400  11.319  22.513  0.00  0.00    +0.000 C 
ATOM     17  C   UNL     1      -0.945  12.670  22.180  0.00  0.00    +0.000 C 
ENDBRANCH   1  15
BRANCH   1  18
ATOM     18  C   UNL     1      -0.654  10.197  19.671  0.00  0.00    +0.000 C 
BRANCH  18  22
ATOM     19  C   UNL     1       2.387   7.381  18.659  0.00  0.00    +0.000 A 
ATOM     20  C   UNL     1       2.045   8.380  17.736  0.00  0.00    +0.000 A 
ATOM     21  C   UNL     1       1.171   9.407  18.097  0.00  0.00    +0.000 A 
ATOM     22  C   UNL     1       0.622   9.430  19.382  0.00  0.00    +0.000 A 
ATOM     23  C   UNL     1       1.196   8.613  20.361  0.00  0.00    +0.000 A 
ATOM     24  C   UNL     1       2.101   7.609  20.003  0.00  0.00    +0.000 A 
BRANCH  19  26
ATOM     25  O   UNL     1       1.991   5.144  18.016  0.00  0.00    +0.000 OA
ATOM     26  C   UNL     1       2.811   6.066  18.077  0.00  0.00    +0.000 C 
ATOM     27  N   UNL     1       4.118   5.758  17.748  0.00  0.00    +0.000 N 
ATOM     28  H   UNL     1       4.225   4.770  17.538  0.00  0.00    +0.000 HD
BRANCH  27  29
ATOM     29  C   UNL     1       5.224   6.603  17.457  0.00  0.00    +0.000 C 
ATOM     30  C   UNL     1       6.247   6.112  16.463  0.00  0.00    +0.000 C 
ATOM     31  C   UNL     1       6.621   6.275  17.900  0.00  0.00    +0.000 C 
ENDBRANCH  27  29
ENDBRANCH  19  26
ENDBRANCH  18  22
ENDBRANCH   1  18
TORSDOF 6
ENDMDL
