MODEL 1
REMARK VINA RESULT:      -8.9      0.000      0.000
REMARK  Name = 
REMARK  6 active torsions:
REMARK  status: ('A' for Active; 'I' for Inactive)
REMARK    1  A    between atoms: C_1  and  C_2
REMARK    2  A    between atoms: C_5  and  C_6
REMARK    3  A    between atoms: N_8  and  C_9
REMARK    4  A    between atoms: C_13  and  N_14
REMARK    5  A    between atoms: C_15  and  C_17
REMARK    6  A    between atoms: C_25  and  C_26
REMARK                            x       y       z     vdW  Elec       q    Type
REMARK                         _______ _______ _______ _____ _____    ______ ____
ROOT
ATOM      1  C   UNL     1       2.238   5.248  20.668  0.00  0.00    +0.000 A 
ATOM      2  C   UNL     1       1.819   4.074  21.298  0.00  0.00    +0.000 A 
ATOM      3  C   UNL     1       2.264   2.840  20.834  0.00  0.00    +0.000 A 
ATOM      4  C   UNL     1       3.152   2.776  19.760  0.00  0.00    +0.000 A 
ATOM      5  C   UNL     1       3.600   3.939  19.127  0.00  0.00    +0.000 A 
ATOM      6  C   UNL     1       3.158   5.181  19.609  0.00  0.00    +0.000 A 
ENDROOT
BRANCH   1   9
ATOM      7  C   UNL     1       1.638   7.619  20.351  0.00  0.00    +0.000 C 
ATOM      8  O   UNL     1       2.169   7.762  19.253  0.00  0.00    +0.000 OA
ATOM      9  N   UNL     1       1.662   6.461  21.114  0.00  0.00    +0.000 N 
ATOM     10  H   UNL     1       0.957   6.386  21.837  0.00  0.00    +0.000 HD
BRANCH   7  15
ATOM     11  C   UNL     1      -1.163  12.030  22.897  0.00  0.00    +0.000 C 
ATOM     12  C   UNL     1      -0.497  10.870  22.214  0.00  0.00    +0.000 A 
ATOM     13  C   UNL     1      -0.325   9.647  22.866  0.00  0.00    +0.000 A 
ATOM     14  C   UNL     1       0.338   8.593  22.229  0.00  0.00    +0.000 A 
ATOM     15  C   UNL     1       0.837   8.744  20.925  0.00  0.00    +0.000 A 
ATOM     16  C   UNL     1       0.641   9.961  20.241  0.00  0.00    +0.000 A 
ATOM     17  C   UNL     1       1.099  10.236  18.834  0.00  0.00    +0.000 C 
ATOM     18  C   UNL     1      -0.021  11.014  20.906  0.00  0.00    +0.000 A 
ENDBRANCH   7  15
ENDBRANCH   1   9
BRANCH   5  19
ATOM     19  N   UNL     1       4.451   3.914  17.993  0.00  0.00    +0.000 N 
ATOM     20  C   UNL     1       4.562   4.931  17.056  0.00  0.00    +0.000 C 
ATOM     21  O   UNL     1       3.898   5.967  17.056  0.00  0.00    +0.000 OA
ATOM     22  H   UNL     1       5.146   3.177  17.970  0.00  0.00    +0.000 HD
BRANCH  20  23
ATOM     23  C   UNL     1       5.574   4.801  15.965  0.00  0.00    +0.000 A 
ATOM     24  C   UNL     1       5.174   4.008  14.869  0.00  0.00    +0.000 A 
ATOM     25  C   UNL     1       5.964   3.887  13.724  0.00  0.00    +0.000 A 
ATOM     26  C   UNL     1       7.176   4.565  13.657  0.00  0.00    +0.000 A 
ATOM     27  C   UNL     1       7.597   5.342  14.739  0.00  0.00    +0.000 A 
ATOM     28  C   UNL     1       6.808   5.458  15.897  0.00  0.00    +0.000 A 
ATOM     29 CL   UNL     1       7.437   6.465  17.150  0.00  0.00    +0.000 Cl
ENDBRANCH  20  23
ENDBRANCH   5  19
TORSDOF 4
ENDMDL
MODEL 2
REMARK VINA RESULT:      -8.8      4.601      9.860
REMARK  Name = 
REMARK  6 active torsions:
REMARK  status: ('A' for Active; 'I' for Inactive)
REMARK    1  A    between atoms: C_1  and  C_2
REMARK    2  A    between atoms: C_5  and  C_6
REMARK    3  A    between atoms: N_8  and  C_9
REMARK    4  A    between atoms: C_13  and  N_14
REMARK    5  A    between atoms: C_15  and  C_17
REMARK    6  A    between atoms: C_25  and  C_26
REMARK                            x       y       z     vdW  Elec       q    Type
REMARK                         _______ _______ _______ _____ _____    ______ ____
ROOT
ATOM      1  C   UNL     1       1.143   9.779  18.537  0.00  0.00    +0.000 A 
ATOM      2  C   UNL     1       2.024  10.842  18.330  0.00  0.00    +0.000 A 
ATOM      3  C   UNL     1       1.564  12.153  18.415  0.00  0.00    +0.000 A 
ATOM      4  C   UNL     1       0.231  12.405  18.738  0.00  0.00    +0.000 A 
ATOM      5  C   UNL     1      -0.664  11.357  18.969  0.00  0.00    +0.000 A 
ATOM      6  C   UNL     1      -0.190  10.038  18.894  0.00  0.00    +0.000 A 
ENDROOT
BRANCH   1   9
ATOM      7  C   UNL     1       2.054   7.637  19.352  0.00  0.00    +0.000 C 
ATOM      8  O   UNL     1       2.108   7.941  20.541  0.00  0.00    +0.000 OA
ATOM      9  N   UNL     1       1.645   8.473  18.324  0.00  0.00    +0.000 N 
ATOM     10  H   UNL     1       1.373   8.021  17.460  0.00  0.00    +0.000 HD
BRANCH   7  15
ATOM     11  C   UNL     1       2.959   2.175  17.585  0.00  0.00    +0.000 C 
ATOM     12  C   UNL     1       2.772   3.577  18.087  0.00  0.00    +0.000 A 
ATOM     13  C   UNL     1       1.830   3.873  19.075  0.00  0.00    +0.000 A 
ATOM     14  C   UNL     1       1.640   5.193  19.498  0.00  0.00    +0.000 A 
ATOM     15  C   UNL     1       2.392   6.240  18.941  0.00  0.00    +0.000 A 
ATOM     16  C   UNL     1       3.371   5.952  17.967  0.00  0.00    +0.000 A 
ATOM     17  C   UNL     1       4.260   6.978  17.319  0.00  0.00    +0.000 C 
ATOM     18  C   UNL     1       3.539   4.616  17.548  0.00  0.00    +0.000 A 
ENDBRANCH   7  15
ENDBRANCH   1   9
BRANCH   5  19
ATOM     19  N   UNL     1      -2.041  11.570  19.235  0.00  0.00    +0.000 N 
ATOM     20  C   UNL     1      -3.041  11.626  18.275  0.00  0.00    +0.000 C 
ATOM     21  O   UNL     1      -2.858  11.550  17.061  0.00  0.00    +0.000 OA
ATOM     22  H   UNL     1      -2.325  11.501  20.205  0.00  0.00    +0.000 HD
BRANCH  20  23
ATOM     23  C   UNL     1      -4.461  11.760  18.719  0.00  0.00    +0.000 A 
ATOM     24  C   UNL     1      -5.372  10.896  18.076  0.00  0.00    +0.000 A 
ATOM     25  C   UNL     1      -6.712  10.823  18.463  0.00  0.00    +0.000 A 
ATOM     26  C   UNL     1      -7.163  11.618  19.510  0.00  0.00    +0.000 A 
ATOM     27  C   UNL     1      -6.279  12.492  20.149  0.00  0.00    +0.000 A 
ATOM     28  C   UNL     1      -4.933  12.574  19.755  0.00  0.00    +0.000 A 
ATOM     29 CL   UNL     1      -3.945  13.679  20.641  0.00  0.00    +0.000 Cl
ENDBRANCH  20  23
ENDBRANCH   5  19
TORSDOF 4
ENDMDL
MODEL 3
REMARK VINA RESULT:      -8.8      1.940      8.685
REMARK  Name = 
REMARK  6 active torsions:
REMARK  status: ('A' for Active; 'I' for Inactive)
REMARK    1  A    between atoms: C_1  and  C_2
REMARK    2  A    between atoms: C_5  and  C_6
REMARK    3  A    between atoms: N_8  and  C_9
REMARK    4  A    between atoms: C_13  and  N_14
REMARK    5  A    between atoms: C_15  and  C_17
REMARK    6  A    between atoms: C_25  and  C_26
REMARK                            x       y       z     vdW  Elec       q    Type
REMARK                         _______ _______ _______ _____ _____    ______ ____
ROOT
ATOM      1  C   UNL     1       3.167   4.591  18.808  0.00  0.00    +0.000 A 
ATOM      2  C   UNL     1       3.189   3.369  19.483  0.00  0.00    +0.000 A 
ATOM      3  C   UNL     1       2.510   3.229  20.689  0.00  0.00    +0.000 A 
ATOM      4  C   UNL     1       1.781   4.299  21.209  0.00  0.00    +0.000 A 
ATOM      5  C   UNL     1       1.729   5.525  20.541  0.00  0.00    +0.000 A 
ATOM      6  C   UNL     1       2.405   5.655  19.318  0.00  0.00    +0.000 A 
ENDROOT
BRANCH   1   9
ATOM      7  C   UNL     1       5.339   4.487  17.644  0.00  0.00    +0.000 C 
ATOM      8  O   UNL     1       6.027   4.255  18.635  0.00  0.00    +0.000 OA
ATOM      9  N   UNL     1       3.969   4.703  17.648  0.00  0.00    +0.000 N 
ATOM     10  H   UNL     1       3.496   4.591  16.760  0.00  0.00    +0.000 HD
BRANCH   7  15
ATOM     11  C   UNL     1       7.431   4.556  12.223  0.00  0.00    +0.000 C 
ATOM     12  C   UNL     1       6.942   4.501  13.641  0.00  0.00    +0.000 A 
ATOM     13  C   UNL     1       6.058   3.507  14.065  0.00  0.00    +0.000 A 
ATOM     14  C   UNL     1       5.580   3.499  15.379  0.00  0.00    +0.000 A 
ATOM     15  C   UNL     1       5.981   4.486  16.295  0.00  0.00    +0.000 A 
ATOM     16  C   UNL     1       6.899   5.477  15.891  0.00  0.00    +0.000 A 
ATOM     17  C   UNL     1       7.428   6.567  16.783  0.00  0.00    +0.000 C 
ATOM     18  C   UNL     1       7.361   5.472  14.558  0.00  0.00    +0.000 A 
ENDBRANCH   7  15
ENDBRANCH   1   9
BRANCH   5  19
ATOM     19  N   UNL     1       1.054   6.656  21.068  0.00  0.00    +0.000 N 
ATOM     20  C   UNL     1       1.226   7.962  20.634  0.00  0.00    +0.000 C 
ATOM     21  O   UNL     1       2.026   8.319  19.770  0.00  0.00    +0.000 OA
ATOM     22  H   UNL     1       0.270   6.464  21.680  0.00  0.00    +0.000 HD
BRANCH  20  23
ATOM     23  C   UNL     1       0.371   9.037  21.221  0.00  0.00    +0.000 A 
ATOM     24  C   UNL     1       0.258   9.009  22.627  0.00  0.00    +0.000 A 
ATOM     25  C   UNL     1      -0.411  10.014  23.330  0.00  0.00    +0.000 A 
ATOM     26  C   UNL     1      -0.979  11.072  22.630  0.00  0.00    +0.000 A 
ATOM     27  C   UNL     1      -0.891  11.109  21.236  0.00  0.00    +0.000 A 
ATOM     28  C   UNL     1      -0.227  10.094  20.526  0.00  0.00    +0.000 A 
ATOM     29 CL   UNL     1      -0.174  10.273  18.809  0.00  0.00    +0.000 Cl
ENDBRANCH  20  23
ENDBRANCH   5  19
TORSDOF 4
ENDMDL
MODEL 4
REMARK VINA RESULT:      -8.6      1.232      2.008
REMARK  Name = 
REMARK  6 active torsions:
REMARK  status: ('A' for Active; 'I' for Inactive)
REMARK    1  A    between atoms: C_1  and  C_2
REMARK    2  A    between atoms: C_5  and  C_6
REMARK    3  A    between atoms: N_8  and  C_9
REMARK    4  A    between atoms: C_13  and  N_14
REMARK    5  A    between atoms: C_15  and  C_17
REMARK    6  A    between atoms: C_25  and  C_26
REMARK                            x       y       z     vdW  Elec       q    Type
REMARK                         _______ _______ _______ _____ _____    ______ ____
ROOT
ATOM      1  C   UNL     1       1.842   6.943  20.413  0.00  0.00    +0.000 A 
ATOM      2  C   UNL     1       1.192   5.816  20.923  0.00  0.00    +0.000 A 
ATOM      3  C   UNL     1       1.413   4.568  20.350  0.00  0.00    +0.000 A 
ATOM      4  C   UNL     1       2.306   4.435  19.286  0.00  0.00    +0.000 A 
ATOM      5  C   UNL     1       2.982   5.545  18.772  0.00  0.00    +0.000 A 
ATOM      6  C   UNL     1       2.765   6.799  19.364  0.00  0.00    +0.000 A 
ENDROOT
BRANCH   1   9
ATOM      7  C   UNL     1       1.012   9.256  20.205  0.00  0.00    +0.000 C 
ATOM      8  O   UNL     1       0.914   9.269  18.981  0.00  0.00    +0.000 OA
ATOM      9  N   UNL     1       1.488   8.197  20.964  0.00  0.00    +0.000 N 
ATOM     10  H   UNL     1       1.246   8.205  21.947  0.00  0.00    +0.000 HD
BRANCH   7  15
ATOM     11  C   UNL     1      -1.081  13.964  22.893  0.00  0.00    +0.000 C 
ATOM     12  C   UNL     1      -0.488  12.750  22.239  0.00  0.00    +0.000 A 
ATOM     13  C   UNL     1       0.346  12.861  21.125  0.00  0.00    +0.000 A 
ATOM     14  C   UNL     1       0.852  11.716  20.503  0.00  0.00    +0.000 A 
ATOM     15  C   UNL     1       0.535  10.436  20.988  0.00  0.00    +0.000 A 
ATOM     16  C   UNL     1      -0.278  10.309  22.133  0.00  0.00    +0.000 A 
ATOM     17  C   UNL     1      -0.663   9.000  22.768  0.00  0.00    +0.000 C 
ATOM     18  C   UNL     1      -0.786  11.477  22.739  0.00  0.00    +0.000 A 
ENDBRANCH   7  15
ENDBRANCH   1   9
BRANCH   5  19
ATOM     19  N   UNL     1       3.848   5.464  17.651  0.00  0.00    +0.000 N 
ATOM     20  C   UNL     1       5.049   4.772  17.619  0.00  0.00    +0.000 C 
ATOM     21  O   UNL     1       5.550   4.181  18.575  0.00  0.00    +0.000 OA
ATOM     22  H   UNL     1       3.470   5.790  16.770  0.00  0.00    +0.000 HD
BRANCH  20  23
ATOM     23  C   UNL     1       5.806   4.699  16.333  0.00  0.00    +0.000 A 
ATOM     24  C   UNL     1       5.293   3.784  15.389  0.00  0.00    +0.000 A 
ATOM     25  C   UNL     1       5.821   3.685  14.100  0.00  0.00    +0.000 A 
ATOM     26  C   UNL     1       6.877   4.511  13.732  0.00  0.00    +0.000 A 
ATOM     27  C   UNL     1       7.409   5.412  14.658  0.00  0.00    +0.000 A 
ATOM     28  C   UNL     1       6.886   5.506  15.959  0.00  0.00    +0.000 A 
ATOM     29 CL   UNL     1       7.622   6.675  16.994  0.00  0.00    +0.000 Cl
ENDBRANCH  20  23
ENDBRANCH   5  19
TORSDOF 4
ENDMDL
MODEL 5
REMARK VINA RESULT:      -8.6      6.552      8.758
REMARK  Name = 
REMARK  6 active torsions:
REMARK  status: ('A' for Active; 'I' for Inactive)
REMARK    1  A    between atoms: C_1  and  C_2
REMARK    2  A    between atoms: C_5  and  C_6
REMARK    3  A    between atoms: N_8  and  C_9
REMARK    4  A    between atoms: C_13  and  N_14
REMARK    5  A    between atoms: C_15  and  C_17
REMARK    6  A    between atoms: C_25  and  C_26
REMARK                            x       y       z     vdW  Elec       q    Type
REMARK                         _______ _______ _______ _____ _____    ______ ____
ROOT
ATOM      1  C   UNL     1       3.285  14.399  18.260  0.00  0.00    +0.000 A 
ATOM      2  C   UNL     1       2.999  15.591  18.928  0.00  0.00    +0.000 A 
ATOM      3  C   UNL     1       4.019  16.497  19.200  0.00  0.00    +0.000 A 
ATOM      4  C   UNL     1       5.322  16.230  18.778  0.00  0.00    +0.000 A 
ATOM      5  C   UNL     1       5.628  15.052  18.091  0.00  0.00    +0.000 A 
ATOM      6  C   UNL     1       4.591  14.149  17.808  0.00  0.00    +0.000 A 
ENDROOT
BRANCH   1   9
ATOM      7  C   UNL     1       1.706  12.737  19.172  0.00  0.00    +0.000 C 
ATOM      8  O   UNL     1       2.137  12.740  20.322  0.00  0.00    +0.000 OA
ATOM      9  N   UNL     1       2.227  13.470  18.116  0.00  0.00    +0.000 N 
ATOM     10  H   UNL     1       1.618  13.602  17.318  0.00  0.00    +0.000 HD
BRANCH   7  15
ATOM     11  C   UNL     1      -3.129   9.921  17.603  0.00  0.00    +0.000 C 
ATOM     12  C   UNL     1      -1.887  10.623  18.068  0.00  0.00    +0.000 A 
ATOM     13  C   UNL     1      -1.938  11.915  18.594  0.00  0.00    +0.000 A 
ATOM     14  C   UNL     1      -0.764  12.569  18.981  0.00  0.00    +0.000 A 
ATOM     15  C   UNL     1       0.485  11.938  18.852  0.00  0.00    +0.000 A 
ATOM     16  C   UNL     1       0.549  10.620  18.355  0.00  0.00    +0.000 A 
ATOM     17  C   UNL     1       1.818   9.827  18.197  0.00  0.00    +0.000 C 
ATOM     18  C   UNL     1      -0.646   9.984  17.960  0.00  0.00    +0.000 A 
ENDBRANCH   7  15
ENDBRANCH   1   9
BRANCH   5  19
ATOM     19  N   UNL     1       6.949  14.712  17.702  0.00  0.00    +0.000 N 
ATOM     20  C   UNL     1       7.954  14.301  18.565  0.00  0.00    +0.000 C 
ATOM     21  O   UNL     1       7.848  14.228  19.788  0.00  0.00    +0.000 OA
ATOM     22  H   UNL     1       7.107  14.597  16.708  0.00  0.00    +0.000 HD
BRANCH  20  23
ATOM     23  C   UNL     1       9.270  13.884  17.994  0.00  0.00    +0.000 A 
ATOM     24  C   UNL     1      10.150  14.942  17.683  0.00  0.00    +0.000 A 
ATOM     25  C   UNL     1      11.456  14.707  17.250  0.00  0.00    +0.000 A 
ATOM     26  C   UNL     1      11.908  13.398  17.125  0.00  0.00    +0.000 A 
ATOM     27  C   UNL     1      11.046  12.336  17.413  0.00  0.00    +0.000 A 
ATOM     28  C   UNL     1       9.727  12.570  17.839  0.00  0.00    +0.000 A 
ATOM     29 CL   UNL     1       8.777  11.170  18.181  0.00  0.00    +0.000 Cl
ENDBRANCH  20  23
ENDBRANCH   5  19
TORSDOF 4
ENDMDL
MODEL 6
REMARK VINA RESULT:      -8.6      2.364      8.971
REMARK  Name = 
REMARK  6 active torsions:
REMARK  status: ('A' for Active; 'I' for Inactive)
REMARK    1  A    between atoms: C_1  and  C_2
REMARK    2  A    between atoms: C_5  and  C_6
REMARK    3  A    between atoms: N_8  and  C_9
REMARK    4  A    between atoms: C_13  and  N_14
REMARK    5  A    between atoms: C_15  and  C_17
REMARK    6  A    between atoms: C_25  and  C_26
REMARK                            x       y       z     vdW  Elec       q    Type
REMARK                         _______ _______ _______ _____ _____    ______ ____
ROOT
ATOM      1  C   UNL     1       2.686   6.456  18.999  0.00  0.00    +0.000 A 
ATOM      2  C   UNL     1       2.185   5.350  19.689  0.00  0.00    +0.000 A 
ATOM      3  C   UNL     1       1.374   5.535  20.804  0.00  0.00    +0.000 A 
ATOM      4  C   UNL     1       1.035   6.825  21.214  0.00  0.00    +0.000 A 
ATOM      5  C   UNL     1       1.508   7.946  20.527  0.00  0.00    +0.000 A 
ATOM      6  C   UNL     1       2.315   7.751  19.396  0.00  0.00    +0.000 A 
ENDROOT
BRANCH   1   9
ATOM      7  C   UNL     1       4.761   5.467  18.104  0.00  0.00    +0.000 C 
ATOM      8  O   UNL     1       5.183   5.021  19.168  0.00  0.00    +0.000 OA
ATOM      9  N   UNL     1       3.596   6.202  17.945  0.00  0.00    +0.000 N 
ATOM     10  H   UNL     1       3.222   6.251  17.005  0.00  0.00    +0.000 HD
BRANCH   7  15
ATOM     11  C   UNL     1       7.289   4.448  12.972  0.00  0.00    +0.000 C 
ATOM     12  C   UNL     1       6.675   4.664  14.324  0.00  0.00    +0.000 A 
ATOM     13  C   UNL     1       5.527   3.973  14.717  0.00  0.00    +0.000 A 
ATOM     14  C   UNL     1       4.943   4.222  15.964  0.00  0.00    +0.000 A 
ATOM     15  C   UNL     1       5.502   5.165  16.842  0.00  0.00    +0.000 A 
ATOM     16  C   UNL     1       6.680   5.846  16.473  0.00  0.00    +0.000 A 
ATOM     17  C   UNL     1       7.391   6.854  17.335  0.00  0.00    +0.000 C 
ATOM     18  C   UNL     1       7.246   5.587  15.207  0.00  0.00    +0.000 A 
ENDBRANCH   7  15
ENDBRANCH   1   9
BRANCH   5  19
ATOM     19  N   UNL     1       1.241   9.274  20.950  0.00  0.00    +0.000 N 
ATOM     20  C   UNL     1       0.264  10.100  20.415  0.00  0.00    +0.000 C 
ATOM     21  O   UNL     1      -0.465   9.810  19.467  0.00  0.00    +0.000 OA
ATOM     22  H   UNL     1       1.680   9.565  21.815  0.00  0.00    +0.000 HD
BRANCH  20  23
ATOM     23  C   UNL     1       0.037  11.442  21.031  0.00  0.00    +0.000 A 
ATOM     24  C   UNL     1      -0.904  11.466  22.081  0.00  0.00    +0.000 A 
ATOM     25  C   UNL     1      -1.139  12.621  22.831  0.00  0.00    +0.000 A 
ATOM     26  C   UNL     1      -0.426  13.778  22.539  0.00  0.00    +0.000 A 
ATOM     27  C   UNL     1       0.499  13.779  21.492  0.00  0.00    +0.000 A 
ATOM     28  C   UNL     1       0.730  12.621  20.730  0.00  0.00    +0.000 A 
ATOM     29 CL   UNL     1       1.913  12.753  19.480  0.00  0.00    +0.000 Cl
ENDBRANCH  20  23
ENDBRANCH   5  19
TORSDOF 4
ENDMDL
MODEL 7
REMARK VINA RESULT:      -8.6      2.432      8.942
REMARK  Name = 
REMARK  6 active torsions:
REMARK  status: ('A' for Active; 'I' for Inactive)
REMARK    1  A    between atoms: C_1  and  C_2
REMARK    2  A    between atoms: C_5  and  C_6
REMARK    3  A    between atoms: N_8  and  C_9
REMARK    4  A    between atoms: C_13  and  N_14
REMARK    5  A    between atoms: C_15  and  C_17
REMARK    6  A    between atoms: C_25  and  C_26
REMARK                            x       y       z     vdW  Elec       q    Type
REMARK                         _______ _______ _______ _____ _____    ______ ____
ROOT
ATOM      1  C   UNL     1       2.938   5.882  18.661  0.00  0.00    +0.000 A 
ATOM      2  C   UNL     1       2.460   4.708  19.247  0.00  0.00    +0.000 A 
ATOM      3  C   UNL     1       1.641   4.775  20.370  0.00  0.00    +0.000 A 
ATOM      4  C   UNL     1       1.271   6.015  20.892  0.00  0.00    +0.000 A 
ATOM      5  C   UNL     1       1.721   7.203  20.310  0.00  0.00    +0.000 A 
ATOM      6  C   UNL     1       2.536   7.128  19.170  0.00  0.00    +0.000 A 
ENDROOT
BRANCH   1   9
ATOM      7  C   UNL     1       4.881   4.809  17.586  0.00  0.00    +0.000 C 
ATOM      8  O   UNL     1       5.166   4.056  18.514  0.00  0.00    +0.000 OA
ATOM      9  N   UNL     1       3.856   5.743  17.594  0.00  0.00    +0.000 N 
ATOM     10  H   UNL     1       3.550   6.079  16.689  0.00  0.00    +0.000 HD
BRANCH   7  15
ATOM     11  C   UNL     1       7.463   4.557  12.386  0.00  0.00    +0.000 C 
ATOM     12  C   UNL     1       6.837   4.574  13.750  0.00  0.00    +0.000 A 
ATOM     13  C   UNL     1       5.729   3.778  14.049  0.00  0.00    +0.000 A 
ATOM     14  C   UNL     1       5.133   3.843  15.313  0.00  0.00    +0.000 A 
ATOM     15  C   UNL     1       5.638   4.703  16.302  0.00  0.00    +0.000 A 
ATOM     16  C   UNL     1       6.776   5.487  16.025  0.00  0.00    +0.000 A 
ATOM     17  C   UNL     1       7.430   6.422  17.007  0.00  0.00    +0.000 C 
ATOM     18  C   UNL     1       7.355   5.415  14.741  0.00  0.00    +0.000 A 
ENDBRANCH   7  15
ENDBRANCH   1   9
BRANCH   5  19
ATOM     19  N   UNL     1       1.423   8.481  20.847  0.00  0.00    +0.000 N 
ATOM     20  C   UNL     1       0.810   9.516  20.155  0.00  0.00    +0.000 C 
ATOM     21  O   UNL     1       0.492   9.479  18.968  0.00  0.00    +0.000 OA
ATOM     22  H   UNL     1       1.508   8.575  21.853  0.00  0.00    +0.000 HD
BRANCH  20  23
ATOM     23  C   UNL     1       0.473  10.774  20.886  0.00  0.00    +0.000 A 
ATOM     24  C   UNL     1       0.861  11.965  20.238  0.00  0.00    +0.000 A 
ATOM     25  C   UNL     1       0.514  13.221  20.740  0.00  0.00    +0.000 A 
ATOM     26  C   UNL     1      -0.236  13.304  21.907  0.00  0.00    +0.000 A 
ATOM     27  C   UNL     1      -0.616  12.136  22.573  0.00  0.00    +0.000 A 
ATOM     28  C   UNL     1      -0.260  10.871  22.075  0.00  0.00    +0.000 A 
ATOM     29 CL   UNL     1      -0.812   9.511  22.983  0.00  0.00    +0.000 Cl
ENDBRANCH  20  23
ENDBRANCH   5  19
TORSDOF 4
ENDMDL
MODEL 8
REMARK VINA RESULT:      -8.5      2.970      5.328
REMARK  Name = 
REMARK  6 active torsions:
REMARK  status: ('A' for Active; 'I' for Inactive)
REMARK    1  A    between atoms: C_1  and  C_2
REMARK    2  A    between atoms: C_5  and  C_6
REMARK    3  A    between atoms: N_8  and  C_9
REMARK    4  A    between atoms: C_13  and  N_14
REMARK    5  A    between atoms: C_15  and  C_17
REMARK    6  A    between atoms: C_25  and  C_26
REMARK                            x       y       z     vdW  Elec       q    Type
REMARK                         _______ _______ _______ _____ _____    ______ ____
ROOT
ATOM      1  C   UNL     1       0.315   9.995  19.680  0.00  0.00    +0.000 A 
ATOM      2  C   UNL     1       0.898  10.632  18.583  0.00  0.00    +0.000 A 
ATOM      3  C   UNL     1       1.956  10.028  17.910  0.00  0.00    +0.000 A 
ATOM      4  C   UNL     1       2.414   8.773  18.312  0.00  0.00    +0.000 A 
ATOM      5  C   UNL     1       1.833   8.108  19.395  0.00  0.00    +0.000 A 
ATOM      6  C   UNL     1       0.757   8.717  20.061  0.00  0.00    +0.000 A 
ENDROOT
BRANCH   1   9
ATOM      7  C   UNL     1      -0.393  11.581  21.432  0.00  0.00    +0.000 C 
ATOM      8  O   UNL     1       0.720  11.776  21.914  0.00  0.00    +0.000 OA
ATOM      9  N   UNL     1      -0.678  10.711  20.390  0.00  0.00    +0.000 N 
ATOM     10  H   UNL     1      -1.556  10.861  19.908  0.00  0.00    +0.000 HD
BRANCH   7  15
ATOM     11  C   UNL     1      -4.694  14.695  23.792  0.00  0.00    +0.000 C 
ATOM     12  C   UNL     1      -3.628  13.863  23.143  0.00  0.00    +0.000 A 
ATOM     13  C   UNL     1      -3.268  12.615  23.657  0.00  0.00    +0.000 A 
ATOM     14  C   UNL     1      -2.241  11.875  23.064  0.00  0.00    +0.000 A 
ATOM     15  C   UNL     1      -1.556  12.368  21.941  0.00  0.00    +0.000 A 
ATOM     16  C   UNL     1      -1.931  13.611  21.389  0.00  0.00    +0.000 A 
ATOM     17  C   UNL     1      -1.299  14.232  20.174  0.00  0.00    +0.000 C 
ATOM     18  C   UNL     1      -2.963  14.346  22.010  0.00  0.00    +0.000 A 
ENDBRANCH   7  15
ENDBRANCH   1   9
BRANCH   5  19
ATOM     19  N   UNL     1       2.310   6.862  19.876  0.00  0.00    +0.000 N 
ATOM     20  C   UNL     1       2.336   5.682  19.148  0.00  0.00    +0.000 C 
ATOM     21  O   UNL     1       1.899   5.548  18.005  0.00  0.00    +0.000 OA
ATOM     22  H   UNL     1       2.824   6.886  20.749  0.00  0.00    +0.000 HD
BRANCH  20  23
ATOM     23  C   UNL     1       2.959   4.470  19.759  0.00  0.00    +0.000 A 
ATOM     24  C   UNL     1       2.266   3.934  20.865  0.00  0.00    +0.000 A 
ATOM     25  C   UNL     1       2.660   2.739  21.469  0.00  0.00    +0.000 A 
ATOM     26  C   UNL     1       3.762   2.054  20.969  0.00  0.00    +0.000 A 
ATOM     27  C   UNL     1       4.471   2.576  19.885  0.00  0.00    +0.000 A 
ATOM     28  C   UNL     1       4.082   3.784  19.281  0.00  0.00    +0.000 A 
ATOM     29 CL   UNL     1       5.032   4.306  17.937  0.00  0.00    +0.000 Cl
ENDBRANCH  20  23
ENDBRANCH   5  19
TORSDOF 4
ENDMDL
MODEL 9
REMARK VINA RESULT:      -8.5      3.901      5.671
REMARK  Name = 
REMARK  6 active torsions:
REMARK  status: ('A' for Active; 'I' for Inactive)
REMARK    1  A    between atoms: C_1  and  C_2
REMARK    2  A    between atoms: C_5  and  C_6
REMARK    3  A    between atoms: N_8  and  C_9
REMARK    4  A    between atoms: C_13  and  N_14
REMARK    5  A    between atoms: C_15  and  C_17
REMARK    6  A    between atoms: C_25  and  C_26
REMARK                            x       y       z     vdW  Elec       q    Type
REMARK                         _______ _______ _______ _____ _____    ______ ____
ROOT
ATOM      1  C   UNL     1       0.622  10.855  20.404  0.00  0.00    +0.000 A 
ATOM      2  C   UNL     1      -0.151  10.564  21.530  0.00  0.00    +0.000 A 
ATOM      3  C   UNL     1      -0.164   9.274  22.050  0.00  0.00    +0.000 A 
ATOM      4  C   UNL     1       0.619   8.278  21.466  0.00  0.00    +0.000 A 
ATOM      5  C   UNL     1       1.415   8.550  20.350  0.00  0.00    +0.000 A 
ATOM      6  C   UNL     1       1.433   9.857  19.839  0.00  0.00    +0.000 A 
ENDROOT
BRANCH   1   9
ATOM      7  C   UNL     1       1.124  13.269  20.399  0.00  0.00    +0.000 C 
ATOM      8  O   UNL     1       1.773  13.288  21.441  0.00  0.00    +0.000 OA
ATOM      9  N   UNL     1       0.503  12.154  19.856  0.00  0.00    +0.000 N 
ATOM     10  H   UNL     1       0.261  12.209  18.875  0.00  0.00    +0.000 HD
BRANCH   7  15
ATOM     11  C   UNL     1       0.611  18.340  17.605  0.00  0.00    +0.000 C 
ATOM     12  C   UNL     1       0.729  16.999  18.270  0.00  0.00    +0.000 A 
ATOM     13  C   UNL     1      -0.367  16.401  18.895  0.00  0.00    +0.000 A 
ATOM     14  C   UNL     1      -0.226  15.173  19.548  0.00  0.00    +0.000 A 
ATOM     15  C   UNL     1       1.017  14.518  19.584  0.00  0.00    +0.000 A 
ATOM     16  C   UNL     1       2.124  15.092  18.928  0.00  0.00    +0.000 A 
ATOM     17  C   UNL     1       3.496  14.477  18.867  0.00  0.00    +0.000 C 
ATOM     18  C   UNL     1       1.962  16.337  18.284  0.00  0.00    +0.000 A 
ENDBRANCH   7  15
ENDBRANCH   1   9
BRANCH   5  19
ATOM     19  N   UNL     1       2.174   7.551  19.688  0.00  0.00    +0.000 N 
ATOM     20  C   UNL     1       2.388   7.487  18.320  0.00  0.00    +0.000 C 
ATOM     21  O   UNL     1       1.904   8.259  17.493  0.00  0.00    +0.000 OA
ATOM     22  H   UNL     1       2.736   6.950  20.280  0.00  0.00    +0.000 HD
BRANCH  20  23
ATOM     23  C   UNL     1       3.292   6.428  17.779  0.00  0.00    +0.000 A 
ATOM     24  C   UNL     1       4.565   6.879  17.373  0.00  0.00    +0.000 A 
ATOM     25  C   UNL     1       5.559   5.991  16.955  0.00  0.00    +0.000 A 
ATOM     26  C   UNL     1       5.292   4.627  16.939  0.00  0.00    +0.000 A 
ATOM     27  C   UNL     1       4.031   4.163  17.322  0.00  0.00    +0.000 A 
ATOM     28  C   UNL     1       3.026   5.054  17.734  0.00  0.00    +0.000 A 
ATOM     29 CL   UNL     1       1.522   4.346  18.200  0.00  0.00    +0.000 Cl
ENDBRANCH  20  23
ENDBRANCH   5  19
TORSDOF 4
ENDMDL
