MODEL 1
REMARK VINA RESULT:      -8.3      0.000      0.000
REMARK  Name = 
REMARK  6 active torsions:
REMARK  status: ('A' for Active; 'I' for Inactive)
REMARK    1  A    between atoms: C_1  and  N_2
REMARK    2  A    between atoms: C_6  and  C_7
REMARK    3  A    between atoms: C_7  and  C_8
REMARK    4  A    between atoms: C_8  and  C_9
REMARK    5  A    between atoms: C_13  and  N_14
REMARK    6  A    between atoms: C_19  and  C_20
REMARK                            x       y       z     vdW  Elec       q    Type
REMARK                         _______ _______ _______ _____ _____    ______ ____
ROOT
ATOM      1  C   UNL     1       1.739   7.218  20.389  0.00  0.00    +0.000 A 
ATOM      2  C   UNL     1       1.411   6.019  21.056  0.00  0.00    +0.000 A 
ATOM      3  C   UNL     1       2.125   4.842  20.844  0.00  0.00    +0.000 A 
ATOM      4  C   UNL     1       3.102   4.795  19.861  0.00  0.00    +0.000 A 
ATOM      5  C   UNL     1       3.234   5.876  18.980  0.00  0.00    +0.000 A 
ATOM      6  C   UNL     1       2.675   7.108  19.339  0.00  0.00    +0.000 A 
ENDROOT
BRANCH   5   7
ATOM      7  N   UNL     1       3.488   5.628  17.558  0.00  0.00    +0.000 N 
ATOM      8  C   UNL     1       4.389   4.450  17.421  0.00  0.00    +0.000 C 
ATOM      9  C   UNL     1       5.740   5.100  17.521  0.00  0.00    +0.000 A 
ATOM     10  C   UNL     1       6.803   4.748  18.332  0.00  0.00    +0.000 A 
ATOM     11  C   UNL     1       7.751   5.738  18.632  0.00  0.00    +0.000 A 
ATOM     12  C   UNL     1       7.646   7.048  18.101  0.00  0.00    +0.000 A 
ATOM     13  C   UNL     1       6.572   7.371  17.257  0.00  0.00    +0.000 A 
ATOM     14  C   UNL     1       5.624   6.393  17.019  0.00  0.00    +0.000 A 
ATOM     15  C   UNL     1       4.170   6.670  16.870  0.00  0.00    +0.000 C 
ATOM     16  O   UNL     1       3.710   7.717  16.441  0.00  0.00    +0.000 OA
BRANCH  12  17
ATOM     17  C   UNL     1       8.503   8.155  18.552  0.00  0.00    +0.000 C 
ATOM     18  C   UNL     1       8.413   9.421  18.156  0.00  0.00    +0.000 C 
ATOM     19  F   UNL     1       9.267  10.352  18.623  0.00  0.00    +0.000 F 
ENDBRANCH  12  17
ENDBRANCH   5   7
BRANCH   1  20
ATOM     20  C   UNL     1       1.108   8.626  20.817  0.00  0.00    +0.000 C 
ATOM     21  C   UNL     1      -0.327   8.544  21.416  0.00  0.00    +0.000 C 
ATOM     22  O   UNL     1       0.084   9.207  22.629  0.00  0.00    +0.000 OA
ATOM     23  C   UNL     1       1.470   9.124  22.239  0.00  0.00    +0.000 C 
BRANCH  20  24
ATOM     24  C   UNL     1       1.148   9.708  19.721  0.00  0.00    +0.000 C 
BRANCH  24  30
ATOM     25  C   UNL     1      -0.012  12.351  21.073  0.00  0.00    +0.000 C 
ATOM     26  N   UNL     1      -0.605  11.563  20.028  0.00  0.00    +0.000 N 
ATOM     27  C   UNL     1      -1.837  11.795  19.490  0.00  0.00    +0.000 A 
ATOM     28  N   UNL     1      -2.108  10.869  18.601  0.00  0.00    +0.000 NA
ATOM     29  N   UNL     1      -1.043   9.999  18.568  0.00  0.00    +0.000 NA
ATOM     30  C   UNL     1      -0.121  10.436  19.410  0.00  0.00    +0.000 A 
ENDBRANCH  24  30
ENDBRANCH  20  24
ENDBRANCH   1  20
TORSDOF 5
ENDMDL
MODEL 2
REMARK VINA RESULT:      -8.3      1.162      1.367
REMARK  Name = 
REMARK  6 active torsions:
REMARK  status: ('A' for Active; 'I' for Inactive)
REMARK    1  A    between atoms: C_1  and  N_2
REMARK    2  A    between atoms: C_6  and  C_7
REMARK    3  A    between atoms: C_7  and  C_8
REMARK    4  A    between atoms: C_8  and  C_9
REMARK    5  A    between atoms: C_13  and  N_14
REMARK    6  A    between atoms: C_19  and  C_20
REMARK                            x       y       z     vdW  Elec       q    Type
REMARK                         _______ _______ _______ _____ _____    ______ ____
ROOT
ATOM      1  C   UNL     1       1.681   7.215  20.271  0.00  0.00    +0.000 A 
ATOM      2  C   UNL     1       1.430   6.025  20.986  0.00  0.00    +0.000 A 
ATOM      3  C   UNL     1       2.231   4.896  20.836  0.00  0.00    +0.000 A 
ATOM      4  C   UNL     1       3.226   4.879  19.870  0.00  0.00    +0.000 A 
ATOM      5  C   UNL     1       3.293   5.927  18.944  0.00  0.00    +0.000 A 
ATOM      6  C   UNL     1       2.639   7.130  19.240  0.00  0.00    +0.000 A 
ENDROOT
BRANCH   5   7
ATOM      7  N   UNL     1       3.589   5.637  17.538  0.00  0.00    +0.000 N 
ATOM      8  C   UNL     1       4.510   4.469  17.463  0.00  0.00    +0.000 C 
ATOM      9  C   UNL     1       5.848   5.141  17.578  0.00  0.00    +0.000 A 
ATOM     10  C   UNL     1       6.894   4.832  18.428  0.00  0.00    +0.000 A 
ATOM     11  C   UNL     1       7.820   5.844  18.720  0.00  0.00    +0.000 A 
ATOM     12  C   UNL     1       7.711   7.135  18.144  0.00  0.00    +0.000 A 
ATOM     13  C   UNL     1       6.655   7.415  17.262  0.00  0.00    +0.000 A 
ATOM     14  C   UNL     1       5.728   6.416  17.031  0.00  0.00    +0.000 A 
ATOM     15  C   UNL     1       4.274   6.666  16.835  0.00  0.00    +0.000 C 
ATOM     16  O   UNL     1       3.811   7.692  16.360  0.00  0.00    +0.000 OA
BRANCH  12  17
ATOM     17  C   UNL     1       8.540   8.269  18.581  0.00  0.00    +0.000 C 
ATOM     18  C   UNL     1       8.444   9.520  18.140  0.00  0.00    +0.000 C 
ATOM     19  F   UNL     1       9.272  10.478  18.600  0.00  0.00    +0.000 F 
ENDBRANCH  12  17
ENDBRANCH   5   7
BRANCH   1  20
ATOM     20  C   UNL     1       0.941   8.590  20.627  0.00  0.00    +0.000 C 
ATOM     21  C   UNL     1      -0.216   8.461  21.663  0.00  0.00    +0.000 C 
ATOM     22  O   UNL     1       0.393   9.428  22.542  0.00  0.00    +0.000 OA
ATOM     23  C   UNL     1       1.596   9.439  21.746  0.00  0.00    +0.000 C 
BRANCH  20  24
ATOM     24  C   UNL     1       0.452   9.392  19.405  0.00  0.00    +0.000 C 
BRANCH  24  30
ATOM     25  C   UNL     1      -0.106  12.396  20.314  0.00  0.00    +0.000 C 
ATOM     26  N   UNL     1       0.922  11.920  19.429  0.00  0.00    +0.000 N 
ATOM     27  C   UNL     1       1.800  12.722  18.762  0.00  0.00    +0.000 A 
ATOM     28  N   UNL     1       2.571  11.986  17.997  0.00  0.00    +0.000 NA
ATOM     29  N   UNL     1       2.180  10.676  18.149  0.00  0.00    +0.000 NA
ATOM     30  C   UNL     1       1.202  10.633  19.038  0.00  0.00    +0.000 A 
ENDBRANCH  24  30
ENDBRANCH  20  24
ENDBRANCH   1  20
TORSDOF 5
ENDMDL
MODEL 3
REMARK VINA RESULT:      -8.2      0.726      1.319
REMARK  Name = 
REMARK  6 active torsions:
REMARK  status: ('A' for Active; 'I' for Inactive)
REMARK    1  A    between atoms: C_1  and  N_2
REMARK    2  A    between atoms: C_6  and  C_7
REMARK    3  A    between atoms: C_7  and  C_8
REMARK    4  A    between atoms: C_8  and  C_9
REMARK    5  A    between atoms: C_13  and  N_14
REMARK    6  A    between atoms: C_19  and  C_20
REMARK                            x       y       z     vdW  Elec       q    Type
REMARK                         _______ _______ _______ _____ _____    ______ ____
ROOT
ATOM      1  C   UNL     1       1.673   7.233  20.470  0.00  0.00    +0.000 A 
ATOM      2  C   UNL     1       1.388   6.008  21.107  0.00  0.00    +0.000 A 
ATOM      3  C   UNL     1       2.121   4.854  20.837  0.00  0.00    +0.000 A 
ATOM      4  C   UNL     1       3.070   4.859  19.827  0.00  0.00    +0.000 A 
ATOM      5  C   UNL     1       3.154   5.969  18.977  0.00  0.00    +0.000 A 
ATOM      6  C   UNL     1       2.580   7.177  19.391  0.00  0.00    +0.000 A 
ENDROOT
BRANCH   5   7
ATOM      7  N   UNL     1       3.373   5.771  17.542  0.00  0.00    +0.000 N 
ATOM      8  C   UNL     1       4.228   4.569  17.339  0.00  0.00    +0.000 C 
ATOM      9  C   UNL     1       5.603   5.164  17.439  0.00  0.00    +0.000 A 
ATOM     10  C   UNL     1       6.667   4.741  18.213  0.00  0.00    +0.000 A 
ATOM     11  C   UNL     1       7.656   5.683  18.534  0.00  0.00    +0.000 A 
ATOM     12  C   UNL     1       7.590   7.017  18.059  0.00  0.00    +0.000 A 
ATOM     13  C   UNL     1       6.513   7.413  17.251  0.00  0.00    +0.000 A 
ATOM     14  C   UNL     1       5.525   6.481  16.992  0.00  0.00    +0.000 A 
ATOM     15  C   UNL     1       4.080   6.815  16.883  0.00  0.00    +0.000 C 
ATOM     16  O   UNL     1       3.651   7.895  16.507  0.00  0.00    +0.000 OA
BRANCH  12  17
ATOM     17  C   UNL     1       8.495   8.072  18.539  0.00  0.00    +0.000 C 
ATOM     18  C   UNL     1       8.435   9.360  18.208  0.00  0.00    +0.000 C 
ATOM     19  F   UNL     1       9.332  10.238  18.695  0.00  0.00    +0.000 F 
ENDBRANCH  12  17
ENDBRANCH   5   7
BRANCH   1  20
ATOM     20  C   UNL     1       1.025   8.614  20.959  0.00  0.00    +0.000 C 
ATOM     21  C   UNL     1      -0.402   8.485  21.572  0.00  0.00    +0.000 C 
ATOM     22  O   UNL     1       0.015   9.107  22.805  0.00  0.00    +0.000 OA
ATOM     23  C   UNL     1       1.397   9.062  22.395  0.00  0.00    +0.000 C 
BRANCH  20  24
ATOM     24  C   UNL     1       1.034   9.738  19.905  0.00  0.00    +0.000 C 
BRANCH  24  30
ATOM     25  C   UNL     1      -1.564  11.477  19.285  0.00  0.00    +0.000 C 
ATOM     26  N   UNL     1      -0.413  11.858  20.056  0.00  0.00    +0.000 N 
ATOM     27  C   UNL     1      -0.219  13.095  20.596  0.00  0.00    +0.000 A 
ATOM     28  N   UNL     1       0.950  13.135  21.191  0.00  0.00    +0.000 NA
ATOM     29  N   UNL     1       1.546  11.908  21.021  0.00  0.00    +0.000 NA
ATOM     30  C   UNL     1       0.709  11.125  20.360  0.00  0.00    +0.000 A 
ENDBRANCH  24  30
ENDBRANCH  20  24
ENDBRANCH   1  20
TORSDOF 5
ENDMDL
MODEL 4
REMARK VINA RESULT:      -8.0      3.463      5.041
REMARK  Name = 
REMARK  6 active torsions:
REMARK  status: ('A' for Active; 'I' for Inactive)
REMARK    1  A    between atoms: C_1  and  N_2
REMARK    2  A    between atoms: C_6  and  C_7
REMARK    3  A    between atoms: C_7  and  C_8
REMARK    4  A    between atoms: C_8  and  C_9
REMARK    5  A    between atoms: C_13  and  N_14
REMARK    6  A    between atoms: C_19  and  C_20
REMARK                            x       y       z     vdW  Elec       q    Type
REMARK                         _______ _______ _______ _____ _____    ______ ____
ROOT
ATOM      1  C   UNL     1       3.240   4.077  19.425  0.00  0.00    +0.000 A 
ATOM      2  C   UNL     1       2.923   3.460  18.197  0.00  0.00    +0.000 A 
ATOM      3  C   UNL     1       3.912   3.015  17.323  0.00  0.00    +0.000 A 
ATOM      4  C   UNL     1       5.244   3.295  17.588  0.00  0.00    +0.000 A 
ATOM      5  C   UNL     1       5.561   4.169  18.635  0.00  0.00    +0.000 A 
ATOM      6  C   UNL     1       4.594   4.421  19.616  0.00  0.00    +0.000 A 
ENDROOT
BRANCH   5   7
ATOM      7  N   UNL     1       6.634   5.152  18.461  0.00  0.00    +0.000 N 
ATOM      8  C   UNL     1       6.059   6.408  17.903  0.00  0.00    +0.000 C 
ATOM      9  C   UNL     1       6.115   6.128  16.429  0.00  0.00    +0.000 A 
ATOM     10  C   UNL     1       5.106   6.255  15.493  0.00  0.00    +0.000 A 
ATOM     11  C   UNL     1       5.208   5.498  14.315  0.00  0.00    +0.000 A 
ATOM     12  C   UNL     1       6.320   4.653  14.073  0.00  0.00    +0.000 A 
ATOM     13  C   UNL     1       7.346   4.564  15.028  0.00  0.00    +0.000 A 
ATOM     14  C   UNL     1       7.196   5.280  16.202  0.00  0.00    +0.000 A 
ATOM     15  C   UNL     1       7.648   4.791  17.532  0.00  0.00    +0.000 C 
ATOM     16  O   UNL     1       8.590   4.032  17.701  0.00  0.00    +0.000 OA
BRANCH  12  17
ATOM     17  C   UNL     1       6.361   3.701  12.952  0.00  0.00    +0.000 C 
ATOM     18  C   UNL     1       5.309   3.248  12.277  0.00  0.00    +0.000 C 
ATOM     19  F   UNL     1       5.463   2.360  11.276  0.00  0.00    +0.000 F 
ENDBRANCH  12  17
ENDBRANCH   5   7
BRANCH   1  20
ATOM     20  C   UNL     1       2.132   4.348  20.549  0.00  0.00    +0.000 C 
ATOM     21  C   UNL     1       0.702   3.844  20.191  0.00  0.00    +0.000 C 
ATOM     22  O   UNL     1       0.633   3.031  21.381  0.00  0.00    +0.000 OA
ATOM     23  C   UNL     1       2.026   3.277  21.664  0.00  0.00    +0.000 C 
BRANCH  20  24
ATOM     24  C   UNL     1       2.057   5.807  21.040  0.00  0.00    +0.000 C 
BRANCH  24  30
ATOM     25  C   UNL     1       0.986   8.797  21.304  0.00  0.00    +0.000 C 
ATOM     26  N   UNL     1       1.561   8.167  20.148  0.00  0.00    +0.000 N 
ATOM     27  C   UNL     1       1.671   8.754  18.922  0.00  0.00    +0.000 A 
ATOM     28  N   UNL     1       2.187   7.899  18.072  0.00  0.00    +0.000 NA
ATOM     29  N   UNL     1       2.403   6.720  18.746  0.00  0.00    +0.000 NA
ATOM     30  C   UNL     1       2.052   6.892  20.009  0.00  0.00    +0.000 A 
ENDBRANCH  24  30
ENDBRANCH  20  24
ENDBRANCH   1  20
TORSDOF 5
ENDMDL
MODEL 5
REMARK VINA RESULT:      -8.0      2.709      7.322
REMARK  Name = 
REMARK  6 active torsions:
REMARK  status: ('A' for Active; 'I' for Inactive)
REMARK    1  A    between atoms: C_1  and  N_2
REMARK    2  A    between atoms: C_6  and  C_7
REMARK    3  A    between atoms: C_7  and  C_8
REMARK    4  A    between atoms: C_8  and  C_9
REMARK    5  A    between atoms: C_13  and  N_14
REMARK    6  A    between atoms: C_19  and  C_20
REMARK                            x       y       z     vdW  Elec       q    Type
REMARK                         _______ _______ _______ _____ _____    ______ ____
ROOT
ATOM      1  C   UNL     1       2.353   5.644  18.962  0.00  0.00    +0.000 A 
ATOM      2  C   UNL     1       2.229   6.496  17.845  0.00  0.00    +0.000 A 
ATOM      3  C   UNL     1       2.159   7.880  17.981  0.00  0.00    +0.000 A 
ATOM      4  C   UNL     1       2.077   8.446  19.245  0.00  0.00    +0.000 A 
ATOM      5  C   UNL     1       1.889   7.611  20.353  0.00  0.00    +0.000 A 
ATOM      6  C   UNL     1       2.178   6.247  20.225  0.00  0.00    +0.000 A 
ENDROOT
BRANCH   5   7
ATOM      7  N   UNL     1       0.974   8.019  21.424  0.00  0.00    +0.000 N 
ATOM      8  C   UNL     1      -0.395   8.180  20.861  0.00  0.00    +0.000 C 
ATOM      9  C   UNL     1      -0.355   9.605  20.390  0.00  0.00    +0.000 A 
ATOM     10  C   UNL     1      -0.708  10.110  19.152  0.00  0.00    +0.000 A 
ATOM     11  C   UNL     1      -0.147  11.336  18.763  0.00  0.00    +0.000 A 
ATOM     12  C   UNL     1       0.729  12.053  19.615  0.00  0.00    +0.000 A 
ATOM     13  C   UNL     1       1.050  11.531  20.879  0.00  0.00    +0.000 A 
ATOM     14  C   UNL     1       0.525  10.298  21.218  0.00  0.00    +0.000 A 
ATOM     15  C   UNL     1       1.256   9.279  22.019  0.00  0.00    +0.000 C 
ATOM     16  O   UNL     1       2.102   9.544  22.859  0.00  0.00    +0.000 OA
BRANCH  12  17
ATOM     17  C   UNL     1       1.487  13.229  19.162  0.00  0.00    +0.000 C 
ATOM     18  C   UNL     1       2.472  13.225  18.268  0.00  0.00    +0.000 C 
ATOM     19  F   UNL     1       3.111  14.364  17.941  0.00  0.00    +0.000 F 
ENDBRANCH  12  17
ENDBRANCH   5   7
BRANCH   1  20
ATOM     20  C   UNL     1       2.701   4.089  18.808  0.00  0.00    +0.000 C 
ATOM     21  C   UNL     1       2.580   3.259  20.121  0.00  0.00    +0.000 C 
ATOM     22  O   UNL     1       1.644   2.342  19.518  0.00  0.00    +0.000 OA
ATOM     23  C   UNL     1       1.535   3.178  18.347  0.00  0.00    +0.000 C 
BRANCH  20  24
ATOM     24  C   UNL     1       4.058   3.797  18.137  0.00  0.00    +0.000 C 
BRANCH  24  30
ATOM     25  C   UNL     1       5.642   5.959  16.412  0.00  0.00    +0.000 C 
ATOM     26  N   UNL     1       5.907   5.543  17.762  0.00  0.00    +0.000 N 
ATOM     27  C   UNL     1       6.963   5.974  18.510  0.00  0.00    +0.000 A 
ATOM     28  N   UNL     1       6.952   5.367  19.673  0.00  0.00    +0.000 NA
ATOM     29  N   UNL     1       5.880   4.505  19.684  0.00  0.00    +0.000 NA
ATOM     30  C   UNL     1       5.231   4.634  18.538  0.00  0.00    +0.000 A 
ENDBRANCH  24  30
ENDBRANCH  20  24
ENDBRANCH   1  20
TORSDOF 5
ENDMDL
MODEL 6
REMARK VINA RESULT:      -7.9      2.560      3.570
REMARK  Name = 
REMARK  6 active torsions:
REMARK  status: ('A' for Active; 'I' for Inactive)
REMARK    1  A    between atoms: C_1  and  N_2
REMARK    2  A    between atoms: C_6  and  C_7
REMARK    3  A    between atoms: C_7  and  C_8
REMARK    4  A    between atoms: C_8  and  C_9
REMARK    5  A    between atoms: C_13  and  N_14
REMARK    6  A    between atoms: C_19  and  C_20
REMARK                            x       y       z     vdW  Elec       q    Type
REMARK                         _______ _______ _______ _____ _____    ______ ____
ROOT
ATOM      1  C   UNL     1       1.726   8.198  19.667  0.00  0.00    +0.000 A 
ATOM      2  C   UNL     1       2.217   8.622  18.414  0.00  0.00    +0.000 A 
ATOM      3  C   UNL     1       2.620   7.713  17.438  0.00  0.00    +0.000 A 
ATOM      4  C   UNL     1       2.670   6.359  17.734  0.00  0.00    +0.000 A 
ATOM      5  C   UNL     1       2.484   5.945  19.059  0.00  0.00    +0.000 A 
ATOM      6  C   UNL     1       1.875   6.827  19.961  0.00  0.00    +0.000 A 
ENDROOT
BRANCH   5   7
ATOM      7  N   UNL     1       3.317   4.871  19.609  0.00  0.00    +0.000 N 
ATOM      8  C   UNL     1       4.696   5.388  19.830  0.00  0.00    +0.000 C 
ATOM      9  C   UNL     1       5.321   5.146  18.486  0.00  0.00    +0.000 A 
ATOM     10  C   UNL     1       6.030   6.034  17.697  0.00  0.00    +0.000 A 
ATOM     11  C   UNL     1       6.092   5.777  16.319  0.00  0.00    +0.000 A 
ATOM     12  C   UNL     1       5.477   4.633  15.751  0.00  0.00    +0.000 A 
ATOM     13  C   UNL     1       4.786   3.733  16.578  0.00  0.00    +0.000 A 
ATOM     14  C   UNL     1       4.697   4.036  17.924  0.00  0.00    +0.000 A 
ATOM     15  C   UNL     1       3.500   3.745  18.759  0.00  0.00    +0.000 C 
ATOM     16  O   UNL     1       2.726   2.823  18.554  0.00  0.00    +0.000 OA
BRANCH  12  17
ATOM     17  C   UNL     1       5.351   4.442  14.298  0.00  0.00    +0.000 C 
ATOM     18  C   UNL     1       6.236   3.834  13.513  0.00  0.00    +0.000 C 
ATOM     19  F   UNL     1       6.026   3.733  12.187  0.00  0.00    +0.000 F 
ENDBRANCH  12  17
ENDBRANCH   5   7
BRANCH   1  20
ATOM     20  C   UNL     1       1.016   9.209  20.685  0.00  0.00    +0.000 C 
ATOM     21  C   UNL     1      -0.337   8.705  21.270  0.00  0.00    +0.000 C 
ATOM     22  O   UNL     1       0.134   8.850  22.625  0.00  0.00    +0.000 OA
ATOM     23  C   UNL     1       1.475   9.113  22.162  0.00  0.00    +0.000 C 
BRANCH  20  24
ATOM     24  C   UNL     1       0.844  10.644  20.151  0.00  0.00    +0.000 C 
BRANCH  24  30
ATOM     25  C   UNL     1      -1.166  10.149  17.726  0.00  0.00    +0.000 C 
ATOM     26  N   UNL     1      -1.384  10.947  18.901  0.00  0.00    +0.000 N 
ATOM     27  C   UNL     1      -2.497  11.701  19.128  0.00  0.00    +0.000 A 
ATOM     28  N   UNL     1      -2.363  12.350  20.260  0.00  0.00    +0.000 NA
ATOM     29  N   UNL     1      -1.129  12.033  20.779  0.00  0.00    +0.000 NA
ATOM     30  C   UNL     1      -0.549  11.161  19.971  0.00  0.00    +0.000 A 
ENDBRANCH  24  30
ENDBRANCH  20  24
ENDBRANCH   1  20
TORSDOF 5
ENDMDL
MODEL 7
REMARK VINA RESULT:      -7.8      2.546      3.436
REMARK  Name = 
REMARK  6 active torsions:
REMARK  status: ('A' for Active; 'I' for Inactive)
REMARK    1  A    between atoms: C_1  and  N_2
REMARK    2  A    between atoms: C_6  and  C_7
REMARK    3  A    between atoms: C_7  and  C_8
REMARK    4  A    between atoms: C_8  and  C_9
REMARK    5  A    between atoms: C_13  and  N_14
REMARK    6  A    between atoms: C_19  and  C_20
REMARK                            x       y       z     vdW  Elec       q    Type
REMARK                         _______ _______ _______ _____ _____    ______ ____
ROOT
ATOM      1  C   UNL     1       1.767   8.215  19.682  0.00  0.00    +0.000 A 
ATOM      2  C   UNL     1       2.299   8.664  18.456  0.00  0.00    +0.000 A 
ATOM      3  C   UNL     1       2.736   7.775  17.477  0.00  0.00    +0.000 A 
ATOM      4  C   UNL     1       2.779   6.416  17.748  0.00  0.00    +0.000 A 
ATOM      5  C   UNL     1       2.550   5.975  19.057  0.00  0.00    +0.000 A 
ATOM      6  C   UNL     1       1.909   6.838  19.955  0.00  0.00    +0.000 A 
ENDROOT
BRANCH   5   7
ATOM      7  N   UNL     1       3.365   4.892  19.614  0.00  0.00    +0.000 N 
ATOM      8  C   UNL     1       4.756   5.384  19.819  0.00  0.00    +0.000 C 
ATOM      9  C   UNL     1       5.366   5.115  18.473  0.00  0.00    +0.000 A 
ATOM     10  C   UNL     1       6.086   5.979  17.669  0.00  0.00    +0.000 A 
ATOM     11  C   UNL     1       6.133   5.705  16.294  0.00  0.00    +0.000 A 
ATOM     12  C   UNL     1       5.492   4.567  15.744  0.00  0.00    +0.000 A 
ATOM     13  C   UNL     1       4.790   3.690  16.587  0.00  0.00    +0.000 A 
ATOM     14  C   UNL     1       4.716   4.010  17.930  0.00  0.00    +0.000 A 
ATOM     15  C   UNL     1       3.520   3.753  18.776  0.00  0.00    +0.000 C 
ATOM     16  O   UNL     1       2.727   2.843  18.587  0.00  0.00    +0.000 OA
BRANCH  12  17
ATOM     17  C   UNL     1       5.352   4.361  14.294  0.00  0.00    +0.000 C 
ATOM     18  C   UNL     1       6.280   3.856  13.486  0.00  0.00    +0.000 C 
ATOM     19  F   UNL     1       6.049   3.730  12.165  0.00  0.00    +0.000 F 
ENDBRANCH  12  17
ENDBRANCH   5   7
BRANCH   1  20
ATOM     20  C   UNL     1       1.021   9.205  20.696  0.00  0.00    +0.000 C 
ATOM     21  C   UNL     1      -0.328   8.668  21.260  0.00  0.00    +0.000 C 
ATOM     22  O   UNL     1       0.122   8.818  22.622  0.00  0.00    +0.000 OA
ATOM     23  C   UNL     1       1.462   9.113  22.178  0.00  0.00    +0.000 C 
BRANCH  20  24
ATOM     24  C   UNL     1       0.823  10.638  20.165  0.00  0.00    +0.000 C 
BRANCH  24  30
ATOM     25  C   UNL     1      -1.706  12.311  21.148  0.00  0.00    +0.000 C 
ATOM     26  N   UNL     1      -1.525  11.649  19.886  0.00  0.00    +0.000 N 
ATOM     27  C   UNL     1      -2.475  11.571  18.911  0.00  0.00    +0.000 A 
ATOM     28  N   UNL     1      -2.018  10.855  17.911  0.00  0.00    +0.000 NA
ATOM     29  N   UNL     1      -0.751  10.437  18.242  0.00  0.00    +0.000 NA
ATOM     30  C   UNL     1      -0.441  10.942  19.425  0.00  0.00    +0.000 A 
ENDBRANCH  24  30
ENDBRANCH  20  24
ENDBRANCH   1  20
TORSDOF 5
ENDMDL
MODEL 8
REMARK VINA RESULT:      -7.8      2.750      3.755
REMARK  Name = 
REMARK  6 active torsions:
REMARK  status: ('A' for Active; 'I' for Inactive)
REMARK    1  A    between atoms: C_1  and  N_2
REMARK    2  A    between atoms: C_6  and  C_7
REMARK    3  A    between atoms: C_7  and  C_8
REMARK    4  A    between atoms: C_8  and  C_9
REMARK    5  A    between atoms: C_13  and  N_14
REMARK    6  A    between atoms: C_19  and  C_20
REMARK                            x       y       z     vdW  Elec       q    Type
REMARK                         _______ _______ _______ _____ _____    ______ ____
ROOT
ATOM      1  C   UNL     1       1.723   8.250  19.647  0.00  0.00    +0.000 A 
ATOM      2  C   UNL     1       2.252   8.712  18.424  0.00  0.00    +0.000 A 
ATOM      3  C   UNL     1       2.731   7.834  17.454  0.00  0.00    +0.000 A 
ATOM      4  C   UNL     1       2.820   6.479  17.733  0.00  0.00    +0.000 A 
ATOM      5  C   UNL     1       2.592   6.037  19.042  0.00  0.00    +0.000 A 
ATOM      6  C   UNL     1       1.911   6.881  19.928  0.00  0.00    +0.000 A 
ENDROOT
BRANCH   5   7
ATOM      7  N   UNL     1       3.440   4.987  19.613  0.00  0.00    +0.000 N 
ATOM      8  C   UNL     1       4.825   5.511  19.773  0.00  0.00    +0.000 C 
ATOM      9  C   UNL     1       5.412   5.212  18.423  0.00  0.00    +0.000 A 
ATOM     10  C   UNL     1       6.097   6.064  17.578  0.00  0.00    +0.000 A 
ATOM     11  C   UNL     1       6.121   5.750  16.211  0.00  0.00    +0.000 A 
ATOM     12  C   UNL     1       5.490   4.583  15.709  0.00  0.00    +0.000 A 
ATOM     13  C   UNL     1       4.824   3.720  16.593  0.00  0.00    +0.000 A 
ATOM     14  C   UNL     1       4.772   4.079  17.927  0.00  0.00    +0.000 A 
ATOM     15  C   UNL     1       3.599   3.826  18.807  0.00  0.00    +0.000 C 
ATOM     16  O   UNL     1       2.820   2.896  18.663  0.00  0.00    +0.000 OA
BRANCH  12  17
ATOM     17  C   UNL     1       5.324   4.332  14.270  0.00  0.00    +0.000 C 
ATOM     18  C   UNL     1       6.264   3.882  13.444  0.00  0.00    +0.000 C 
ATOM     19  F   UNL     1       6.004   3.705  12.134  0.00  0.00    +0.000 F 
ENDBRANCH  12  17
ENDBRANCH   5   7
BRANCH   1  20
ATOM     20  C   UNL     1       0.932   9.218  20.647  0.00  0.00    +0.000 C 
ATOM     21  C   UNL     1      -0.240   8.542  21.420  0.00  0.00    +0.000 C 
ATOM     22  O   UNL     1       0.319   8.913  22.697  0.00  0.00    +0.000 OA
ATOM     23  C   UNL     1       1.536   9.363  22.067  0.00  0.00    +0.000 C 
BRANCH  20  24
ATOM     24  C   UNL     1       0.440  10.534  20.014  0.00  0.00    +0.000 C 
BRANCH  24  30
ATOM     25  C   UNL     1      -1.783  12.003  21.764  0.00  0.00    +0.000 C 
ATOM     26  N   UNL     1      -0.421  12.409  21.548  0.00  0.00    +0.000 N 
ATOM     27  C   UNL     1       0.123  13.568  22.017  0.00  0.00    +0.000 A 
ATOM     28  N   UNL     1       1.363  13.669  21.602  0.00  0.00    +0.000 NA
ATOM     29  N   UNL     1       1.635  12.565  20.829  0.00  0.00    +0.000 NA
ATOM     30  C   UNL     1       0.564  11.788  20.821  0.00  0.00    +0.000 A 
ENDBRANCH  24  30
ENDBRANCH  20  24
ENDBRANCH   1  20
TORSDOF 5
ENDMDL
MODEL 9
REMARK VINA RESULT:      -7.8      1.560      1.940
REMARK  Name = 
REMARK  6 active torsions:
REMARK  status: ('A' for Active; 'I' for Inactive)
REMARK    1  A    between atoms: C_1  and  N_2
REMARK    2  A    between atoms: C_6  and  C_7
REMARK    3  A    between atoms: C_7  and  C_8
REMARK    4  A    between atoms: C_8  and  C_9
REMARK    5  A    between atoms: C_13  and  N_14
REMARK    6  A    between atoms: C_19  and  C_20
REMARK                            x       y       z     vdW  Elec       q    Type
REMARK                         _______ _______ _______ _____ _____    ______ ____
ROOT
ATOM      1  C   UNL     1       1.719   7.771  19.830  0.00  0.00    +0.000 A 
ATOM      2  C   UNL     1       1.295   6.715  20.663  0.00  0.00    +0.000 A 
ATOM      3  C   UNL     1       1.994   5.512  20.735  0.00  0.00    +0.000 A 
ATOM      4  C   UNL     1       3.058   5.280  19.877  0.00  0.00    +0.000 A 
ATOM      5  C   UNL     1       3.302   6.183  18.835  0.00  0.00    +0.000 A 
ATOM      6  C   UNL     1       2.746   7.466  18.913  0.00  0.00    +0.000 A 
ENDROOT
BRANCH   5   7
ATOM      7  N   UNL     1       3.684   5.681  17.512  0.00  0.00    +0.000 N 
ATOM      8  C   UNL     1       4.573   4.498  17.676  0.00  0.00    +0.000 C 
ATOM      9  C   UNL     1       5.920   5.154  17.785  0.00  0.00    +0.000 A 
ATOM     10  C   UNL     1       6.896   4.954  18.743  0.00  0.00    +0.000 A 
ATOM     11  C   UNL     1       7.830   5.981  18.947  0.00  0.00    +0.000 A 
ATOM     12  C   UNL     1       7.798   7.174  18.181  0.00  0.00    +0.000 A 
ATOM     13  C   UNL     1       6.812   7.339  17.195  0.00  0.00    +0.000 A 
ATOM     14  C   UNL     1       5.874   6.335  17.049  0.00  0.00    +0.000 A 
ATOM     15  C   UNL     1       4.445   6.580  16.715  0.00  0.00    +0.000 C 
ATOM     16  O   UNL     1       4.045   7.533  16.063  0.00  0.00    +0.000 OA
BRANCH  12  17
ATOM     17  C   UNL     1       8.628   8.344  18.505  0.00  0.00    +0.000 C 
ATOM     18  C   UNL     1       8.370   9.602  18.159  0.00  0.00    +0.000 C 
ATOM     19  F   UNL     1       9.214  10.596  18.495  0.00  0.00    +0.000 F 
ENDBRANCH  12  17
ENDBRANCH   5   7
BRANCH   1  20
ATOM     20  C   UNL     1       1.089   9.240  19.936  0.00  0.00    +0.000 C 
ATOM     21  C   UNL     1       1.493  10.209  18.785  0.00  0.00    +0.000 C 
ATOM     22  O   UNL     1       0.115  10.456  18.438  0.00  0.00    +0.000 OA
ATOM     23  C   UNL     1      -0.327   9.413  19.332  0.00  0.00    +0.000 C 
BRANCH  20  24
ATOM     24  C   UNL     1       1.305   9.935  21.294  0.00  0.00    +0.000 C 
BRANCH  24  30
ATOM     25  C   UNL     1       0.314  12.952  21.014  0.00  0.00    +0.000 C 
ATOM     26  N   UNL     1      -0.263  11.906  21.813  0.00  0.00    +0.000 N 
ATOM     27  C   UNL     1      -1.316  12.075  22.662  0.00  0.00    +0.000 A 
ATOM     28  N   UNL     1      -1.564  10.945  23.283  0.00  0.00    +0.000 NA
ATOM     29  N   UNL     1      -0.643  10.021  22.848  0.00  0.00    +0.000 NA
ATOM     30  C   UNL     1       0.126  10.595  21.937  0.00  0.00    +0.000 A 
ENDBRANCH  24  30
ENDBRANCH  20  24
ENDBRANCH   1  20
TORSDOF 5
ENDMDL
