MODEL 1
REMARK VINA RESULT:      -9.0      0.000      0.000
REMARK  Name = 
REMARK  2 active torsions:
REMARK  status: ('A' for Active; 'I' for Inactive)
REMARK    1  A    between atoms: C_1  and  C_2
REMARK    2  A    between atoms: C_4  and  C_5
REMARK                            x       y       z     vdW  Elec       q    Type
REMARK                         _______ _______ _______ _____ _____    ______ ____
ROOT
ATOM      1  C   UNL     1       2.087   7.383  19.801  0.00  0.00    +0.000 C 
ATOM      2  O   UNL     1       2.370   8.176  18.910  0.00  0.00    +0.000 OA
ATOM      3  N   UNL     1       1.302   7.681  20.900  0.00  0.00    +0.000 N 
ATOM      4  C   UNL     1       0.676   8.898  21.043  0.00  0.00    +0.000 A 
ATOM      5  N   UNL     1       0.426   9.477  22.197  0.00  0.00    +0.000 NA
ATOM      6  C   UNL     1      -0.296  10.610  21.895  0.00  0.00    +0.000 A 
ATOM      7  C   UNL     1      -0.761  11.637  22.731  0.00  0.00    +0.000 A 
ATOM      8  C   UNL     1      -1.612  12.613  22.193  0.00  0.00    +0.000 A 
ATOM      9  C   UNL     1      -1.995  12.562  20.851  0.00  0.00    +0.000 A 
ATOM     10  C   UNL     1      -1.481  11.588  19.984  0.00  0.00    +0.000 A 
ATOM     11  C   UNL     1      -0.601  10.651  20.538  0.00  0.00    +0.000 A 
ATOM     12  N   UNL     1       0.138   9.621  20.005  0.00  0.00    +0.000 N 
ATOM     13  H   UNL     1       1.372   7.130  21.746  0.00  0.00    +0.000 HD
ATOM     14  H   UNL     1       0.211   9.373  19.029  0.00  0.00    +0.000 HD
ENDROOT
BRANCH   1  18
ATOM     15  C   UNL     1       2.000   2.735  21.601  0.00  0.00    +0.000 C 
ATOM     16  C   UNL     1       2.457   3.746  20.598  0.00  0.00    +0.000 A 
ATOM     17  C   UNL     1       2.120   5.085  20.706  0.00  0.00    +0.000 A 
ATOM     18  C   UNL     1       2.591   5.970  19.727  0.00  0.00    +0.000 A 
ATOM     19  C   UNL     1       3.402   5.497  18.666  0.00  0.00    +0.000 A 
ATOM     20  C   UNL     1       3.990   6.291  17.637  0.00  0.00    +0.000 A 
ATOM     21  C   UNL     1       4.778   5.714  16.637  0.00  0.00    +0.000 A 
ATOM     22  C   UNL     1       4.976   4.341  16.634  0.00  0.00    +0.000 A 
ATOM     23  F   UNL     1       5.728   3.777  15.682  0.00  0.00    +0.000 F 
ATOM     24  C   UNL     1       4.426   3.554  17.630  0.00  0.00    +0.000 A 
ATOM     25  C   UNL     1       3.662   4.109  18.648  0.00  0.00    +0.000 A 
ATOM     26  N   UNL     1       3.203   3.272  19.582  0.00  0.00    +0.000 NA
ENDBRANCH   1  18
TORSDOF 1
ENDMDL
MODEL 2
REMARK VINA RESULT:      -8.9      2.130      3.165
REMARK  Name = 
REMARK  2 active torsions:
REMARK  status: ('A' for Active; 'I' for Inactive)
REMARK    1  A    between atoms: C_1  and  C_2
REMARK    2  A    between atoms: C_4  and  C_5
REMARK                            x       y       z     vdW  Elec       q    Type
REMARK                         _______ _______ _______ _____ _____    ______ ____
ROOT
ATOM      1  C   UNL     1       2.939   7.771  17.825  0.00  0.00    +0.000 C 
ATOM      2  O   UNL     1       2.954   8.472  16.819  0.00  0.00    +0.000 OA
ATOM      3  N   UNL     1       2.183   8.029  18.953  0.00  0.00    +0.000 N 
ATOM      4  C   UNL     1       1.285   9.071  19.010  0.00  0.00    +0.000 A 
ATOM      5  N   UNL     1       0.980   9.733  20.104  0.00  0.00    +0.000 NA
ATOM      6  C   UNL     1      -0.021  10.607  19.741  0.00  0.00    +0.000 A 
ATOM      7  C   UNL     1      -0.667  11.605  20.488  0.00  0.00    +0.000 A 
ATOM      8  C   UNL     1      -1.769  12.263  19.925  0.00  0.00    +0.000 A 
ATOM      9  C   UNL     1      -2.220  11.930  18.645  0.00  0.00    +0.000 A 
ATOM     10  C   UNL     1      -1.542  10.992  17.856  0.00  0.00    +0.000 A 
ATOM     11  C   UNL     1      -0.420  10.380  18.428  0.00  0.00    +0.000 A 
ATOM     12  N   UNL     1       0.514   9.489  17.951  0.00  0.00    +0.000 N 
ATOM     13  H   UNL     1       2.446   7.638  19.848  0.00  0.00    +0.000 HD
ATOM     14  H   UNL     1       0.578   9.127  17.011  0.00  0.00    +0.000 HD
ENDROOT
BRANCH   1  18
ATOM     15  C   UNL     1       7.461   5.673  17.825  0.00  0.00    +0.000 C 
ATOM     16  C   UNL     1       5.971   5.582  17.931  0.00  0.00    +0.000 A 
ATOM     17  C   UNL     1       5.159   6.692  17.762  0.00  0.00    +0.000 A 
ATOM     18  C   UNL     1       3.772   6.523  17.873  0.00  0.00    +0.000 A 
ATOM     19  C   UNL     1       3.227   5.242  18.138  0.00  0.00    +0.000 A 
ATOM     20  C   UNL     1       1.840   4.919  18.224  0.00  0.00    +0.000 A 
ATOM     21  C   UNL     1       1.414   3.615  18.490  0.00  0.00    +0.000 A 
ATOM     22  C   UNL     1       2.359   2.619  18.694  0.00  0.00    +0.000 A 
ATOM     23  F   UNL     1       1.964   1.366  18.950  0.00  0.00    +0.000 F 
ATOM     24  C   UNL     1       3.709   2.908  18.602  0.00  0.00    +0.000 A 
ATOM     25  C   UNL     1       4.154   4.191  18.313  0.00  0.00    +0.000 A 
ATOM     26  N   UNL     1       5.474   4.363  18.212  0.00  0.00    +0.000 NA
ENDBRANCH   1  18
TORSDOF 1
ENDMDL
MODEL 3
REMARK VINA RESULT:      -8.9      1.425      1.620
REMARK  Name = 
REMARK  2 active torsions:
REMARK  status: ('A' for Active; 'I' for Inactive)
REMARK    1  A    between atoms: C_1  and  C_2
REMARK    2  A    between atoms: C_4  and  C_5
REMARK                            x       y       z     vdW  Elec       q    Type
REMARK                         _______ _______ _______ _____ _____    ______ ____
ROOT
ATOM      1  C   UNL     1       2.585   7.136  18.791  0.00  0.00    +0.000 C 
ATOM      2  O   UNL     1       2.890   8.135  18.149  0.00  0.00    +0.000 OA
ATOM      3  N   UNL     1       1.809   7.142  19.935  0.00  0.00    +0.000 N 
ATOM      4  C   UNL     1       1.216   8.290  20.411  0.00  0.00    +0.000 A 
ATOM      5  N   UNL     1       0.982   8.536  21.681  0.00  0.00    +0.000 NA
ATOM      6  C   UNL     1       0.290   9.727  21.706  0.00  0.00    +0.000 A 
ATOM      7  C   UNL     1      -0.147  10.498  22.795  0.00  0.00    +0.000 A 
ATOM      8  C   UNL     1      -0.971  11.605  22.551  0.00  0.00    +0.000 A 
ATOM      9  C   UNL     1      -1.356  11.934  21.249  0.00  0.00    +0.000 A 
ATOM     10  C   UNL     1      -0.868  11.221  20.145  0.00  0.00    +0.000 A 
ATOM     11  C   UNL     1      -0.013  10.146  20.415  0.00  0.00    +0.000 A 
ATOM     12  N   UNL     1       0.698   9.283  19.614  0.00  0.00    +0.000 N 
ATOM     13  H   UNL     1       1.864   6.379  20.597  0.00  0.00    +0.000 HD
ATOM     14  H   UNL     1       0.763   9.309  18.607  0.00  0.00    +0.000 HD
ENDROOT
BRANCH   1  18
ATOM     15  C   UNL     1       1.692   2.252  18.343  0.00  0.00    +0.000 C 
ATOM     16  C   UNL     1       2.536   3.462  18.089  0.00  0.00    +0.000 A 
ATOM     17  C   UNL     1       2.207   4.702  18.610  0.00  0.00    +0.000 A 
ATOM     18  C   UNL     1       3.051   5.785  18.329  0.00  0.00    +0.000 A 
ATOM     19  C   UNL     1       4.216   5.599  17.543  0.00  0.00    +0.000 A 
ATOM     20  C   UNL     1       5.185   6.597  17.226  0.00  0.00    +0.000 A 
ATOM     21  C   UNL     1       6.302   6.298  16.440  0.00  0.00    +0.000 A 
ATOM     22  C   UNL     1       6.459   5.013  15.942  0.00  0.00    +0.000 A 
ATOM     23  F   UNL     1       7.524   4.715  15.188  0.00  0.00    +0.000 F 
ATOM     24  C   UNL     1       5.538   4.028  16.249  0.00  0.00    +0.000 A 
ATOM     25  C   UNL     1       4.436   4.295  17.049  0.00  0.00    +0.000 A 
ATOM     26  N   UNL     1       3.622   3.270  17.316  0.00  0.00    +0.000 NA
ENDBRANCH   1  18
TORSDOF 1
ENDMDL
MODEL 4
REMARK VINA RESULT:      -8.7      1.657      1.772
REMARK  Name = 
REMARK  2 active torsions:
REMARK  status: ('A' for Active; 'I' for Inactive)
REMARK    1  A    between atoms: C_1  and  C_2
REMARK    2  A    between atoms: C_4  and  C_5
REMARK                            x       y       z     vdW  Elec       q    Type
REMARK                         _______ _______ _______ _____ _____    ______ ____
ROOT
ATOM      1  C   UNL     1       2.373   7.725  18.194  0.00  0.00    +0.000 C 
ATOM      2  O   UNL     1       2.590   8.515  17.281  0.00  0.00    +0.000 OA
ATOM      3  N   UNL     1       1.722   8.044  19.372  0.00  0.00    +0.000 N 
ATOM      4  C   UNL     1       1.164   9.283  19.588  0.00  0.00    +0.000 A 
ATOM      5  N   UNL     1       1.061   9.860  20.764  0.00  0.00    +0.000 NA
ATOM      6  C   UNL     1       0.355  11.022  20.548  0.00  0.00    +0.000 A 
ATOM      7  C   UNL     1       0.024  12.060  21.433  0.00  0.00    +0.000 A 
ATOM      8  C   UNL     1      -0.842  13.072  20.994  0.00  0.00    +0.000 A 
ATOM      9  C   UNL     1      -1.368  13.048  19.701  0.00  0.00    +0.000 A 
ATOM     10  C   UNL     1      -0.989  12.062  18.780  0.00  0.00    +0.000 A 
ATOM     11  C   UNL     1      -0.091  11.088  19.231  0.00  0.00    +0.000 A 
ATOM     12  N   UNL     1       0.546  10.035  18.616  0.00  0.00    +0.000 N 
ATOM     13  H   UNL     1       1.861   7.483  20.203  0.00  0.00    +0.000 HD
ATOM     14  H   UNL     1       0.504   9.792  17.637  0.00  0.00    +0.000 HD
ENDROOT
BRANCH   1  18
ATOM     15  C   UNL     1       1.233   2.881  18.489  0.00  0.00    +0.000 C 
ATOM     16  C   UNL     1       2.183   3.989  18.159  0.00  0.00    +0.000 A 
ATOM     17  C   UNL     1       1.864   5.317  18.393  0.00  0.00    +0.000 A 
ATOM     18  C   UNL     1       2.811   6.296  18.059  0.00  0.00    +0.000 A 
ATOM     19  C   UNL     1       4.063   5.922  17.511  0.00  0.00    +0.000 A 
ATOM     20  C   UNL     1       5.133   6.805  17.177  0.00  0.00    +0.000 A 
ATOM     21  C   UNL     1       6.331   6.322  16.642  0.00  0.00    +0.000 A 
ATOM     22  C   UNL     1       6.474   4.962  16.412  0.00  0.00    +0.000 A 
ATOM     23  F   UNL     1       7.616   4.488  15.900  0.00  0.00    +0.000 F 
ATOM     24  C   UNL     1       5.454   4.087  16.741  0.00  0.00    +0.000 A 
ATOM     25  C   UNL     1       4.266   4.541  17.299  0.00  0.00    +0.000 A 
ATOM     26  N   UNL     1       3.355   3.615  17.613  0.00  0.00    +0.000 NA
ENDBRANCH   1  18
TORSDOF 1
ENDMDL
MODEL 5
REMARK VINA RESULT:      -8.7      1.839      3.118
REMARK  Name = 
REMARK  2 active torsions:
REMARK  status: ('A' for Active; 'I' for Inactive)
REMARK    1  A    between atoms: C_1  and  C_2
REMARK    2  A    between atoms: C_4  and  C_5
REMARK                            x       y       z     vdW  Elec       q    Type
REMARK                         _______ _______ _______ _____ _____    ______ ____
ROOT
ATOM      1  C   UNL     1       2.772   7.470  18.427  0.00  0.00    +0.000 C 
ATOM      2  O   UNL     1       2.975   8.551  17.885  0.00  0.00    +0.000 OA
ATOM      3  N   UNL     1       2.050   7.296  19.593  0.00  0.00    +0.000 N 
ATOM      4  C   UNL     1       1.398   8.339  20.211  0.00  0.00    +0.000 A 
ATOM      5  N   UNL     1       1.203   8.433  21.508  0.00  0.00    +0.000 NA
ATOM      6  C   UNL     1       0.429   9.557  21.687  0.00  0.00    +0.000 A 
ATOM      7  C   UNL     1      -0.013  10.175  22.868  0.00  0.00    +0.000 A 
ATOM      8  C   UNL     1      -0.926  11.235  22.775  0.00  0.00    +0.000 A 
ATOM      9  C   UNL     1      -1.392  11.667  21.531  0.00  0.00    +0.000 A 
ATOM     10  C   UNL     1      -0.904  11.113  20.340  0.00  0.00    +0.000 A 
ATOM     11  C   UNL     1       0.038  10.085  20.460  0.00  0.00    +0.000 A 
ATOM     12  N   UNL     1       0.773   9.367  19.545  0.00  0.00    +0.000 N 
ATOM     13  H   UNL     1       2.190   6.475  20.167  0.00  0.00    +0.000 HD
ATOM     14  H   UNL     1       0.791   9.503  18.545  0.00  0.00    +0.000 HD
ENDROOT
BRANCH   1  18
ATOM     15  C   UNL     1       6.225   5.284  15.571  0.00  0.00    +0.000 C 
ATOM     16  C   UNL     1       5.035   5.218  16.477  0.00  0.00    +0.000 A 
ATOM     17  C   UNL     1       4.426   6.361  16.966  0.00  0.00    +0.000 A 
ATOM     18  C   UNL     1       3.314   6.214  17.806  0.00  0.00    +0.000 A 
ATOM     19  C   UNL     1       2.827   4.923  18.128  0.00  0.00    +0.000 A 
ATOM     20  C   UNL     1       1.679   4.631  18.923  0.00  0.00    +0.000 A 
ATOM     21  C   UNL     1       1.288   3.313  19.174  0.00  0.00    +0.000 A 
ATOM     22  C   UNL     1       2.042   2.269  18.658  0.00  0.00    +0.000 A 
ATOM     23  F   UNL     1       1.678   1.003  18.892  0.00  0.00    +0.000 F 
ATOM     24  C   UNL     1       3.151   2.530  17.873  0.00  0.00    +0.000 A 
ATOM     25  C   UNL     1       3.542   3.832  17.588  0.00  0.00    +0.000 A 
ATOM     26  N   UNL     1       4.606   3.981  16.794  0.00  0.00    +0.000 NA
ENDBRANCH   1  18
TORSDOF 1
ENDMDL
MODEL 6
REMARK VINA RESULT:      -8.6      3.703      8.290
REMARK  Name = 
REMARK  2 active torsions:
REMARK  status: ('A' for Active; 'I' for Inactive)
REMARK    1  A    between atoms: C_1  and  C_2
REMARK    2  A    between atoms: C_4  and  C_5
REMARK                            x       y       z     vdW  Elec       q    Type
REMARK                         _______ _______ _______ _____ _____    ______ ____
ROOT
ATOM      1  C   UNL     1       4.041   3.924  17.694  0.00  0.00    +0.000 C 
ATOM      2  O   UNL     1       4.229   2.737  17.452  0.00  0.00    +0.000 OA
ATOM      3  N   UNL     1       4.598   4.970  16.981  0.00  0.00    +0.000 N 
ATOM      4  C   UNL     1       5.355   4.764  15.850  0.00  0.00    +0.000 A 
ATOM      5  N   UNL     1       6.344   5.538  15.464  0.00  0.00    +0.000 NA
ATOM      6  C   UNL     1       6.753   5.039  14.247  0.00  0.00    +0.000 A 
ATOM      7  C   UNL     1       7.818   5.428  13.420  0.00  0.00    +0.000 A 
ATOM      8  C   UNL     1       7.930   4.852  12.146  0.00  0.00    +0.000 A 
ATOM      9  C   UNL     1       6.995   3.912  11.705  0.00  0.00    +0.000 A 
ATOM     10  C   UNL     1       5.970   3.457  12.545  0.00  0.00    +0.000 A 
ATOM     11  C   UNL     1       5.907   4.018  13.826  0.00  0.00    +0.000 A 
ATOM     12  N   UNL     1       5.110   3.780  14.921  0.00  0.00    +0.000 N 
ATOM     13  H   UNL     1       4.692   5.885  17.401  0.00  0.00    +0.000 HD
ATOM     14  H   UNL     1       4.401   3.066  15.008  0.00  0.00    +0.000 HD
ENDROOT
BRANCH   1  18
ATOM     15  C   UNL     1       1.716   2.664  21.920  0.00  0.00    +0.000 C 
ATOM     16  C   UNL     1       2.096   3.671  20.879  0.00  0.00    +0.000 A 
ATOM     17  C   UNL     1       2.822   3.317  19.754  0.00  0.00    +0.000 A 
ATOM     18  C   UNL     1       3.134   4.318  18.824  0.00  0.00    +0.000 A 
ATOM     19  C   UNL     1       2.701   5.651  19.036  0.00  0.00    +0.000 A 
ATOM     20  C   UNL     1       2.902   6.752  18.150  0.00  0.00    +0.000 A 
ATOM     21  C   UNL     1       2.427   8.029  18.462  0.00  0.00    +0.000 A 
ATOM     22  C   UNL     1       1.765   8.234  19.664  0.00  0.00    +0.000 A 
ATOM     23  F   UNL     1       1.305   9.452  19.974  0.00  0.00    +0.000 F 
ATOM     24  C   UNL     1       1.548   7.177  20.530  0.00  0.00    +0.000 A 
ATOM     25  C   UNL     1       1.988   5.895  20.229  0.00  0.00    +0.000 A 
ATOM     26  N   UNL     1       1.700   4.936  21.113  0.00  0.00    +0.000 NA
ENDBRANCH   1  18
TORSDOF 1
ENDMDL
MODEL 7
REMARK VINA RESULT:      -8.6      1.835      3.137
REMARK  Name = 
REMARK  2 active torsions:
REMARK  status: ('A' for Active; 'I' for Inactive)
REMARK    1  A    between atoms: C_1  and  C_2
REMARK    2  A    between atoms: C_4  and  C_5
REMARK                            x       y       z     vdW  Elec       q    Type
REMARK                         _______ _______ _______ _____ _____    ______ ____
ROOT
ATOM      1  C   UNL     1       2.350   8.043  18.381  0.00  0.00    +0.000 C 
ATOM      2  O   UNL     1       2.240   8.764  17.396  0.00  0.00    +0.000 OA
ATOM      3  N   UNL     1       1.807   8.318  19.623  0.00  0.00    +0.000 N 
ATOM      4  C   UNL     1       0.995   9.408  19.840  0.00  0.00    +0.000 A 
ATOM      5  N   UNL     1       0.914  10.062  20.978  0.00  0.00    +0.000 NA
ATOM      6  C   UNL     1      -0.078  11.000  20.798  0.00  0.00    +0.000 A 
ATOM      7  C   UNL     1      -0.532  12.015  21.654  0.00  0.00    +0.000 A 
ATOM      8  C   UNL     1      -1.670  12.748  21.289  0.00  0.00    +0.000 A 
ATOM      9  C   UNL     1      -2.345  12.470  20.098  0.00  0.00    +0.000 A 
ATOM     10  C   UNL     1      -1.863  11.512  19.196  0.00  0.00    +0.000 A 
ATOM     11  C   UNL     1      -0.701  10.825  19.565  0.00  0.00    +0.000 A 
ATOM     12  N   UNL     1       0.086   9.893  18.929  0.00  0.00    +0.000 N 
ATOM     13  H   UNL     1       2.190   7.893  20.456  0.00  0.00    +0.000 HD
ATOM     14  H   UNL     1      -0.028   9.549  17.987  0.00  0.00    +0.000 HD
ENDROOT
BRANCH   1  18
ATOM     15  C   UNL     1       6.072   5.445  16.320  0.00  0.00    +0.000 C 
ATOM     16  C   UNL     1       4.944   5.576  17.295  0.00  0.00    +0.000 A 
ATOM     17  C   UNL     1       4.142   6.704  17.334  0.00  0.00    +0.000 A 
ATOM     18  C   UNL     1       3.103   6.748  18.274  0.00  0.00    +0.000 A 
ATOM     19  C   UNL     1       2.882   5.653  19.147  0.00  0.00    +0.000 A 
ATOM     20  C   UNL     1       1.835   5.543  20.110  0.00  0.00    +0.000 A 
ATOM     21  C   UNL     1       1.711   4.410  20.919  0.00  0.00    +0.000 A 
ATOM     22  C   UNL     1       2.635   3.383  20.797  0.00  0.00    +0.000 A 
ATOM     23  F   UNL     1       2.528   2.294  21.567  0.00  0.00    +0.000 F 
ATOM     24  C   UNL     1       3.651   3.464  19.861  0.00  0.00    +0.000 A 
ATOM     25  C   UNL     1       3.777   4.568  19.028  0.00  0.00    +0.000 A 
ATOM     26  N   UNL     1       4.769   4.538  18.134  0.00  0.00    +0.000 NA
ENDBRANCH   1  18
TORSDOF 1
ENDMDL
MODEL 8
REMARK VINA RESULT:      -8.4      3.516      8.344
REMARK  Name = 
REMARK  2 active torsions:
REMARK  status: ('A' for Active; 'I' for Inactive)
REMARK    1  A    between atoms: C_1  and  C_2
REMARK    2  A    between atoms: C_4  and  C_5
REMARK                            x       y       z     vdW  Elec       q    Type
REMARK                         _______ _______ _______ _____ _____    ______ ____
ROOT
ATOM      1  C   UNL     1       1.321   9.417  18.127  0.00  0.00    +0.000 C 
ATOM      2  O   UNL     1       2.013   9.925  17.252  0.00  0.00    +0.000 OA
ATOM      3  N   UNL     1       1.442   8.112  18.569  0.00  0.00    +0.000 N 
ATOM      4  C   UNL     1       2.441   7.278  18.120  0.00  0.00    +0.000 A 
ATOM      5  N   UNL     1       2.326   5.974  18.004  0.00  0.00    +0.000 NA
ATOM      6  C   UNL     1       3.572   5.524  17.629  0.00  0.00    +0.000 A 
ATOM      7  C   UNL     1       4.005   4.232  17.292  0.00  0.00    +0.000 A 
ATOM      8  C   UNL     1       5.375   4.009  17.090  0.00  0.00    +0.000 A 
ATOM      9  C   UNL     1       6.294   5.053  17.227  0.00  0.00    +0.000 A 
ATOM     10  C   UNL     1       5.872   6.363  17.488  0.00  0.00    +0.000 A 
ATOM     11  C   UNL     1       4.496   6.565  17.643  0.00  0.00    +0.000 A 
ATOM     12  N   UNL     1       3.722   7.686  17.832  0.00  0.00    +0.000 N 
ATOM     13  H   UNL     1       0.666   7.650  19.024  0.00  0.00    +0.000 HD
ATOM     14  H   UNL     1       4.041   8.644  17.850  0.00  0.00    +0.000 HD
ENDROOT
BRANCH   1  18
ATOM     15  C   UNL     1       0.093  12.609  21.755  0.00  0.00    +0.000 C 
ATOM     16  C   UNL     1      -0.247  11.816  20.532  0.00  0.00    +0.000 A 
ATOM     17  C   UNL     1       0.661  10.947  19.950  0.00  0.00    +0.000 A 
ATOM     18  C   UNL     1       0.264  10.238  18.808  0.00  0.00    +0.000 A 
ATOM     19  C   UNL     1      -1.041  10.405  18.281  0.00  0.00    +0.000 A 
ATOM     20  C   UNL     1      -1.592   9.711  17.162  0.00  0.00    +0.000 A 
ATOM     21  C   UNL     1      -2.898   9.956  16.729  0.00  0.00    +0.000 A 
ATOM     22  C   UNL     1      -3.666  10.906  17.387  0.00  0.00    +0.000 A 
ATOM     23  F   UNL     1      -4.918  11.150  16.981  0.00  0.00    +0.000 F 
ATOM     24  C   UNL     1      -3.156  11.581  18.482  0.00  0.00    +0.000 A 
ATOM     25  C   UNL     1      -1.871  11.334  18.946  0.00  0.00    +0.000 A 
ATOM     26  N   UNL     1      -1.481  12.011  20.030  0.00  0.00    +0.000 NA
ENDBRANCH   1  18
TORSDOF 1
ENDMDL
MODEL 9
REMARK VINA RESULT:      -8.4      1.455      2.010
REMARK  Name = 
REMARK  2 active torsions:
REMARK  status: ('A' for Active; 'I' for Inactive)
REMARK    1  A    between atoms: C_1  and  C_2
REMARK    2  A    between atoms: C_4  and  C_5
REMARK                            x       y       z     vdW  Elec       q    Type
REMARK                         _______ _______ _______ _____ _____    ______ ____
ROOT
ATOM      1  C   UNL     1       2.065   6.000  20.121  0.00  0.00    +0.000 C 
ATOM      2  O   UNL     1       1.089   5.493  20.663  0.00  0.00    +0.000 OA
ATOM      3  N   UNL     1       2.252   7.359  19.949  0.00  0.00    +0.000 N 
ATOM      4  C   UNL     1       1.383   8.289  20.471  0.00  0.00    +0.000 A 
ATOM      5  N   UNL     1       1.129   9.459  19.929  0.00  0.00    +0.000 NA
ATOM      6  C   UNL     1       0.299  10.108  20.817  0.00  0.00    +0.000 A 
ATOM      7  C   UNL     1      -0.341  11.352  20.715  0.00  0.00    +0.000 A 
ATOM      8  C   UNL     1      -1.019  11.857  21.833  0.00  0.00    +0.000 A 
ATOM      9  C   UNL     1      -1.052  11.138  23.031  0.00  0.00    +0.000 A 
ATOM     10  C   UNL     1      -0.483   9.861  23.128  0.00  0.00    +0.000 A 
ATOM     11  C   UNL     1       0.150   9.363  21.983  0.00  0.00    +0.000 A 
ATOM     12  N   UNL     1       0.743   8.159  21.682  0.00  0.00    +0.000 N 
ATOM     13  H   UNL     1       2.871   7.705  19.227  0.00  0.00    +0.000 HD
ATOM     14  H   UNL     1       0.787   7.343  22.274  0.00  0.00    +0.000 HD
ENDROOT
BRANCH   1  18
ATOM     15  C   UNL     1       4.605   1.723  20.454  0.00  0.00    +0.000 C 
ATOM     16  C   UNL     1       4.307   3.025  19.779  0.00  0.00    +0.000 A 
ATOM     17  C   UNL     1       3.388   3.922  20.297  0.00  0.00    +0.000 A 
ATOM     18  C   UNL     1       3.169   5.121  19.606  0.00  0.00    +0.000 A 
ATOM     19  C   UNL     1       3.886   5.402  18.416  0.00  0.00    +0.000 A 
ATOM     20  C   UNL     1       3.801   6.600  17.646  0.00  0.00    +0.000 A 
ATOM     21  C   UNL     1       4.561   6.771  16.485  0.00  0.00    +0.000 A 
ATOM     22  C   UNL     1       5.398   5.748  16.063  0.00  0.00    +0.000 A 
ATOM     23  F   UNL     1       6.129   5.899  14.953  0.00  0.00    +0.000 F 
ATOM     24  C   UNL     1       5.505   4.584  16.803  0.00  0.00    +0.000 A 
ATOM     25  C   UNL     1       4.780   4.403  17.974  0.00  0.00    +0.000 A 
ATOM     26  N   UNL     1       4.978   3.260  18.635  0.00  0.00    +0.000 NA
ENDBRANCH   1  18
TORSDOF 1
ENDMDL
