MODEL 1
REMARK VINA RESULT:      -8.9      0.000      0.000
REMARK  Name = 
REMARK  4 active torsions:
REMARK  status: ('A' for Active; 'I' for Inactive)
REMARK    1  A    between atoms: C_2  and  C_11
REMARK    2  A    between atoms: N_3  and  C_4
REMARK    3  A    between atoms: N_13  and  C_14
REMARK    4  A    between atoms: C_21  and  C_22
REMARK                            x       y       z     vdW  Elec       q    Type
REMARK                         _______ _______ _______ _____ _____    ______ ____
ROOT
ATOM      1  C   UNL     1       2.341   7.247  19.373  0.00  0.00    +0.000 A 
ATOM      2  C   UNL     1       1.866   8.517  19.638  0.00  0.00    +0.000 A 
ATOM      3  N   UNL     1       1.046   8.427  20.740  0.00  0.00    +0.000 N 
ATOM      4  N   UNL     1       0.923   7.146  21.157  0.00  0.00    +0.000 NA
ATOM      5  C   UNL     1       1.681   6.411  20.327  0.00  0.00    +0.000 A 
ENDROOT
BRANCH   3   6
ATOM      6  C   UNL     1       0.385   9.490  21.418  0.00  0.00    +0.000 A 
ATOM      7  C   UNL     1      -0.326   9.264  22.606  0.00  0.00    +0.000 A 
ATOM      8  C   UNL     1      -0.969  10.323  23.252  0.00  0.00    +0.000 A 
ATOM      9  C   UNL     1      -0.910  11.608  22.719  0.00  0.00    +0.000 A 
ATOM     10  C   UNL     1      -0.210  11.841  21.536  0.00  0.00    +0.000 A 
ATOM     11  C   UNL     1       0.439  10.787  20.887  0.00  0.00    +0.000 A 
ENDBRANCH   3   6
BRANCH   5  12
ATOM     12  C   UNL     1       1.727   4.953  20.472  0.00  0.00    +0.000 A 
ATOM     13  C   UNL     1       1.144   4.092  19.537  0.00  0.00    +0.000 A 
ATOM     14  C   UNL     1       1.221   2.711  19.712  0.00  0.00    +0.000 A 
ATOM     15  C   UNL     1       1.860   2.226  20.836  0.00  0.00    +0.000 A 
ATOM     16  N   UNL     1       2.416   3.016  21.781  0.00  0.00    +0.000 NA
ATOM     17  C   UNL     1       2.334   4.357  21.575  0.00  0.00    +0.000 A 
ENDBRANCH   5  12
BRANCH   1  19
ATOM     18  O   UNL     1       3.411   7.465  17.315  0.00  0.00    +0.000 OA
ATOM     19  C   UNL     1       3.336   6.865  18.381  0.00  0.00    +0.000 C 
ATOM     20  N   UNL     1       4.132   5.789  18.734  0.00  0.00    +0.000 N 
ATOM     21  H   UNL     1       3.898   5.294  19.583  0.00  0.00    +0.000 HD
BRANCH  20  22
ATOM     22  C   UNL     1       5.180   5.249  17.956  0.00  0.00    +0.000 A 
ATOM     23  C   UNL     1       6.514   5.219  18.379  0.00  0.00    +0.000 A 
ATOM     24  C   UNL     1       7.519   4.716  17.547  0.00  0.00    +0.000 A 
ATOM     25  C   UNL     1       7.196   4.235  16.284  0.00  0.00    +0.000 A 
ATOM     26  C   UNL     1       5.868   4.238  15.878  0.00  0.00    +0.000 A 
ATOM     27  F   UNL     1       5.553   3.778  14.658  0.00  0.00    +0.000 F 
ATOM     28  C   UNL     1       4.857   4.723  16.703  0.00  0.00    +0.000 A 
ENDBRANCH  20  22
ENDBRANCH   1  19
TORSDOF 4
ENDMDL
MODEL 2
REMARK VINA RESULT:      -8.7      0.881      1.275
REMARK  Name = 
REMARK  4 active torsions:
REMARK  status: ('A' for Active; 'I' for Inactive)
REMARK    1  A    between atoms: C_2  and  C_11
REMARK    2  A    between atoms: N_3  and  C_4
REMARK    3  A    between atoms: N_13  and  C_14
REMARK    4  A    between atoms: C_21  and  C_22
REMARK                            x       y       z     vdW  Elec       q    Type
REMARK                         _______ _______ _______ _____ _____    ______ ____
ROOT
ATOM      1  C   UNL     1       2.284   7.319  19.332  0.00  0.00    +0.000 A 
ATOM      2  C   UNL     1       1.801   8.581  19.618  0.00  0.00    +0.000 A 
ATOM      3  N   UNL     1       1.015   8.475  20.742  0.00  0.00    +0.000 N 
ATOM      4  N   UNL     1       0.919   7.191  21.155  0.00  0.00    +0.000 NA
ATOM      5  C   UNL     1       1.662   6.470  20.300  0.00  0.00    +0.000 A 
ENDROOT
BRANCH   3   6
ATOM      6  C   UNL     1       0.361   9.527  21.445  0.00  0.00    +0.000 A 
ATOM      7  C   UNL     1      -0.378   9.274  22.610  0.00  0.00    +0.000 A 
ATOM      8  C   UNL     1      -1.012  10.322  23.281  0.00  0.00    +0.000 A 
ATOM      9  C   UNL     1      -0.919  11.623  22.796  0.00  0.00    +0.000 A 
ATOM     10  C   UNL     1      -0.191  11.884  21.636  0.00  0.00    +0.000 A 
ATOM     11  C   UNL     1       0.451  10.841  20.962  0.00  0.00    +0.000 A 
ENDBRANCH   3   6
BRANCH   5  12
ATOM     12  C   UNL     1       1.729   5.012  20.434  0.00  0.00    +0.000 A 
ATOM     13  C   UNL     1       1.140   4.148  19.505  0.00  0.00    +0.000 A 
ATOM     14  C   UNL     1       1.237   2.768  19.670  0.00  0.00    +0.000 A 
ATOM     15  C   UNL     1       1.903   2.284  20.779  0.00  0.00    +0.000 A 
ATOM     16  N   UNL     1       2.466   3.076  21.718  0.00  0.00    +0.000 NA
ATOM     17  C   UNL     1       2.363   4.417  21.522  0.00  0.00    +0.000 A 
ENDBRANCH   5  12
BRANCH   1  19
ATOM     18  O   UNL     1       3.403   7.657  17.317  0.00  0.00    +0.000 OA
ATOM     19  C   UNL     1       3.255   6.954  18.310  0.00  0.00    +0.000 C 
ATOM     20  N   UNL     1       3.939   5.774  18.545  0.00  0.00    +0.000 N 
ATOM     21  H   UNL     1       3.645   5.214  19.333  0.00  0.00    +0.000 HD
BRANCH  20  22
ATOM     22  C   UNL     1       4.943   5.225  17.719  0.00  0.00    +0.000 A 
ATOM     23  C   UNL     1       4.710   4.795  16.407  0.00  0.00    +0.000 A 
ATOM     24  C   UNL     1       5.731   4.214  15.649  0.00  0.00    +0.000 A 
ATOM     25  C   UNL     1       6.998   4.062  16.198  0.00  0.00    +0.000 A 
ATOM     26  C   UNL     1       7.237   4.517  17.489  0.00  0.00    +0.000 A 
ATOM     27  F   UNL     1       8.458   4.368  18.023  0.00  0.00    +0.000 F 
ATOM     28  C   UNL     1       6.231   5.110  18.247  0.00  0.00    +0.000 A 
ENDBRANCH  20  22
ENDBRANCH   1  19
TORSDOF 4
ENDMDL
MODEL 3
REMARK VINA RESULT:      -8.4      3.221      7.690
REMARK  Name = 
REMARK  4 active torsions:
REMARK  status: ('A' for Active; 'I' for Inactive)
REMARK    1  A    between atoms: C_2  and  C_11
REMARK    2  A    between atoms: N_3  and  C_4
REMARK    3  A    between atoms: N_13  and  C_14
REMARK    4  A    between atoms: C_21  and  C_22
REMARK                            x       y       z     vdW  Elec       q    Type
REMARK                         _______ _______ _______ _____ _____    ______ ____
ROOT
ATOM      1  C   UNL     1       3.570   6.306  17.608  0.00  0.00    +0.000 A 
ATOM      2  C   UNL     1       4.451   6.469  16.556  0.00  0.00    +0.000 A 
ATOM      3  N   UNL     1       4.806   5.213  16.118  0.00  0.00    +0.000 N 
ATOM      4  N   UNL     1       4.243   4.250  16.882  0.00  0.00    +0.000 NA
ATOM      5  C   UNL     1       3.508   4.891  17.806  0.00  0.00    +0.000 A 
ENDROOT
BRANCH   3   6
ATOM      6  C   UNL     1       5.641   4.884  15.013  0.00  0.00    +0.000 A 
ATOM      7  C   UNL     1       6.919   5.445  14.874  0.00  0.00    +0.000 A 
ATOM      8  C   UNL     1       7.719   5.108  13.780  0.00  0.00    +0.000 A 
ATOM      9  C   UNL     1       7.252   4.215  12.819  0.00  0.00    +0.000 A 
ATOM     10  C   UNL     1       5.982   3.656  12.947  0.00  0.00    +0.000 A 
ATOM     11  C   UNL     1       5.177   3.985  14.041  0.00  0.00    +0.000 A 
ENDBRANCH   3   6
BRANCH   5  12
ATOM     12  C   UNL     1       2.800   4.129  18.839  0.00  0.00    +0.000 A 
ATOM     13  C   UNL     1       1.417   3.926  18.800  0.00  0.00    +0.000 A 
ATOM     14  C   UNL     1       0.788   3.187  19.801  0.00  0.00    +0.000 A 
ATOM     15  C   UNL     1       1.560   2.689  20.833  0.00  0.00    +0.000 A 
ATOM     16  N   UNL     1       2.894   2.879  20.929  0.00  0.00    +0.000 NA
ATOM     17  C   UNL     1       3.478   3.595  19.932  0.00  0.00    +0.000 A 
ENDBRANCH   5  12
BRANCH   1  19
ATOM     18  O   UNL     1       2.620   7.251  19.513  0.00  0.00    +0.000 OA
ATOM     19  C   UNL     1       2.830   7.345  18.310  0.00  0.00    +0.000 C 
ATOM     20  N   UNL     1       2.382   8.385  17.513  0.00  0.00    +0.000 N 
ATOM     21  H   UNL     1       2.505   8.294  16.515  0.00  0.00    +0.000 HD
BRANCH  20  22
ATOM     22  C   UNL     1       1.667   9.516  17.962  0.00  0.00    +0.000 A 
ATOM     23  C   UNL     1       2.277  10.739  18.267  0.00  0.00    +0.000 A 
ATOM     24  C   UNL     1       1.527  11.814  18.754  0.00  0.00    +0.000 A 
ATOM     25  C   UNL     1       0.156  11.674  18.937  0.00  0.00    +0.000 A 
ATOM     26  C   UNL     1      -0.453  10.471  18.605  0.00  0.00    +0.000 A 
ATOM     27  F   UNL     1      -1.774  10.331  18.782  0.00  0.00    +0.000 F 
ATOM     28  C   UNL     1       0.283   9.399  18.106  0.00  0.00    +0.000 A 
ENDBRANCH  20  22
ENDBRANCH   1  19
TORSDOF 4
ENDMDL
MODEL 4
REMARK VINA RESULT:      -8.4      2.312      3.184
REMARK  Name = 
REMARK  4 active torsions:
REMARK  status: ('A' for Active; 'I' for Inactive)
REMARK    1  A    between atoms: C_2  and  C_11
REMARK    2  A    between atoms: N_3  and  C_4
REMARK    3  A    between atoms: N_13  and  C_14
REMARK    4  A    between atoms: C_21  and  C_22
REMARK                            x       y       z     vdW  Elec       q    Type
REMARK                         _______ _______ _______ _____ _____    ______ ____
ROOT
ATOM      1  C   UNL     1       4.016   6.449  17.447  0.00  0.00    +0.000 A 
ATOM      2  C   UNL     1       3.384   7.656  17.682  0.00  0.00    +0.000 A 
ATOM      3  N   UNL     1       2.532   7.473  18.747  0.00  0.00    +0.000 N 
ATOM      4  N   UNL     1       2.540   6.188  19.168  0.00  0.00    +0.000 NA
ATOM      5  C   UNL     1       3.416   5.545  18.378  0.00  0.00    +0.000 A 
ENDROOT
BRANCH   3   6
ATOM      6  C   UNL     1       1.722   8.454  19.387  0.00  0.00    +0.000 A 
ATOM      7  C   UNL     1       1.237   9.567  18.686  0.00  0.00    +0.000 A 
ATOM      8  C   UNL     1       0.445  10.516  19.337  0.00  0.00    +0.000 A 
ATOM      9  C   UNL     1       0.135  10.365  20.685  0.00  0.00    +0.000 A 
ATOM     10  C   UNL     1       0.617   9.264  21.391  0.00  0.00    +0.000 A 
ATOM     11  C   UNL     1       1.406   8.307  20.746  0.00  0.00    +0.000 A 
ENDBRANCH   3   6
BRANCH   5  12
ATOM     12  C   UNL     1       3.624   4.102  18.535  0.00  0.00    +0.000 A 
ATOM     13  C   UNL     1       2.950   3.161  17.751  0.00  0.00    +0.000 A 
ATOM     14  C   UNL     1       3.188   1.799  17.931  0.00  0.00    +0.000 A 
ATOM     15  C   UNL     1       4.080   1.412  18.912  0.00  0.00    +0.000 A 
ATOM     16  N   UNL     1       4.736   2.280  19.712  0.00  0.00    +0.000 NA
ATOM     17  C   UNL     1       4.491   3.601  19.504  0.00  0.00    +0.000 A 
ENDBRANCH   5  12
BRANCH   1  19
ATOM     18  O   UNL     1       6.165   6.767  16.607  0.00  0.00    +0.000 OA
ATOM     19  C   UNL     1       5.092   6.184  16.504  0.00  0.00    +0.000 C 
ATOM     20  N   UNL     1       4.787   5.273  15.507  0.00  0.00    +0.000 N 
ATOM     21  H   UNL     1       3.831   4.951  15.447  0.00  0.00    +0.000 HD
BRANCH  20  22
ATOM     22  C   UNL     1       5.667   4.834  14.495  0.00  0.00    +0.000 A 
ATOM     23  C   UNL     1       6.961   5.341  14.328  0.00  0.00    +0.000 A 
ATOM     24  C   UNL     1       7.774   4.904  13.277  0.00  0.00    +0.000 A 
ATOM     25  C   UNL     1       7.298   3.951  12.385  0.00  0.00    +0.000 A 
ATOM     26  C   UNL     1       6.026   3.426  12.570  0.00  0.00    +0.000 A 
ATOM     27  F   UNL     1       5.562   2.508  11.709  0.00  0.00    +0.000 F 
ATOM     28  C   UNL     1       5.214   3.844  13.620  0.00  0.00    +0.000 A 
ENDBRANCH  20  22
ENDBRANCH   1  19
TORSDOF 4
ENDMDL
MODEL 5
REMARK VINA RESULT:      -8.3      3.227      7.694
REMARK  Name = 
REMARK  4 active torsions:
REMARK  status: ('A' for Active; 'I' for Inactive)
REMARK    1  A    between atoms: C_2  and  C_11
REMARK    2  A    between atoms: N_3  and  C_4
REMARK    3  A    between atoms: N_13  and  C_14
REMARK    4  A    between atoms: C_21  and  C_22
REMARK                            x       y       z     vdW  Elec       q    Type
REMARK                         _______ _______ _______ _____ _____    ______ ____
ROOT
ATOM      1  C   UNL     1       3.497   6.345  17.667  0.00  0.00    +0.000 A 
ATOM      2  C   UNL     1       4.393   6.510  16.628  0.00  0.00    +0.000 A 
ATOM      3  N   UNL     1       4.750   5.256  16.190  0.00  0.00    +0.000 N 
ATOM      4  N   UNL     1       4.173   4.290  16.941  0.00  0.00    +0.000 NA
ATOM      5  C   UNL     1       3.428   4.930  17.858  0.00  0.00    +0.000 A 
ENDROOT
BRANCH   3   6
ATOM      6  C   UNL     1       5.600   4.929  15.095  0.00  0.00    +0.000 A 
ATOM      7  C   UNL     1       6.866   5.517  14.955  0.00  0.00    +0.000 A 
ATOM      8  C   UNL     1       7.680   5.181  13.872  0.00  0.00    +0.000 A 
ATOM      9  C   UNL     1       7.239   4.264  12.921  0.00  0.00    +0.000 A 
ATOM     10  C   UNL     1       5.981   3.679  13.049  0.00  0.00    +0.000 A 
ATOM     11  C   UNL     1       5.162   4.006  14.133  0.00  0.00    +0.000 A 
ENDBRANCH   3   6
BRANCH   5  12
ATOM     12  C   UNL     1       2.703   4.165  18.877  0.00  0.00    +0.000 A 
ATOM     13  C   UNL     1       1.357   3.814  18.730  0.00  0.00    +0.000 A 
ATOM     14  C   UNL     1       0.712   3.078  19.723  0.00  0.00    +0.000 A 
ATOM     15  C   UNL     1       1.426   2.732  20.853  0.00  0.00    +0.000 A 
ATOM     16  N   UNL     1       2.719   3.069  21.054  0.00  0.00    +0.000 NA
ATOM     17  C   UNL     1       3.323   3.777  20.062  0.00  0.00    +0.000 A 
ENDBRANCH   5  12
BRANCH   1  19
ATOM     18  O   UNL     1       2.500   7.271  19.557  0.00  0.00    +0.000 OA
ATOM     19  C   UNL     1       2.750   7.383  18.364  0.00  0.00    +0.000 C 
ATOM     20  N   UNL     1       2.345   8.444  17.573  0.00  0.00    +0.000 N 
ATOM     21  H   UNL     1       2.500   8.370  16.577  0.00  0.00    +0.000 HD
BRANCH  20  22
ATOM     22  C   UNL     1       1.634   9.579  18.019  0.00  0.00    +0.000 A 
ATOM     23  C   UNL     1       0.257   9.574  18.271  0.00  0.00    +0.000 A 
ATOM     24  C   UNL     1      -0.406  10.740  18.665  0.00  0.00    +0.000 A 
ATOM     25  C   UNL     1       0.307  11.923  18.814  0.00  0.00    +0.000 A 
ATOM     26  C   UNL     1       1.678  11.921  18.593  0.00  0.00    +0.000 A 
ATOM     27  F   UNL     1       2.368  13.062  18.733  0.00  0.00    +0.000 F 
ATOM     28  C   UNL     1       2.350  10.762  18.214  0.00  0.00    +0.000 A 
ENDBRANCH  20  22
ENDBRANCH   1  19
TORSDOF 4
ENDMDL
MODEL 6
REMARK VINA RESULT:      -8.2      3.238      7.635
REMARK  Name = 
REMARK  4 active torsions:
REMARK  status: ('A' for Active; 'I' for Inactive)
REMARK    1  A    between atoms: C_2  and  C_11
REMARK    2  A    between atoms: N_3  and  C_4
REMARK    3  A    between atoms: N_13  and  C_14
REMARK    4  A    between atoms: C_21  and  C_22
REMARK                            x       y       z     vdW  Elec       q    Type
REMARK                         _______ _______ _______ _____ _____    ______ ____
ROOT
ATOM      1  C   UNL     1       3.275   6.559  17.944  0.00  0.00    +0.000 A 
ATOM      2  C   UNL     1       4.198   6.705  16.926  0.00  0.00    +0.000 A 
ATOM      3  N   UNL     1       4.605   5.443  16.557  0.00  0.00    +0.000 N 
ATOM      4  N   UNL     1       4.034   4.495  17.334  0.00  0.00    +0.000 NA
ATOM      5  C   UNL     1       3.242   5.152  18.197  0.00  0.00    +0.000 A 
ENDROOT
BRANCH   3   6
ATOM      6  C   UNL     1       5.498   5.094  15.504  0.00  0.00    +0.000 A 
ATOM      7  C   UNL     1       6.830   5.533  15.504  0.00  0.00    +0.000 A 
ATOM      8  C   UNL     1       7.686   5.178  14.459  0.00  0.00    +0.000 A 
ATOM      9  C   UNL     1       7.222   4.390  13.409  0.00  0.00    +0.000 A 
ATOM     10  C   UNL     1       5.898   3.954  13.398  0.00  0.00    +0.000 A 
ATOM     11  C   UNL     1       5.037   4.300  14.443  0.00  0.00    +0.000 A 
ENDBRANCH   3   6
BRANCH   5  12
ATOM     12  C   UNL     1       2.508   4.412  19.229  0.00  0.00    +0.000 A 
ATOM     13  C   UNL     1       2.920   4.387  20.565  0.00  0.00    +0.000 A 
ATOM     14  C   UNL     1       2.185   3.676  21.513  0.00  0.00    +0.000 A 
ATOM     15  C   UNL     1       1.064   2.986  21.092  0.00  0.00    +0.000 A 
ATOM     16  N   UNL     1       0.640   2.958  19.810  0.00  0.00    +0.000 NA
ATOM     17  C   UNL     1       1.372   3.670  18.913  0.00  0.00    +0.000 A 
ENDBRANCH   5  12
BRANCH   1  19
ATOM     18  O   UNL     1       2.235   7.564  19.770  0.00  0.00    +0.000 OA
ATOM     19  C   UNL     1       2.477   7.603  18.570  0.00  0.00    +0.000 C 
ATOM     20  N   UNL     1       2.015   8.583  17.708  0.00  0.00    +0.000 N 
ATOM     21  H   UNL     1       2.171   8.446  16.720  0.00  0.00    +0.000 HD
BRANCH  20  22
ATOM     22  C   UNL     1       1.247   9.709  18.077  0.00  0.00    +0.000 A 
ATOM     23  C   UNL     1       1.809  10.916  18.508  0.00  0.00    +0.000 A 
ATOM     24  C   UNL     1       0.999  11.983  18.907  0.00  0.00    +0.000 A 
ATOM     25  C   UNL     1      -0.384  11.852  18.875  0.00  0.00    +0.000 A 
ATOM     26  C   UNL     1      -0.941  10.665  18.418  0.00  0.00    +0.000 A 
ATOM     27  F   UNL     1      -2.275  10.533  18.389  0.00  0.00    +0.000 F 
ATOM     28  C   UNL     1      -0.144   9.601  18.005  0.00  0.00    +0.000 A 
ENDBRANCH  20  22
ENDBRANCH   1  19
TORSDOF 4
ENDMDL
MODEL 7
REMARK VINA RESULT:      -8.2      2.991      8.010
REMARK  Name = 
REMARK  4 active torsions:
REMARK  status: ('A' for Active; 'I' for Inactive)
REMARK    1  A    between atoms: C_2  and  C_11
REMARK    2  A    between atoms: N_3  and  C_4
REMARK    3  A    between atoms: N_13  and  C_14
REMARK    4  A    between atoms: C_21  and  C_22
REMARK                            x       y       z     vdW  Elec       q    Type
REMARK                         _______ _______ _______ _____ _____    ______ ____
ROOT
ATOM      1  C   UNL     1       4.441   5.927  16.889  0.00  0.00    +0.000 A 
ATOM      2  C   UNL     1       5.208   5.999  15.742  0.00  0.00    +0.000 A 
ATOM      3  N   UNL     1       5.257   4.735  15.201  0.00  0.00    +0.000 N 
ATOM      4  N   UNL     1       4.609   3.841  15.981  0.00  0.00    +0.000 NA
ATOM      5  C   UNL     1       4.127   4.539  17.022  0.00  0.00    +0.000 A 
ENDROOT
BRANCH   3   6
ATOM      6  C   UNL     1       5.877   4.337  13.982  0.00  0.00    +0.000 A 
ATOM      7  C   UNL     1       7.111   4.873  13.585  0.00  0.00    +0.000 A 
ATOM      8  C   UNL     1       7.698   4.467  12.384  0.00  0.00    +0.000 A 
ATOM      9  C   UNL     1       7.061   3.533  11.573  0.00  0.00    +0.000 A 
ATOM     10  C   UNL     1       5.833   2.998  11.957  0.00  0.00    +0.000 A 
ATOM     11  C   UNL     1       5.241   3.395  13.159  0.00  0.00    +0.000 A 
ENDBRANCH   3   6
BRANCH   5  12
ATOM     12  C   UNL     1       3.408   3.849  18.098  0.00  0.00    +0.000 A 
ATOM     13  C   UNL     1       2.032   3.604  18.039  0.00  0.00    +0.000 A 
ATOM     14  C   UNL     1       1.393   2.937  19.083  0.00  0.00    +0.000 A 
ATOM     15  C   UNL     1       2.146   2.552  20.175  0.00  0.00    +0.000 A 
ATOM     16  N   UNL     1       3.472   2.788  20.291  0.00  0.00    +0.000 NA
ATOM     17  C   UNL     1       4.067   3.430  19.252  0.00  0.00    +0.000 A 
ENDBRANCH   5  12
BRANCH   1  19
ATOM     18  O   UNL     1       4.821   7.833  18.173  0.00  0.00    +0.000 OA
ATOM     19  C   UNL     1       4.006   7.032  17.732  0.00  0.00    +0.000 C 
ATOM     20  N   UNL     1       2.648   7.066  17.998  0.00  0.00    +0.000 N 
ATOM     21  H   UNL     1       2.091   6.283  17.685  0.00  0.00    +0.000 HD
BRANCH  20  22
ATOM     22  C   UNL     1       1.983   8.048  18.764  0.00  0.00    +0.000 A 
ATOM     23  C   UNL     1       1.496   9.244  18.225  0.00  0.00    +0.000 A 
ATOM     24  C   UNL     1       0.887  10.204  19.040  0.00  0.00    +0.000 A 
ATOM     25  C   UNL     1       0.759   9.971  20.404  0.00  0.00    +0.000 A 
ATOM     26  C   UNL     1       1.215   8.771  20.933  0.00  0.00    +0.000 A 
ATOM     27  F   UNL     1       1.096   8.545  22.249  0.00  0.00    +0.000 F 
ATOM     28  C   UNL     1       1.810   7.803  20.128  0.00  0.00    +0.000 A 
ENDBRANCH  20  22
ENDBRANCH   1  19
TORSDOF 4
ENDMDL
MODEL 8
REMARK VINA RESULT:      -8.1      2.949      7.961
REMARK  Name = 
REMARK  4 active torsions:
REMARK  status: ('A' for Active; 'I' for Inactive)
REMARK    1  A    between atoms: C_2  and  C_11
REMARK    2  A    between atoms: N_3  and  C_4
REMARK    3  A    between atoms: N_13  and  C_14
REMARK    4  A    between atoms: C_21  and  C_22
REMARK                            x       y       z     vdW  Elec       q    Type
REMARK                         _______ _______ _______ _____ _____    ______ ____
ROOT
ATOM      1  C   UNL     1       4.430   5.899  16.914  0.00  0.00    +0.000 A 
ATOM      2  C   UNL     1       5.215   5.981  15.780  0.00  0.00    +0.000 A 
ATOM      3  N   UNL     1       5.250   4.728  15.213  0.00  0.00    +0.000 N 
ATOM      4  N   UNL     1       4.574   3.829  15.965  0.00  0.00    +0.000 NA
ATOM      5  C   UNL     1       4.089   4.514  17.013  0.00  0.00    +0.000 A 
ENDROOT
BRANCH   3   6
ATOM      6  C   UNL     1       5.881   4.343  13.996  0.00  0.00    +0.000 A 
ATOM      7  C   UNL     1       7.111   4.895  13.609  0.00  0.00    +0.000 A 
ATOM      8  C   UNL     1       7.710   4.503  12.409  0.00  0.00    +0.000 A 
ATOM      9  C   UNL     1       7.088   3.567  11.588  0.00  0.00    +0.000 A 
ATOM     10  C   UNL     1       5.863   3.017  11.962  0.00  0.00    +0.000 A 
ATOM     11  C   UNL     1       5.260   3.400  13.163  0.00  0.00    +0.000 A 
ENDBRANCH   3   6
BRANCH   5  12
ATOM     12  C   UNL     1       3.342   3.816  18.064  0.00  0.00    +0.000 A 
ATOM     13  C   UNL     1       1.996   3.465  17.915  0.00  0.00    +0.000 A 
ATOM     14  C   UNL     1       1.329   2.793  18.939  0.00  0.00    +0.000 A 
ATOM     15  C   UNL     1       2.022   2.510  20.099  0.00  0.00    +0.000 A 
ATOM     16  N   UNL     1       3.314   2.850  20.302  0.00  0.00    +0.000 NA
ATOM     17  C   UNL     1       3.939   3.494  19.280  0.00  0.00    +0.000 A 
ENDBRANCH   5  12
BRANCH   1  19
ATOM     18  O   UNL     1       4.802   7.847  18.135  0.00  0.00    +0.000 OA
ATOM     19  C   UNL     1       4.001   6.994  17.773  0.00  0.00    +0.000 C 
ATOM     20  N   UNL     1       2.669   6.958  18.147  0.00  0.00    +0.000 N 
ATOM     21  H   UNL     1       2.135   6.139  17.891  0.00  0.00    +0.000 HD
BRANCH  20  22
ATOM     22  C   UNL     1       2.013   7.916  18.951  0.00  0.00    +0.000 A 
ATOM     23  C   UNL     1       1.796   7.748  20.323  0.00  0.00    +0.000 A 
ATOM     24  C   UNL     1       1.098   8.708  21.062  0.00  0.00    +0.000 A 
ATOM     25  C   UNL     1       0.613   9.848  20.432  0.00  0.00    +0.000 A 
ATOM     26  C   UNL     1       0.855  10.027  19.076  0.00  0.00    +0.000 A 
ATOM     27  F   UNL     1       0.386  11.124  18.464  0.00  0.00    +0.000 F 
ATOM     28  C   UNL     1       1.561   9.085  18.334  0.00  0.00    +0.000 A 
ENDBRANCH  20  22
ENDBRANCH   1  19
TORSDOF 4
ENDMDL
MODEL 9
REMARK VINA RESULT:      -8.1      2.391      3.195
REMARK  Name = 
REMARK  4 active torsions:
REMARK  status: ('A' for Active; 'I' for Inactive)
REMARK    1  A    between atoms: C_2  and  C_11
REMARK    2  A    between atoms: N_3  and  C_4
REMARK    3  A    between atoms: N_13  and  C_14
REMARK    4  A    between atoms: C_21  and  C_22
REMARK                            x       y       z     vdW  Elec       q    Type
REMARK                         _______ _______ _______ _____ _____    ______ ____
ROOT
ATOM      1  C   UNL     1       4.009   6.465  17.427  0.00  0.00    +0.000 A 
ATOM      2  C   UNL     1       3.414   7.691  17.656  0.00  0.00    +0.000 A 
ATOM      3  N   UNL     1       2.524   7.528  18.693  0.00  0.00    +0.000 N 
ATOM      4  N   UNL     1       2.474   6.239  19.100  0.00  0.00    +0.000 NA
ATOM      5  C   UNL     1       3.349   5.573  18.329  0.00  0.00    +0.000 A 
ENDROOT
BRANCH   3   6
ATOM      6  C   UNL     1       1.730   8.531  19.320  0.00  0.00    +0.000 A 
ATOM      7  C   UNL     1       1.366   8.431  20.670  0.00  0.00    +0.000 A 
ATOM      8  C   UNL     1       0.585   9.426  21.262  0.00  0.00    +0.000 A 
ATOM      9  C   UNL     1       0.160  10.521  20.514  0.00  0.00    +0.000 A 
ATOM     10  C   UNL     1       0.512  10.626  19.170  0.00  0.00    +0.000 A 
ATOM     11  C   UNL     1       1.298   9.636  18.572  0.00  0.00    +0.000 A 
ENDBRANCH   3   6
BRANCH   5  12
ATOM     12  C   UNL     1       3.501   4.122  18.476  0.00  0.00    +0.000 A 
ATOM     13  C   UNL     1       4.342   3.554  19.439  0.00  0.00    +0.000 A 
ATOM     14  C   UNL     1       4.448   2.169  19.548  0.00  0.00    +0.000 A 
ATOM     15  C   UNL     1       3.725   1.384  18.670  0.00  0.00    +0.000 A 
ATOM     16  N   UNL     1       2.920   1.884  17.708  0.00  0.00    +0.000 NA
ATOM     17  C   UNL     1       2.830   3.238  17.635  0.00  0.00    +0.000 A 
ENDBRANCH   5  12
BRANCH   1  19
ATOM     18  O   UNL     1       6.203   6.684  16.677  0.00  0.00    +0.000 OA
ATOM     19  C   UNL     1       5.103   6.171  16.512  0.00  0.00    +0.000 C 
ATOM     20  N   UNL     1       4.783   5.317  15.470  0.00  0.00    +0.000 N 
ATOM     21  H   UNL     1       3.813   5.055  15.364  0.00  0.00    +0.000 HD
BRANCH  20  22
ATOM     22  C   UNL     1       5.673   4.864  14.474  0.00  0.00    +0.000 A 
ATOM     23  C   UNL     1       6.968   5.370  14.312  0.00  0.00    +0.000 A 
ATOM     24  C   UNL     1       7.792   4.918  13.276  0.00  0.00    +0.000 A 
ATOM     25  C   UNL     1       7.326   3.951  12.394  0.00  0.00    +0.000 A 
ATOM     26  C   UNL     1       6.053   3.427  12.574  0.00  0.00    +0.000 A 
ATOM     27  F   UNL     1       5.599   2.495  11.723  0.00  0.00    +0.000 F 
ATOM     28  C   UNL     1       5.230   3.859  13.610  0.00  0.00    +0.000 A 
ENDBRANCH  20  22
ENDBRANCH   1  19
TORSDOF 4
ENDMDL
