MODEL 1
REMARK VINA RESULT:      -8.8      0.000      0.000
REMARK  Name = 
REMARK  5 active torsions:
REMARK  status: ('A' for Active; 'I' for Inactive)
REMARK    1  A    between atoms: C_2  and  C_3
REMARK    2  A    between atoms: C_3  and  N_4
REMARK    3  A    between atoms: N_16  and  C_17
REMARK    4  A    between atoms: C_17  and  C_18
REMARK    5  A    between atoms: C_21  and  C_22
REMARK                            x       y       z     vdW  Elec       q    Type
REMARK                         _______ _______ _______ _____ _____    ______ ____
ROOT
ATOM      1  O   UNL     1       7.596   6.080  15.751  0.00  0.00    +0.000 OA
ATOM      2  C   UNL     1       7.263   6.024  16.932  0.00  0.00    +0.000 C 
ATOM      3  N   UNL     1       6.996   7.141  17.690  0.00  0.00    +0.000 N 
ATOM      4  H   UNL     1       6.405   7.026  18.514  0.00  0.00    +0.000 HD
ENDROOT
BRANCH   2   5
ATOM      5  C   UNL     1       7.058   4.710  17.679  0.00  0.00    +0.000 C 
BRANCH   5   6
ATOM      6  N   UNL     1       5.642   4.421  17.817  0.00  0.00    +0.000 N 
ATOM      7  C   UNL     1       5.000   3.790  16.766  0.00  0.00    +0.000 A 
ATOM      8  O   UNL     1       5.540   3.487  15.704  0.00  0.00    +0.000 OA
ATOM      9  N   UNL     1       3.689   3.459  16.958  0.00  0.00    +0.000 N 
ATOM     10  C   UNL     1       2.987   3.714  18.131  0.00  0.00    +0.000 A 
ATOM     11  C   UNL     1       1.669   3.274  18.264  0.00  0.00    +0.000 A 
ATOM     12  C   UNL     1       0.972   3.536  19.444  0.00  0.00    +0.000 A 
ATOM     13  C   UNL     1       1.585   4.242  20.482  0.00  0.00    +0.000 A 
ATOM     14  C   UNL     1       2.906   4.676  20.347  0.00  0.00    +0.000 A 
ATOM     15  C   UNL     1       3.608   4.401  19.169  0.00  0.00    +0.000 A 
ATOM     16  C   UNL     1       5.017   4.808  19.002  0.00  0.00    +0.000 A 
ATOM     17  O   UNL     1       5.586   5.455  19.880  0.00  0.00    +0.000 OA
ATOM     18  H   UNL     1       3.247   2.979  16.183  0.00  0.00    +0.000 HD
ENDBRANCH   5   6
ENDBRANCH   2   5
BRANCH   3  19
ATOM     19  C   UNL     1       7.088   8.468  17.135  0.00  0.00    +0.000 C 
BRANCH  19  20
ATOM     20  C   UNL     1       8.078   9.238  17.926  0.00  0.00    +0.000 A 
ATOM     21  C   UNL     1       8.800   8.935  19.061  0.00  0.00    +0.000 A 
ATOM     22  C   UNL     1       9.557  10.087  19.369  0.00  0.00    +0.000 A 
ATOM     23  C   UNL     1       9.274  11.025  18.394  0.00  0.00    +0.000 A 
ATOM     24  O   UNL     1       8.371  10.507  17.509  0.00  0.00    +0.000 OA
BRANCH  23  25
ATOM     25  C   UNL     1       9.770  12.373  18.137  0.00  0.00    +0.000 A 
ATOM     26  C   UNL     1       9.016  13.506  18.467  0.00  0.00    +0.000 A 
ATOM     27  C   UNL     1       9.440  14.784  18.082  0.00  0.00    +0.000 A 
ATOM     28  C   UNL     1      10.632  14.936  17.378  0.00  0.00    +0.000 A 
ATOM     29 CL   UNL     1      11.121  16.496  16.843  0.00  0.00    +0.000 Cl
ATOM     30  C   UNL     1      11.422  13.827  17.086  0.00  0.00    +0.000 A 
ATOM     31  C   UNL     1      10.993  12.553  17.468  0.00  0.00    +0.000 A 
ENDBRANCH  23  25
ENDBRANCH  19  20
ENDBRANCH   3  19
TORSDOF 5
ENDMDL
MODEL 2
REMARK VINA RESULT:      -8.5      6.279      9.152
REMARK  Name = 
REMARK  5 active torsions:
REMARK  status: ('A' for Active; 'I' for Inactive)
REMARK    1  A    between atoms: C_2  and  C_3
REMARK    2  A    between atoms: C_3  and  N_4
REMARK    3  A    between atoms: N_16  and  C_17
REMARK    4  A    between atoms: C_17  and  C_18
REMARK    5  A    between atoms: C_21  and  C_22
REMARK                            x       y       z     vdW  Elec       q    Type
REMARK                         _______ _______ _______ _____ _____    ______ ____
ROOT
ATOM      1  O   UNL     1       0.184   9.062  22.169  0.00  0.00    +0.000 OA
ATOM      2  C   UNL     1       0.912   9.119  21.181  0.00  0.00    +0.000 C 
ATOM      3  N   UNL     1       1.610   8.034  20.700  0.00  0.00    +0.000 N 
ATOM      4  H   UNL     1       1.895   8.049  19.721  0.00  0.00    +0.000 HD
ENDROOT
BRANCH   2   5
ATOM      5  C   UNL     1       1.084  10.382  20.344  0.00  0.00    +0.000 C 
BRANCH   5   6
ATOM      6  N   UNL     1       0.054  10.458  19.324  0.00  0.00    +0.000 N 
ATOM      7  C   UNL     1       0.283   9.822  18.117  0.00  0.00    +0.000 A 
ATOM      8  O   UNL     1       1.319   9.224  17.833  0.00  0.00    +0.000 OA
ATOM      9  N   UNL     1      -0.737   9.842  17.209  0.00  0.00    +0.000 N 
ATOM     10  C   UNL     1      -1.967  10.451  17.436  0.00  0.00    +0.000 A 
ATOM     11  C   UNL     1      -2.976  10.359  16.477  0.00  0.00    +0.000 A 
ATOM     12  C   UNL     1      -4.207  10.975  16.712  0.00  0.00    +0.000 A 
ATOM     13  C   UNL     1      -4.423  11.687  17.895  0.00  0.00    +0.000 A 
ATOM     14  C   UNL     1      -3.411  11.772  18.854  0.00  0.00    +0.000 A 
ATOM     15  C   UNL     1      -2.183  11.144  18.622  0.00  0.00    +0.000 A 
ATOM     16  C   UNL     1      -1.102  11.177  19.627  0.00  0.00    +0.000 A 
ATOM     17  O   UNL     1      -1.241  11.816  20.669  0.00  0.00    +0.000 OA
ATOM     18  H   UNL     1      -0.553   9.352  16.342  0.00  0.00    +0.000 HD
ENDBRANCH   5   6
ENDBRANCH   2   5
BRANCH   3  19
ATOM     19  C   UNL     1       1.527   6.743  21.335  0.00  0.00    +0.000 C 
BRANCH  19  20
ATOM     20  C   UNL     1       1.798   5.703  20.314  0.00  0.00    +0.000 A 
ATOM     21  C   UNL     1       1.256   4.455  20.089  0.00  0.00    +0.000 A 
ATOM     22  C   UNL     1       1.950   3.913  18.984  0.00  0.00    +0.000 A 
ATOM     23  C   UNL     1       2.864   4.867  18.578  0.00  0.00    +0.000 A 
ATOM     24  O   UNL     1       2.772   5.964  19.389  0.00  0.00    +0.000 OA
BRANCH  23  25
ATOM     25  C   UNL     1       3.822   4.922  17.480  0.00  0.00    +0.000 A 
ATOM     26  C   UNL     1       4.328   3.756  16.890  0.00  0.00    +0.000 A 
ATOM     27  C   UNL     1       5.354   3.822  15.940  0.00  0.00    +0.000 A 
ATOM     28  C   UNL     1       5.868   5.060  15.560  0.00  0.00    +0.000 A 
ATOM     29 CL   UNL     1       7.175   5.143  14.445  0.00  0.00    +0.000 Cl
ATOM     30  C   UNL     1       5.343   6.233  16.096  0.00  0.00    +0.000 A 
ATOM     31  C   UNL     1       4.322   6.162  17.048  0.00  0.00    +0.000 A 
ENDBRANCH  23  25
ENDBRANCH  19  20
ENDBRANCH   3  19
TORSDOF 5
ENDMDL
MODEL 3
REMARK VINA RESULT:      -8.5      5.207      6.919
REMARK  Name = 
REMARK  5 active torsions:
REMARK  status: ('A' for Active; 'I' for Inactive)
REMARK    1  A    between atoms: C_2  and  C_3
REMARK    2  A    between atoms: C_3  and  N_4
REMARK    3  A    between atoms: N_16  and  C_17
REMARK    4  A    between atoms: C_17  and  C_18
REMARK    5  A    between atoms: C_21  and  C_22
REMARK                            x       y       z     vdW  Elec       q    Type
REMARK                         _______ _______ _______ _____ _____    ______ ____
ROOT
ATOM      1  O   UNL     1       0.986   4.263  20.112  0.00  0.00    +0.000 OA
ATOM      2  C   UNL     1       2.168   4.522  20.319  0.00  0.00    +0.000 C 
ATOM      3  N   UNL     1       2.607   5.771  20.698  0.00  0.00    +0.000 N 
ATOM      4  H   UNL     1       3.503   5.832  21.181  0.00  0.00    +0.000 HD
ENDROOT
BRANCH   2   5
ATOM      5  C   UNL     1       3.277   3.479  20.231  0.00  0.00    +0.000 C 
BRANCH   5   6
ATOM      6  N   UNL     1       3.958   3.570  18.952  0.00  0.00    +0.000 N 
ATOM      7  C   UNL     1       3.421   2.881  17.878  0.00  0.00    +0.000 A 
ATOM      8  O   UNL     1       2.424   2.165  17.941  0.00  0.00    +0.000 OA
ATOM      9  N   UNL     1       4.036   3.052  16.671  0.00  0.00    +0.000 N 
ATOM     10  C   UNL     1       5.144   3.869  16.472  0.00  0.00    +0.000 A 
ATOM     11  C   UNL     1       5.663   4.038  15.187  0.00  0.00    +0.000 A 
ATOM     12  C   UNL     1       6.776   4.859  14.997  0.00  0.00    +0.000 A 
ATOM     13  C   UNL     1       7.373   5.498  16.086  0.00  0.00    +0.000 A 
ATOM     14  C   UNL     1       6.848   5.329  17.370  0.00  0.00    +0.000 A 
ATOM     15  C   UNL     1       5.725   4.517  17.557  0.00  0.00    +0.000 A 
ATOM     16  C   UNL     1       5.116   4.344  18.891  0.00  0.00    +0.000 A 
ATOM     17  O   UNL     1       5.627   4.866  19.880  0.00  0.00    +0.000 OA
ATOM     18  H   UNL     1       3.613   2.555  15.897  0.00  0.00    +0.000 HD
ENDBRANCH   5   6
ENDBRANCH   2   5
BRANCH   3  19
ATOM     19  C   UNL     1       1.692   6.868  20.881  0.00  0.00    +0.000 C 
BRANCH  19  20
ATOM     20  C   UNL     1       1.823   7.784  19.723  0.00  0.00    +0.000 A 
ATOM     21  C   UNL     1       2.370   7.625  18.467  0.00  0.00    +0.000 A 
ATOM     22  C   UNL     1       2.231   8.869  17.812  0.00  0.00    +0.000 A 
ATOM     23  C   UNL     1       1.586   9.716  18.694  0.00  0.00    +0.000 A 
ATOM     24  O   UNL     1       1.334   9.054  19.863  0.00  0.00    +0.000 OA
BRANCH  23  25
ATOM     25  C   UNL     1       1.122  11.095  18.588  0.00  0.00    +0.000 A 
ATOM     26  C   UNL     1       2.018  12.160  18.424  0.00  0.00    +0.000 A 
ATOM     27  C   UNL     1       1.570  13.485  18.471  0.00  0.00    +0.000 A 
ATOM     28  C   UNL     1       0.217  13.752  18.666  0.00  0.00    +0.000 A 
ATOM     29 CL   UNL     1      -0.328  15.379  18.794  0.00  0.00    +0.000 Cl
ATOM     30  C   UNL     1      -0.697  12.708  18.779  0.00  0.00    +0.000 A 
ATOM     31  C   UNL     1      -0.245  11.387  18.736  0.00  0.00    +0.000 A 
ENDBRANCH  23  25
ENDBRANCH  19  20
ENDBRANCH   3  19
TORSDOF 5
ENDMDL
MODEL 4
REMARK VINA RESULT:      -8.4      6.722      9.505
REMARK  Name = 
REMARK  5 active torsions:
REMARK  status: ('A' for Active; 'I' for Inactive)
REMARK    1  A    between atoms: C_2  and  C_3
REMARK    2  A    between atoms: C_3  and  N_4
REMARK    3  A    between atoms: N_16  and  C_17
REMARK    4  A    between atoms: C_17  and  C_18
REMARK    5  A    between atoms: C_21  and  C_22
REMARK                            x       y       z     vdW  Elec       q    Type
REMARK                         _______ _______ _______ _____ _____    ______ ____
ROOT
ATOM      1  O   UNL     1      -0.218   9.641  21.951  0.00  0.00    +0.000 OA
ATOM      2  C   UNL     1       0.530   9.660  20.977  0.00  0.00    +0.000 C 
ATOM      3  N   UNL     1       1.341   8.601  20.634  0.00  0.00    +0.000 N 
ATOM      4  H   UNL     1       1.652   8.537  19.665  0.00  0.00    +0.000 HD
ENDROOT
BRANCH   2   5
ATOM      5  C   UNL     1       0.608  10.835  20.009  0.00  0.00    +0.000 C 
BRANCH   5   6
ATOM      6  N   UNL     1      -0.638  10.971  19.276  0.00  0.00    +0.000 N 
ATOM      7  C   UNL     1      -1.599  11.829  19.780  0.00  0.00    +0.000 A 
ATOM      8  O   UNL     1      -1.486  12.460  20.829  0.00  0.00    +0.000 OA
ATOM      9  N   UNL     1      -2.726  11.998  19.027  0.00  0.00    +0.000 N 
ATOM     10  C   UNL     1      -2.945  11.371  17.805  0.00  0.00    +0.000 A 
ATOM     11  C   UNL     1      -4.096  11.660  17.070  0.00  0.00    +0.000 A 
ATOM     12  C   UNL     1      -4.309  11.023  15.846  0.00  0.00    +0.000 A 
ATOM     13  C   UNL     1      -3.381  10.096  15.365  0.00  0.00    +0.000 A 
ATOM     14  C   UNL     1      -2.229   9.813  16.101  0.00  0.00    +0.000 A 
ATOM     15  C   UNL     1      -2.011  10.462  17.321  0.00  0.00    +0.000 A 
ATOM     16  C   UNL     1      -0.787  10.220  18.111  0.00  0.00    +0.000 A 
ATOM     17  O   UNL     1       0.041   9.391  17.737  0.00  0.00    +0.000 OA
ATOM     18  H   UNL     1      -3.405  12.647  19.405  0.00  0.00    +0.000 HD
ENDBRANCH   5   6
ENDBRANCH   2   5
BRANCH   3  19
ATOM     19  C   UNL     1       1.359   7.385  21.407  0.00  0.00    +0.000 C 
BRANCH  19  20
ATOM     20  C   UNL     1       1.692   6.260  20.499  0.00  0.00    +0.000 A 
ATOM     21  C   UNL     1       1.172   4.991  20.362  0.00  0.00    +0.000 A 
ATOM     22  C   UNL     1       1.926   4.361  19.347  0.00  0.00    +0.000 A 
ATOM     23  C   UNL     1       2.852   5.286  18.902  0.00  0.00    +0.000 A 
ATOM     24  O   UNL     1       2.709   6.450  19.605  0.00  0.00    +0.000 OA
BRANCH  23  25
ATOM     25  C   UNL     1       3.865   5.254  17.853  0.00  0.00    +0.000 A 
ATOM     26  C   UNL     1       4.286   6.423  17.205  0.00  0.00    +0.000 A 
ATOM     27  C   UNL     1       5.148   6.358  16.104  0.00  0.00    +0.000 A 
ATOM     28  C   UNL     1       5.609   5.122  15.656  0.00  0.00    +0.000 A 
ATOM     29 CL   UNL     1       6.612   5.034  14.261  0.00  0.00    +0.000 Cl
ATOM     30  C   UNL     1       5.244   3.954  16.318  0.00  0.00    +0.000 A 
ATOM     31  C   UNL     1       4.379   4.022  17.414  0.00  0.00    +0.000 A 
ENDBRANCH  23  25
ENDBRANCH  19  20
ENDBRANCH   3  19
TORSDOF 5
ENDMDL
MODEL 5
REMARK VINA RESULT:      -8.3      5.242      7.040
REMARK  Name = 
REMARK  5 active torsions:
REMARK  status: ('A' for Active; 'I' for Inactive)
REMARK    1  A    between atoms: C_2  and  C_3
REMARK    2  A    between atoms: C_3  and  N_4
REMARK    3  A    between atoms: N_16  and  C_17
REMARK    4  A    between atoms: C_17  and  C_18
REMARK    5  A    between atoms: C_21  and  C_22
REMARK                            x       y       z     vdW  Elec       q    Type
REMARK                         _______ _______ _______ _____ _____    ______ ____
ROOT
ATOM      1  O   UNL     1       1.700   4.165  19.200  0.00  0.00    +0.000 OA
ATOM      2  C   UNL     1       2.804   4.515  19.609  0.00  0.00    +0.000 C 
ATOM      3  N   UNL     1       3.017   5.705  20.267  0.00  0.00    +0.000 N 
ATOM      4  H   UNL     1       3.837   5.773  20.871  0.00  0.00    +0.000 HD
ENDROOT
BRANCH   2   5
ATOM      5  C   UNL     1       4.053   3.649  19.482  0.00  0.00    +0.000 C 
BRANCH   5   6
ATOM      6  N   UNL     1       4.877   4.108  18.378  0.00  0.00    +0.000 N 
ATOM      7  C   UNL     1       5.969   4.907  18.667  0.00  0.00    +0.000 A 
ATOM      8  O   UNL     1       6.272   5.286  19.797  0.00  0.00    +0.000 OA
ATOM      9  N   UNL     1       6.770   5.254  17.617  0.00  0.00    +0.000 N 
ATOM     10  C   UNL     1       6.551   4.849  16.305  0.00  0.00    +0.000 A 
ATOM     11  C   UNL     1       7.464   5.195  15.308  0.00  0.00    +0.000 A 
ATOM     12  C   UNL     1       7.234   4.785  13.993  0.00  0.00    +0.000 A 
ATOM     13  C   UNL     1       6.093   4.045  13.676  0.00  0.00    +0.000 A 
ATOM     14  C   UNL     1       5.184   3.698  14.678  0.00  0.00    +0.000 A 
ATOM     15  C   UNL     1       5.422   4.097  15.997  0.00  0.00    +0.000 A 
ATOM     16  C   UNL     1       4.507   3.718  17.091  0.00  0.00    +0.000 A 
ATOM     17  O   UNL     1       3.476   3.090  16.851  0.00  0.00    +0.000 OA
ATOM     18  H   UNL     1       7.575   5.821  17.857  0.00  0.00    +0.000 HD
ENDBRANCH   5   6
ENDBRANCH   2   5
BRANCH   3  19
ATOM     19  C   UNL     1       1.940   6.627  20.524  0.00  0.00    +0.000 C 
BRANCH  19  20
ATOM     20  C   UNL     1       1.960   7.673  19.473  0.00  0.00    +0.000 A 
ATOM     21  C   UNL     1       2.386   7.667  18.162  0.00  0.00    +0.000 A 
ATOM     22  C   UNL     1       2.185   8.977  17.673  0.00  0.00    +0.000 A 
ATOM     23  C   UNL     1       1.627   9.709  18.704  0.00  0.00    +0.000 A 
ATOM     24  O   UNL     1       1.486   8.912  19.806  0.00  0.00    +0.000 OA
BRANCH  23  25
ATOM     25  C   UNL     1       1.153  11.085  18.804  0.00  0.00    +0.000 A 
ATOM     26  C   UNL     1      -0.191  11.380  19.065  0.00  0.00    +0.000 A 
ATOM     27  C   UNL     1      -0.656  12.700  19.012  0.00  0.00    +0.000 A 
ATOM     28  C   UNL     1       0.227  13.735  18.715  0.00  0.00    +0.000 A 
ATOM     29 CL   UNL     1      -0.354  15.349  18.582  0.00  0.00    +0.000 Cl
ATOM     30  C   UNL     1       1.577  13.468  18.505  0.00  0.00    +0.000 A 
ATOM     31  C   UNL     1       2.037  12.149  18.553  0.00  0.00    +0.000 A 
ENDBRANCH  23  25
ENDBRANCH  19  20
ENDBRANCH   3  19
TORSDOF 5
ENDMDL
MODEL 6
REMARK VINA RESULT:      -8.2      5.543      7.156
REMARK  Name = 
REMARK  5 active torsions:
REMARK  status: ('A' for Active; 'I' for Inactive)
REMARK    1  A    between atoms: C_2  and  C_3
REMARK    2  A    between atoms: C_3  and  N_4
REMARK    3  A    between atoms: N_16  and  C_17
REMARK    4  A    between atoms: C_17  and  C_18
REMARK    5  A    between atoms: C_21  and  C_22
REMARK                            x       y       z     vdW  Elec       q    Type
REMARK                         _______ _______ _______ _____ _____    ______ ____
ROOT
ATOM      1  O   UNL     1       0.705   3.932  20.404  0.00  0.00    +0.000 OA
ATOM      2  C   UNL     1       1.792   4.070  19.850  0.00  0.00    +0.000 C 
ATOM      3  N   UNL     1       2.465   5.271  19.806  0.00  0.00    +0.000 N 
ATOM      4  H   UNL     1       3.474   5.244  19.658  0.00  0.00    +0.000 HD
ENDROOT
BRANCH   2   5
ATOM      5  C   UNL     1       2.545   2.919  19.193  0.00  0.00    +0.000 C 
BRANCH   5   6
ATOM      6  N   UNL     1       3.725   3.411  18.505  0.00  0.00    +0.000 N 
ATOM      7  C   UNL     1       4.897   3.536  19.229  0.00  0.00    +0.000 A 
ATOM      8  O   UNL     1       5.001   3.292  20.429  0.00  0.00    +0.000 OA
ATOM      9  N   UNL     1       6.008   3.924  18.536  0.00  0.00    +0.000 N 
ATOM     10  C   UNL     1       6.019   4.187  17.170  0.00  0.00    +0.000 A 
ATOM     11  C   UNL     1       7.218   4.508  16.532  0.00  0.00    +0.000 A 
ATOM     12  C   UNL     1       7.219   4.772  15.161  0.00  0.00    +0.000 A 
ATOM     13  C   UNL     1       6.028   4.724  14.435  0.00  0.00    +0.000 A 
ATOM     14  C   UNL     1       4.830   4.398  15.076  0.00  0.00    +0.000 A 
ATOM     15  C   UNL     1       4.833   4.121  16.447  0.00  0.00    +0.000 A 
ATOM     16  C   UNL     1       3.596   3.734  17.155  0.00  0.00    +0.000 A 
ATOM     17  O   UNL     1       2.520   3.708  16.558  0.00  0.00    +0.000 OA
ATOM     18  H   UNL     1       6.858   3.988  19.083  0.00  0.00    +0.000 HD
ENDBRANCH   5   6
ENDBRANCH   2   5
BRANCH   3  19
ATOM     19  C   UNL     1       1.927   6.458  20.421  0.00  0.00    +0.000 C 
BRANCH  19  20
ATOM     20  C   UNL     1       1.920   7.545  19.412  0.00  0.00    +0.000 A 
ATOM     21  C   UNL     1       2.366   7.607  18.109  0.00  0.00    +0.000 A 
ATOM     22  C   UNL     1       2.118   8.926  17.667  0.00  0.00    +0.000 A 
ATOM     23  C   UNL     1       1.514   9.593  18.716  0.00  0.00    +0.000 A 
ATOM     24  O   UNL     1       1.390   8.749  19.784  0.00  0.00    +0.000 OA
BRANCH  23  25
ATOM     25  C   UNL     1       0.982  10.943  18.861  0.00  0.00    +0.000 A 
ATOM     26  C   UNL     1      -0.380  11.218  18.676  0.00  0.00    +0.000 A 
ATOM     27  C   UNL     1      -0.849  12.537  18.674  0.00  0.00    +0.000 A 
ATOM     28  C   UNL     1       0.042  13.590  18.875  0.00  0.00    +0.000 A 
ATOM     29 CL   UNL     1      -0.519  15.215  18.804  0.00  0.00    +0.000 Cl
ATOM     30  C   UNL     1       1.389  13.334  19.112  0.00  0.00    +0.000 A 
ATOM     31  C   UNL     1       1.854  12.017  19.109  0.00  0.00    +0.000 A 
ENDBRANCH  23  25
ENDBRANCH  19  20
ENDBRANCH   3  19
TORSDOF 5
ENDMDL
MODEL 7
REMARK VINA RESULT:      -8.2      2.606      3.191
REMARK  Name = 
REMARK  5 active torsions:
REMARK  status: ('A' for Active; 'I' for Inactive)
REMARK    1  A    between atoms: C_2  and  C_3
REMARK    2  A    between atoms: C_3  and  N_4
REMARK    3  A    between atoms: N_16  and  C_17
REMARK    4  A    between atoms: C_17  and  C_18
REMARK    5  A    between atoms: C_21  and  C_22
REMARK                            x       y       z     vdW  Elec       q    Type
REMARK                         _______ _______ _______ _____ _____    ______ ____
ROOT
ATOM      1  O   UNL     1       7.725   6.453  18.788  0.00  0.00    +0.000 OA
ATOM      2  C   UNL     1       7.554   7.306  17.922  0.00  0.00    +0.000 C 
ATOM      3  N   UNL     1       8.096   8.570  17.997  0.00  0.00    +0.000 N 
ATOM      4  H   UNL     1       8.216   9.087  17.126  0.00  0.00    +0.000 HD
ENDROOT
BRANCH   2   5
ATOM      5  C   UNL     1       6.769   7.048  16.641  0.00  0.00    +0.000 C 
BRANCH   5   6
ATOM      6  N   UNL     1       5.874   5.918  16.814  0.00  0.00    +0.000 N 
ATOM      7  C   UNL     1       6.372   4.650  16.570  0.00  0.00    +0.000 A 
ATOM      8  O   UNL     1       7.513   4.415  16.178  0.00  0.00    +0.000 OA
ATOM      9  N   UNL     1       5.532   3.602  16.820  0.00  0.00    +0.000 N 
ATOM     10  C   UNL     1       4.236   3.745  17.303  0.00  0.00    +0.000 A 
ATOM     11  C   UNL     1       3.474   2.613  17.598  0.00  0.00    +0.000 A 
ATOM     12  C   UNL     1       2.173   2.765  18.081  0.00  0.00    +0.000 A 
ATOM     13  C   UNL     1       1.633   4.041  18.258  0.00  0.00    +0.000 A 
ATOM     14  C   UNL     1       2.400   5.172  17.966  0.00  0.00    +0.000 A 
ATOM     15  C   UNL     1       3.708   5.017  17.495  0.00  0.00    +0.000 A 
ATOM     16  C   UNL     1       4.565   6.186  17.211  0.00  0.00    +0.000 A 
ATOM     17  O   UNL     1       4.119   7.327  17.328  0.00  0.00    +0.000 OA
ATOM     18  H   UNL     1       5.925   2.684  16.654  0.00  0.00    +0.000 HD
ENDBRANCH   5   6
ENDBRANCH   2   5
BRANCH   3  19
ATOM     19  C   UNL     1       8.912   8.975  19.113  0.00  0.00    +0.000 C 
BRANCH  19  20
ATOM     20  C   UNL     1       9.255  10.408  18.946  0.00  0.00    +0.000 A 
ATOM     21  C   UNL     1       9.627  11.153  17.847  0.00  0.00    +0.000 A 
ATOM     22  C   UNL     1       9.860  12.465  18.317  0.00  0.00    +0.000 A 
ATOM     23  C   UNL     1       9.597  12.456  19.674  0.00  0.00    +0.000 A 
ATOM     24  O   UNL     1       9.225  11.199  20.061  0.00  0.00    +0.000 OA
BRANCH  23  25
ATOM     25  C   UNL     1       9.608  13.498  20.695  0.00  0.00    +0.000 A 
ATOM     26  C   UNL     1      10.454  14.611  20.598  0.00  0.00    +0.000 A 
ATOM     27  C   UNL     1      10.559  15.524  21.654  0.00  0.00    +0.000 A 
ATOM     28  C   UNL     1       9.802  15.338  22.809  0.00  0.00    +0.000 A 
ATOM     29 CL   UNL     1       9.980  16.418  24.136  0.00  0.00    +0.000 Cl
ATOM     30  C   UNL     1       8.918  14.267  22.904  0.00  0.00    +0.000 A 
ATOM     31  C   UNL     1       8.819  13.355  21.850  0.00  0.00    +0.000 A 
ENDBRANCH  23  25
ENDBRANCH  19  20
ENDBRANCH   3  19
TORSDOF 5
ENDMDL
MODEL 8
REMARK VINA RESULT:      -8.1      2.077      2.831
REMARK  Name = 
REMARK  5 active torsions:
REMARK  status: ('A' for Active; 'I' for Inactive)
REMARK    1  A    between atoms: C_2  and  C_3
REMARK    2  A    between atoms: C_3  and  N_4
REMARK    3  A    between atoms: N_16  and  C_17
REMARK    4  A    between atoms: C_17  and  C_18
REMARK    5  A    between atoms: C_21  and  C_22
REMARK                            x       y       z     vdW  Elec       q    Type
REMARK                         _______ _______ _______ _____ _____    ______ ____
ROOT
ATOM      1  O   UNL     1       8.023   6.776  18.839  0.00  0.00    +0.000 OA
ATOM      2  C   UNL     1       7.802   7.535  17.899  0.00  0.00    +0.000 C 
ATOM      3  N   UNL     1       8.187   8.857  17.897  0.00  0.00    +0.000 N 
ATOM      4  H   UNL     1       8.295   9.318  16.993  0.00  0.00    +0.000 HD
ENDROOT
BRANCH   2   5
ATOM      5  C   UNL     1       7.124   7.089  16.609  0.00  0.00    +0.000 C 
BRANCH   5   6
ATOM      6  N   UNL     1       6.215   5.987  16.869  0.00  0.00    +0.000 N 
ATOM      7  C   UNL     1       6.708   4.698  16.770  0.00  0.00    +0.000 A 
ATOM      8  O   UNL     1       7.858   4.418  16.441  0.00  0.00    +0.000 OA
ATOM      9  N   UNL     1       5.851   3.687  17.100  0.00  0.00    +0.000 N 
ATOM     10  C   UNL     1       4.542   3.886  17.526  0.00  0.00    +0.000 A 
ATOM     11  C   UNL     1       3.762   2.794  17.911  0.00  0.00    +0.000 A 
ATOM     12  C   UNL     1       2.448   3.003  18.336  0.00  0.00    +0.000 A 
ATOM     13  C   UNL     1       1.915   4.293  18.365  0.00  0.00    +0.000 A 
ATOM     14  C   UNL     1       2.701   5.384  17.983  0.00  0.00    +0.000 A 
ATOM     15  C   UNL     1       4.021   5.174  17.570  0.00  0.00    +0.000 A 
ATOM     16  C   UNL     1       4.897   6.302  17.196  0.00  0.00    +0.000 A 
ATOM     17  O   UNL     1       4.458   7.452  17.181  0.00  0.00    +0.000 OA
ATOM     18  H   UNL     1       6.241   2.754  17.041  0.00  0.00    +0.000 HD
ENDBRANCH   5   6
ENDBRANCH   2   5
BRANCH   3  19
ATOM     19  C   UNL     1       8.887   9.440  19.013  0.00  0.00    +0.000 C 
BRANCH  19  20
ATOM     20  C   UNL     1       9.385  10.776  18.606  0.00  0.00    +0.000 A 
ATOM     21  C   UNL     1      10.397  11.174  17.760  0.00  0.00    +0.000 A 
ATOM     22  C   UNL     1      10.419  12.586  17.801  0.00  0.00    +0.000 A 
ATOM     23  C   UNL     1       9.403  12.977  18.654  0.00  0.00    +0.000 A 
ATOM     24  O   UNL     1       8.768  11.871  19.146  0.00  0.00    +0.000 OA
BRANCH  23  25
ATOM     25  C   UNL     1       8.897  14.282  19.064  0.00  0.00    +0.000 A 
ATOM     26  C   UNL     1       8.707  14.603  20.415  0.00  0.00    +0.000 A 
ATOM     27  C   UNL     1       8.084  15.801  20.784  0.00  0.00    +0.000 A 
ATOM     28  C   UNL     1       7.663  16.695  19.801  0.00  0.00    +0.000 A 
ATOM     29 CL   UNL     1       6.836  18.136  20.248  0.00  0.00    +0.000 Cl
ATOM     30  C   UNL     1       7.890  16.418  18.456  0.00  0.00    +0.000 A 
ATOM     31  C   UNL     1       8.508  15.219  18.091  0.00  0.00    +0.000 A 
ENDBRANCH  23  25
ENDBRANCH  19  20
ENDBRANCH   3  19
TORSDOF 5
ENDMDL
MODEL 9
REMARK VINA RESULT:      -8.1      5.676      6.943
REMARK  Name = 
REMARK  5 active torsions:
REMARK  status: ('A' for Active; 'I' for Inactive)
REMARK    1  A    between atoms: C_2  and  C_3
REMARK    2  A    between atoms: C_3  and  N_4
REMARK    3  A    between atoms: N_16  and  C_17
REMARK    4  A    between atoms: C_17  and  C_18
REMARK    5  A    between atoms: C_21  and  C_22
REMARK                            x       y       z     vdW  Elec       q    Type
REMARK                         _______ _______ _______ _____ _____    ______ ____
ROOT
ATOM      1  O   UNL     1       5.209   6.615  15.318  0.00  0.00    +0.000 OA
ATOM      2  C   UNL     1       4.813   5.957  16.277  0.00  0.00    +0.000 C 
ATOM      3  N   UNL     1       4.021   6.483  17.273  0.00  0.00    +0.000 N 
ATOM      4  H   UNL     1       3.455   5.835  17.820  0.00  0.00    +0.000 HD
ENDROOT
BRANCH   2   5
ATOM      5  C   UNL     1       5.109   4.470  16.446  0.00  0.00    +0.000 C 
BRANCH   5   6
ATOM      6  N   UNL     1       4.523   3.974  17.678  0.00  0.00    +0.000 N 
ATOM      7  C   UNL     1       5.335   3.878  18.794  0.00  0.00    +0.000 A 
ATOM      8  O   UNL     1       6.534   4.151  18.806  0.00  0.00    +0.000 OA
ATOM      9  N   UNL     1       4.736   3.486  19.957  0.00  0.00    +0.000 N 
ATOM     10  C   UNL     1       3.382   3.192  20.072  0.00  0.00    +0.000 A 
ATOM     11  C   UNL     1       2.843   2.869  21.319  0.00  0.00    +0.000 A 
ATOM     12  C   UNL     1       1.482   2.573  21.424  0.00  0.00    +0.000 A 
ATOM     13  C   UNL     1       0.668   2.591  20.290  0.00  0.00    +0.000 A 
ATOM     14  C   UNL     1       1.211   2.919  19.045  0.00  0.00    +0.000 A 
ATOM     15  C   UNL     1       2.571   3.228  18.943  0.00  0.00    +0.000 A 
ATOM     16  C   UNL     1       3.175   3.619  17.653  0.00  0.00    +0.000 A 
ATOM     17  O   UNL     1       2.499   3.620  16.625  0.00  0.00    +0.000 OA
ATOM     18  H   UNL     1       5.346   3.444  20.764  0.00  0.00    +0.000 HD
ENDBRANCH   5   6
ENDBRANCH   2   5
BRANCH   3  19
ATOM     19  C   UNL     1       3.598   7.860  17.250  0.00  0.00    +0.000 C 
BRANCH  19  20
ATOM     20  C   UNL     1       2.675   8.084  18.389  0.00  0.00    +0.000 A 
ATOM     21  C   UNL     1       2.388   7.341  19.514  0.00  0.00    +0.000 A 
ATOM     22  C   UNL     1       1.392   8.054  20.218  0.00  0.00    +0.000 A 
ATOM     23  C   UNL     1       1.138   9.205  19.497  0.00  0.00    +0.000 A 
ATOM     24  O   UNL     1       1.924   9.227  18.378  0.00  0.00    +0.000 OA
BRANCH  23  25
ATOM     25  C   UNL     1       0.263  10.349  19.726  0.00  0.00    +0.000 A 
ATOM     26  C   UNL     1       0.492  11.248  20.777  0.00  0.00    +0.000 A 
ATOM     27  C   UNL     1      -0.436  12.253  21.072  0.00  0.00    +0.000 A 
ATOM     28  C   UNL     1      -1.592  12.376  20.305  0.00  0.00    +0.000 A 
ATOM     29 CL   UNL     1      -2.768  13.565  20.708  0.00  0.00    +0.000 Cl
ATOM     30  C   UNL     1      -1.813  11.526  19.225  0.00  0.00    +0.000 A 
ATOM     31  C   UNL     1      -0.886  10.521  18.936  0.00  0.00    +0.000 A 
ENDBRANCH  23  25
ENDBRANCH  19  20
ENDBRANCH   3  19
TORSDOF 5
ENDMDL
