MODEL 1
REMARK VINA RESULT:      -8.3      0.000      0.000
REMARK  Name = 
REMARK  6 active torsions:
REMARK  status: ('A' for Active; 'I' for Inactive)
REMARK    1  A    between atoms: C_2  and  C_19
REMARK    2  A    between atoms: N_3  and  C_4
REMARK    3  A    between atoms: C_7  and  S_8
REMARK    4  A    between atoms: S_8  and  N_11
REMARK    5  A    between atoms: N_11  and  C_12
REMARK    6  A    between atoms: C_12  and  C_13
REMARK                            x       y       z     vdW  Elec       q    Type
REMARK                         _______ _______ _______ _____ _____    ______ ____
ROOT
ATOM      1  C   UNL     1       2.191   8.044  19.084  0.00  0.00    +0.000 A 
ATOM      2  C   UNL     1       1.462   8.331  20.240  0.00  0.00    +0.000 A 
ATOM      3  C   UNL     1       0.626   9.451  20.290  0.00  0.00    +0.000 A 
ATOM      4  C   UNL     1       0.521  10.285  19.177  0.00  0.00    +0.000 A 
ATOM      5  C   UNL     1       1.227  10.001  18.008  0.00  0.00    +0.000 A 
ATOM      6  C   UNL     1       2.061   8.881  17.966  0.00  0.00    +0.000 A 
ENDROOT
BRANCH   1   9
ATOM      7  O   UNL     1       1.733   5.316  17.909  0.00  0.00    +0.000 OA
ATOM      8  C   UNL     1       2.802   5.712  18.360  0.00  0.00    +0.000 C 
ATOM      9  N   UNL     1       3.044   6.938  18.953  0.00  0.00    +0.000 N 
ATOM     10  H   UNL     1       4.008   7.038  19.267  0.00  0.00    +0.000 HD
BRANCH   8  11
ATOM     11  C   UNL     1       4.051   4.933  18.246  0.00  0.00    +0.000 A 
ATOM     12  N   UNL     1       4.562   4.288  19.322  0.00  0.00    +0.000 NA
ATOM     13  N   UNL     1       5.791   3.924  18.916  0.00  0.00    +0.000 N 
ATOM     14  C   UNL     1       6.121   4.368  17.668  0.00  0.00    +0.000 A 
ATOM     15  C   UNL     1       7.337   4.388  16.980  0.00  0.00    +0.000 A 
ATOM     16  C   UNL     1       7.315   4.867  15.667  0.00  0.00    +0.000 A 
ATOM     17  C   UNL     1       6.119   5.256  15.061  0.00  0.00    +0.000 A 
ATOM     18  C   UNL     1       4.921   5.275  15.787  0.00  0.00    +0.000 A 
ATOM     19  C   UNL     1       4.938   4.869  17.134  0.00  0.00    +0.000 A 
ATOM     20  H   UNL     1       6.376   3.402  19.559  0.00  0.00    +0.000 HD
ENDBRANCH   8  11
ENDBRANCH   1   9
BRANCH   4  21
ATOM     21  S   UNL     1      -0.563  11.689  19.214  0.00  0.00    +0.000 S 
ATOM     22  O   UNL     1      -1.680  11.353  20.055  0.00  0.00    +0.000 OA
ATOM     23  O   UNL     1       0.229  12.884  19.423  0.00  0.00    +0.000 OA
BRANCH  21  24
ATOM     24  N   UNL     1      -1.148  11.740  17.642  0.00  0.00    +0.000 NA
ATOM     25  H   UNL     1      -0.462  11.410  16.956  0.00  0.00    +0.000 HD
BRANCH  24  26
ATOM     26  C   UNL     1      -2.573  11.372  17.413  0.00  0.00    +0.000 C 
BRANCH  26  27
ATOM     27  C   UNL     1      -2.777   9.927  16.948  0.00  0.00    +0.000 C 
ATOM     28  F   UNL     1      -1.599   9.301  16.711  0.00  0.00    +0.000 F 
ATOM     29  F   UNL     1      -3.428   9.202  17.888  0.00  0.00    +0.000 F 
ATOM     30  F   UNL     1      -3.506   9.872  15.812  0.00  0.00    +0.000 F 
ENDBRANCH  26  27
ENDBRANCH  24  26
ENDBRANCH  21  24
ENDBRANCH   4  21
TORSDOF 6
ENDMDL
MODEL 2
REMARK VINA RESULT:      -8.1      0.671      1.191
REMARK  Name = 
REMARK  6 active torsions:
REMARK  status: ('A' for Active; 'I' for Inactive)
REMARK    1  A    between atoms: C_2  and  C_19
REMARK    2  A    between atoms: N_3  and  C_4
REMARK    3  A    between atoms: C_7  and  S_8
REMARK    4  A    between atoms: S_8  and  N_11
REMARK    5  A    between atoms: N_11  and  C_12
REMARK    6  A    between atoms: C_12  and  C_13
REMARK                            x       y       z     vdW  Elec       q    Type
REMARK                         _______ _______ _______ _____ _____    ______ ____
ROOT
ATOM      1  C   UNL     1       2.163   7.934  18.912  0.00  0.00    +0.000 A 
ATOM      2  C   UNL     1       1.786   8.727  17.828  0.00  0.00    +0.000 A 
ATOM      3  C   UNL     1       0.877   9.777  18.000  0.00  0.00    +0.000 A 
ATOM      4  C   UNL     1       0.347  10.031  19.265  0.00  0.00    +0.000 A 
ATOM      5  C   UNL     1       0.730   9.261  20.363  0.00  0.00    +0.000 A 
ATOM      6  C   UNL     1       1.637   8.213  20.182  0.00  0.00    +0.000 A 
ENDROOT
BRANCH   1   9
ATOM      7  O   UNL     1       1.797   5.085  18.028  0.00  0.00    +0.000 OA
ATOM      8  C   UNL     1       2.868   5.580  18.363  0.00  0.00    +0.000 C 
ATOM      9  N   UNL     1       3.072   6.869  18.823  0.00  0.00    +0.000 N 
ATOM     10  H   UNL     1       4.046   7.052  19.055  0.00  0.00    +0.000 HD
BRANCH   8  11
ATOM     11  C   UNL     1       4.152   4.864  18.232  0.00  0.00    +0.000 A 
ATOM     12  N   UNL     1       4.731   4.285  19.310  0.00  0.00    +0.000 NA
ATOM     13  N   UNL     1       5.964   3.972  18.874  0.00  0.00    +0.000 N 
ATOM     14  C   UNL     1       6.228   4.388  17.601  0.00  0.00    +0.000 A 
ATOM     15  C   UNL     1       7.419   4.447  16.871  0.00  0.00    +0.000 A 
ATOM     16  C   UNL     1       7.328   4.879  15.544  0.00  0.00    +0.000 A 
ATOM     17  C   UNL     1       6.093   5.182  14.968  0.00  0.00    +0.000 A 
ATOM     18  C   UNL     1       4.921   5.164  15.734  0.00  0.00    +0.000 A 
ATOM     19  C   UNL     1       5.004   4.808  17.092  0.00  0.00    +0.000 A 
ATOM     20  H   UNL     1       6.597   3.504  19.513  0.00  0.00    +0.000 HD
ENDBRANCH   8  11
ENDBRANCH   1   9
BRANCH   4  21
ATOM     21  S   UNL     1      -0.778  11.381  19.505  0.00  0.00    +0.000 S 
ATOM     22  O   UNL     1      -1.161  11.384  20.892  0.00  0.00    +0.000 OA
ATOM     23  O   UNL     1      -0.243  12.557  18.850  0.00  0.00    +0.000 OA
BRANCH  21  24
ATOM     24  N   UNL     1      -2.128  10.891  18.639  0.00  0.00    +0.000 NA
ATOM     25  H   UNL     1      -2.931  10.690  19.243  0.00  0.00    +0.000 HD
BRANCH  24  26
ATOM     26  C   UNL     1      -2.405  11.559  17.336  0.00  0.00    +0.000 C 
BRANCH  26  27
ATOM     27  C   UNL     1      -3.122  10.668  16.318  0.00  0.00    +0.000 C 
ATOM     28  F   UNL     1      -2.479  10.645  15.125  0.00  0.00    +0.000 F 
ATOM     29  F   UNL     1      -3.188   9.388  16.756  0.00  0.00    +0.000 F 
ATOM     30  F   UNL     1      -4.386  11.089  16.094  0.00  0.00    +0.000 F 
ENDBRANCH  26  27
ENDBRANCH  24  26
ENDBRANCH  21  24
ENDBRANCH   4  21
TORSDOF 6
ENDMDL
MODEL 3
REMARK VINA RESULT:      -8.0      3.821      8.312
REMARK  Name = 
REMARK  6 active torsions:
REMARK  status: ('A' for Active; 'I' for Inactive)
REMARK    1  A    between atoms: C_2  and  C_19
REMARK    2  A    between atoms: N_3  and  C_4
REMARK    3  A    between atoms: C_7  and  S_8
REMARK    4  A    between atoms: S_8  and  N_11
REMARK    5  A    between atoms: N_11  and  C_12
REMARK    6  A    between atoms: C_12  and  C_13
REMARK                            x       y       z     vdW  Elec       q    Type
REMARK                         _______ _______ _______ _____ _____    ______ ____
ROOT
ATOM      1  C   UNL     1       2.004   7.869  19.062  0.00  0.00    +0.000 A 
ATOM      2  C   UNL     1       2.143   6.996  20.142  0.00  0.00    +0.000 A 
ATOM      3  C   UNL     1       2.929   5.844  20.026  0.00  0.00    +0.000 A 
ATOM      4  C   UNL     1       3.578   5.570  18.823  0.00  0.00    +0.000 A 
ATOM      5  C   UNL     1       3.467   6.443  17.740  0.00  0.00    +0.000 A 
ATOM      6  C   UNL     1       2.678   7.590  17.864  0.00  0.00    +0.000 A 
ENDROOT
BRANCH   1   9
ATOM      7  O   UNL     1       2.386  10.526  17.710  0.00  0.00    +0.000 OA
ATOM      8  C   UNL     1       1.431  10.235  18.422  0.00  0.00    +0.000 C 
ATOM      9  N   UNL     1       1.241   9.045  19.101  0.00  0.00    +0.000 N 
ATOM     10  H   UNL     1       0.379   9.037  19.643  0.00  0.00    +0.000 HD
BRANCH   8  11
ATOM     11  C   UNL     1       0.262  11.122  18.586  0.00  0.00    +0.000 A 
ATOM     12  N   UNL     1       0.326  12.203  19.399  0.00  0.00    +0.000 NA
ATOM     13  N   UNL     1      -0.955  12.599  19.498  0.00  0.00    +0.000 N 
ATOM     14  C   UNL     1      -1.842  11.784  18.854  0.00  0.00    +0.000 A 
ATOM     15  C   UNL     1      -3.238  11.722  18.885  0.00  0.00    +0.000 A 
ATOM     16  C   UNL     1      -3.849  10.788  18.043  0.00  0.00    +0.000 A 
ATOM     17  C   UNL     1      -3.095   9.996  17.177  0.00  0.00    +0.000 A 
ATOM     18  C   UNL     1      -1.696  10.039  17.201  0.00  0.00    +0.000 A 
ATOM     19  C   UNL     1      -1.060  10.918  18.098  0.00  0.00    +0.000 A 
ATOM     20  H   UNL     1      -1.165  13.419  20.056  0.00  0.00    +0.000 HD
ENDBRANCH   8  11
ENDBRANCH   1   9
BRANCH   4  21
ATOM     21  S   UNL     1       4.607   4.133  18.672  0.00  0.00    +0.000 S 
ATOM     22  O   UNL     1       4.634   3.763  17.282  0.00  0.00    +0.000 OA
ATOM     23  O   UNL     1       5.818   4.344  19.438  0.00  0.00    +0.000 OA
BRANCH  21  24
ATOM     24  N   UNL     1       3.710   2.956  19.461  0.00  0.00    +0.000 NA
ATOM     25  H   UNL     1       3.452   3.231  20.414  0.00  0.00    +0.000 HD
BRANCH  24  26
ATOM     26  C   UNL     1       2.696   2.202  18.672  0.00  0.00    +0.000 C 
BRANCH  26  27
ATOM     27  C   UNL     1       1.275   2.762  18.784  0.00  0.00    +0.000 C 
ATOM     28  F   UNL     1       1.063   3.780  17.915  0.00  0.00    +0.000 F 
ATOM     29  F   UNL     1       0.355   1.808  18.508  0.00  0.00    +0.000 F 
ATOM     30  F   UNL     1       1.022   3.227  20.027  0.00  0.00    +0.000 F 
ENDBRANCH  26  27
ENDBRANCH  24  26
ENDBRANCH  21  24
ENDBRANCH   4  21
TORSDOF 6
ENDMDL
MODEL 4
REMARK VINA RESULT:      -7.9      2.408      2.815
REMARK  Name = 
REMARK  6 active torsions:
REMARK  status: ('A' for Active; 'I' for Inactive)
REMARK    1  A    between atoms: C_2  and  C_19
REMARK    2  A    between atoms: N_3  and  C_4
REMARK    3  A    between atoms: C_7  and  S_8
REMARK    4  A    between atoms: S_8  and  N_11
REMARK    5  A    between atoms: N_11  and  C_12
REMARK    6  A    between atoms: C_12  and  C_13
REMARK                            x       y       z     vdW  Elec       q    Type
REMARK                         _______ _______ _______ _____ _____    ______ ____
ROOT
ATOM      1  C   UNL     1       2.178   7.857  19.089  0.00  0.00    +0.000 A 
ATOM      2  C   UNL     1       1.570   8.208  20.296  0.00  0.00    +0.000 A 
ATOM      3  C   UNL     1       0.659   9.269  20.349  0.00  0.00    +0.000 A 
ATOM      4  C   UNL     1       0.358   9.978  19.187  0.00  0.00    +0.000 A 
ATOM      5  C   UNL     1       0.939   9.627  17.968  0.00  0.00    +0.000 A 
ATOM      6  C   UNL     1       1.849   8.567  17.924  0.00  0.00    +0.000 A 
ENDROOT
BRANCH   1   9
ATOM      7  O   UNL     1       1.830   5.044  18.089  0.00  0.00    +0.000 OA
ATOM      8  C   UNL     1       2.898   5.534  18.441  0.00  0.00    +0.000 C 
ATOM      9  N   UNL     1       3.094   6.804  18.952  0.00  0.00    +0.000 N 
ATOM     10  H   UNL     1       4.067   6.984  19.189  0.00  0.00    +0.000 HD
BRANCH   8  11
ATOM     11  C   UNL     1       4.186   4.833  18.277  0.00  0.00    +0.000 A 
ATOM     12  N   UNL     1       4.803   4.264  19.340  0.00  0.00    +0.000 NA
ATOM     13  N   UNL     1       6.027   3.965  18.872  0.00  0.00    +0.000 N 
ATOM     14  C   UNL     1       6.251   4.381  17.590  0.00  0.00    +0.000 A 
ATOM     15  C   UNL     1       7.420   4.453  16.828  0.00  0.00    +0.000 A 
ATOM     16  C   UNL     1       7.287   4.879  15.503  0.00  0.00    +0.000 A 
ATOM     17  C   UNL     1       6.034   5.165  14.960  0.00  0.00    +0.000 A 
ATOM     18  C   UNL     1       4.883   5.135  15.757  0.00  0.00    +0.000 A 
ATOM     19  C   UNL     1       5.008   4.784  17.114  0.00  0.00    +0.000 A 
ATOM     20  H   UNL     1       6.683   3.507  19.494  0.00  0.00    +0.000 HD
ENDBRANCH   8  11
ENDBRANCH   1   9
BRANCH   4  21
ATOM     21  S   UNL     1      -0.822  11.302  19.232  0.00  0.00    +0.000 S 
ATOM     22  O   UNL     1      -2.059  10.799  18.695  0.00  0.00    +0.000 OA
ATOM     23  O   UNL     1      -0.750  11.948  20.526  0.00  0.00    +0.000 OA
BRANCH  21  24
ATOM     24  N   UNL     1      -0.211  12.375  18.097  0.00  0.00    +0.000 NA
ATOM     25  H   UNL     1      -0.855  12.531  17.315  0.00  0.00    +0.000 HD
BRANCH  24  26
ATOM     26  C   UNL     1       0.561  13.551  18.589  0.00  0.00    +0.000 C 
BRANCH  26  27
ATOM     27  C   UNL     1       2.065  13.297  18.726  0.00  0.00    +0.000 C 
ATOM     28  F   UNL     1       2.372  12.703  19.904  0.00  0.00    +0.000 F 
ATOM     29  F   UNL     1       2.509  12.478  17.743  0.00  0.00    +0.000 F 
ATOM     30  F   UNL     1       2.770  14.447  18.651  0.00  0.00    +0.000 F 
ENDBRANCH  26  27
ENDBRANCH  24  26
ENDBRANCH  21  24
ENDBRANCH   4  21
TORSDOF 6
ENDMDL
MODEL 5
REMARK VINA RESULT:      -7.9      3.787      8.328
REMARK  Name = 
REMARK  6 active torsions:
REMARK  status: ('A' for Active; 'I' for Inactive)
REMARK    1  A    between atoms: C_2  and  C_19
REMARK    2  A    between atoms: N_3  and  C_4
REMARK    3  A    between atoms: C_7  and  S_8
REMARK    4  A    between atoms: S_8  and  N_11
REMARK    5  A    between atoms: N_11  and  C_12
REMARK    6  A    between atoms: C_12  and  C_13
REMARK                            x       y       z     vdW  Elec       q    Type
REMARK                         _______ _______ _______ _____ _____    ______ ____
ROOT
ATOM      1  C   UNL     1       2.084   8.060  18.769  0.00  0.00    +0.000 A 
ATOM      2  C   UNL     1       2.835   7.812  17.619  0.00  0.00    +0.000 A 
ATOM      3  C   UNL     1       3.647   6.675  17.534  0.00  0.00    +0.000 A 
ATOM      4  C   UNL     1       3.703   5.786  18.606  0.00  0.00    +0.000 A 
ATOM      5  C   UNL     1       2.942   6.007  19.754  0.00  0.00    +0.000 A 
ATOM      6  C   UNL     1       2.135   7.145  19.831  0.00  0.00    +0.000 A 
ENDROOT
BRANCH   1   9
ATOM      7  O   UNL     1       2.448  10.945  18.014  0.00  0.00    +0.000 OA
ATOM      8  C   UNL     1       1.434  10.479  18.521  0.00  0.00    +0.000 C 
ATOM      9  N   UNL     1       1.243   9.170  18.928  0.00  0.00    +0.000 N 
ATOM     10  H   UNL     1       0.322   9.019  19.336  0.00  0.00    +0.000 HD
BRANCH   8  11
ATOM     11  C   UNL     1       0.196  11.265  18.692  0.00  0.00    +0.000 A 
ATOM     12  N   UNL     1       0.151  12.300  19.563  0.00  0.00    +0.000 NA
ATOM     13  N   UNL     1      -1.159  12.592  19.637  0.00  0.00    +0.000 N 
ATOM     14  C   UNL     1      -1.960  11.750  18.920  0.00  0.00    +0.000 A 
ATOM     15  C   UNL     1      -3.348  11.581  18.898  0.00  0.00    +0.000 A 
ATOM     16  C   UNL     1      -3.858  10.653  17.986  0.00  0.00    +0.000 A 
ATOM     17  C   UNL     1      -3.018   9.970  17.105  0.00  0.00    +0.000 A 
ATOM     18  C   UNL     1      -1.628  10.118  17.181  0.00  0.00    +0.000 A 
ATOM     19  C   UNL     1      -1.091  10.989  18.146  0.00  0.00    +0.000 A 
ATOM     20  H   UNL     1      -1.450  13.361  20.231  0.00  0.00    +0.000 HD
ENDBRANCH   8  11
ENDBRANCH   1   9
BRANCH   4  21
ATOM     21  S   UNL     1       4.699   4.322  18.499  0.00  0.00    +0.000 S 
ATOM     22  O   UNL     1       5.682   4.541  17.472  0.00  0.00    +0.000 OA
ATOM     23  O   UNL     1       5.063   3.905  19.838  0.00  0.00    +0.000 OA
BRANCH  21  24
ATOM     24  N   UNL     1       3.621   3.189  17.893  0.00  0.00    +0.000 NA
ATOM     25  H   UNL     1       4.026   2.622  17.142  0.00  0.00    +0.000 HD
BRANCH  24  26
ATOM     26  C   UNL     1       2.716   2.499  18.855  0.00  0.00    +0.000 C 
BRANCH  26  27
ATOM     27  C   UNL     1       1.258   2.961  18.780  0.00  0.00    +0.000 C 
ATOM     28  F   UNL     1       0.418   1.939  18.484  0.00  0.00    +0.000 F 
ATOM     29  F   UNL     1       0.851   3.475  19.965  0.00  0.00    +0.000 F 
ATOM     30  F   UNL     1       1.088   3.916  17.840  0.00  0.00    +0.000 F 
ENDBRANCH  26  27
ENDBRANCH  24  26
ENDBRANCH  21  24
ENDBRANCH   4  21
TORSDOF 6
ENDMDL
MODEL 6
REMARK VINA RESULT:      -7.8      7.078      9.082
REMARK  Name = 
REMARK  6 active torsions:
REMARK  status: ('A' for Active; 'I' for Inactive)
REMARK    1  A    between atoms: C_2  and  C_19
REMARK    2  A    between atoms: N_3  and  C_4
REMARK    3  A    between atoms: C_7  and  S_8
REMARK    4  A    between atoms: S_8  and  N_11
REMARK    5  A    between atoms: N_11  and  C_12
REMARK    6  A    between atoms: C_12  and  C_13
REMARK                            x       y       z     vdW  Elec       q    Type
REMARK                         _______ _______ _______ _____ _____    ______ ____
ROOT
ATOM      1  C   UNL     1       8.141   7.686  18.536  0.00  0.00    +0.000 A 
ATOM      2  C   UNL     1       8.160   6.436  19.158  0.00  0.00    +0.000 A 
ATOM      3  C   UNL     1       7.294   5.421  18.736  0.00  0.00    +0.000 A 
ATOM      4  C   UNL     1       6.408   5.662  17.688  0.00  0.00    +0.000 A 
ATOM      5  C   UNL     1       6.390   6.898  17.041  0.00  0.00    +0.000 A 
ATOM      6  C   UNL     1       7.257   7.907  17.470  0.00  0.00    +0.000 A 
ENDROOT
BRANCH   1   9
ATOM      7  O   UNL     1       8.093  10.592  17.774  0.00  0.00    +0.000 OA
ATOM      8  C   UNL     1       8.892  10.088  18.556  0.00  0.00    +0.000 C 
ATOM      9  N   UNL     1       8.980   8.750  18.896  0.00  0.00    +0.000 N 
ATOM     10  H   UNL     1       9.733   8.563  19.555  0.00  0.00    +0.000 HD
BRANCH   8  11
ATOM     11  C   UNL     1       9.852  10.890  19.339  0.00  0.00    +0.000 A 
ATOM     12  N   UNL     1       9.784  10.920  20.691  0.00  0.00    +0.000 NA
ATOM     13  N   UNL     1      10.615  11.923  21.026  0.00  0.00    +0.000 N 
ATOM     14  C   UNL     1      11.150  12.584  19.958  0.00  0.00    +0.000 A 
ATOM     15  C   UNL     1      11.871  13.778  19.870  0.00  0.00    +0.000 A 
ATOM     16  C   UNL     1      12.332  14.149  18.603  0.00  0.00    +0.000 A 
ATOM     17  C   UNL     1      12.124  13.330  17.492  0.00  0.00    +0.000 A 
ATOM     18  C   UNL     1      11.355  12.164  17.595  0.00  0.00    +0.000 A 
ATOM     19  C   UNL     1      10.817  11.815  18.848  0.00  0.00    +0.000 A 
ATOM     20  H   UNL     1      10.746  12.134  22.009  0.00  0.00    +0.000 HD
ENDBRANCH   8  11
ENDBRANCH   1   9
BRANCH   4  21
ATOM     21  S   UNL     1       5.329   4.374  17.118  0.00  0.00    +0.000 S 
ATOM     22  O   UNL     1       4.031   4.956  16.909  0.00  0.00    +0.000 OA
ATOM     23  O   UNL     1       6.010   3.616  16.088  0.00  0.00    +0.000 OA
BRANCH  21  24
ATOM     24  N   UNL     1       5.197   3.385  18.467  0.00  0.00    +0.000 NA
ATOM     25  H   UNL     1       5.955   3.534  19.140  0.00  0.00    +0.000 HD
BRANCH  24  26
ATOM     26  C   UNL     1       3.836   3.129  19.017  0.00  0.00    +0.000 C 
BRANCH  26  27
ATOM     27  C   UNL     1       3.127   1.924  18.392  0.00  0.00    +0.000 C 
ATOM     28  F   UNL     1       2.454   2.262  17.265  0.00  0.00    +0.000 F 
ATOM     29  F   UNL     1       4.016   0.963  18.049  0.00  0.00    +0.000 F 
ATOM     30  F   UNL     1       2.239   1.373  19.249  0.00  0.00    +0.000 F 
ENDBRANCH  26  27
ENDBRANCH  24  26
ENDBRANCH  21  24
ENDBRANCH   4  21
TORSDOF 6
ENDMDL
MODEL 7
REMARK VINA RESULT:      -7.8      1.958      2.636
REMARK  Name = 
REMARK  6 active torsions:
REMARK  status: ('A' for Active; 'I' for Inactive)
REMARK    1  A    between atoms: C_2  and  C_19
REMARK    2  A    between atoms: N_3  and  C_4
REMARK    3  A    between atoms: C_7  and  S_8
REMARK    4  A    between atoms: S_8  and  N_11
REMARK    5  A    between atoms: N_11  and  C_12
REMARK    6  A    between atoms: C_12  and  C_13
REMARK                            x       y       z     vdW  Elec       q    Type
REMARK                         _______ _______ _______ _____ _____    ______ ____
ROOT
ATOM      1  C   UNL     1       1.856   8.437  19.054  0.00  0.00    +0.000 A 
ATOM      2  C   UNL     1       1.148   8.959  20.139  0.00  0.00    +0.000 A 
ATOM      3  C   UNL     1       0.612  10.250  20.079  0.00  0.00    +0.000 A 
ATOM      4  C   UNL     1       0.786  11.017  18.928  0.00  0.00    +0.000 A 
ATOM      5  C   UNL     1       1.472  10.502  17.828  0.00  0.00    +0.000 A 
ATOM      6  C   UNL     1       2.006   9.213  17.896  0.00  0.00    +0.000 A 
ENDROOT
BRANCH   1   9
ATOM      7  O   UNL     1       4.129   7.292  17.456  0.00  0.00    +0.000 OA
ATOM      8  C   UNL     1       3.499   6.680  18.312  0.00  0.00    +0.000 C 
ATOM      9  N   UNL     1       2.417   7.152  19.034  0.00  0.00    +0.000 N 
ATOM     10  H   UNL     1       2.046   6.458  19.680  0.00  0.00    +0.000 HD
BRANCH   8  11
ATOM     11  C   UNL     1       3.882   5.330  18.768  0.00  0.00    +0.000 A 
ATOM     12  N   UNL     1       5.181   5.020  18.992  0.00  0.00    +0.000 NA
ATOM     13  N   UNL     1       5.166   3.683  19.133  0.00  0.00    +0.000 N 
ATOM     14  C   UNL     1       3.940   3.115  18.935  0.00  0.00    +0.000 A 
ATOM     15  C   UNL     1       3.547   1.782  18.786  0.00  0.00    +0.000 A 
ATOM     16  C   UNL     1       2.176   1.536  18.657  0.00  0.00    +0.000 A 
ATOM     17  C   UNL     1       1.248   2.576  18.728  0.00  0.00    +0.000 A 
ATOM     18  C   UNL     1       1.669   3.908  18.826  0.00  0.00    +0.000 A 
ATOM     19  C   UNL     1       3.048   4.180  18.880  0.00  0.00    +0.000 A 
ATOM     20  H   UNL     1       6.041   3.208  19.327  0.00  0.00    +0.000 HD
ENDBRANCH   8  11
ENDBRANCH   1   9
BRANCH   4  21
ATOM     21  S   UNL     1       0.080  12.641  18.824  0.00  0.00    +0.000 S 
ATOM     22  O   UNL     1      -0.647  12.877  20.043  0.00  0.00    +0.000 OA
ATOM     23  O   UNL     1       1.091  13.559  18.340  0.00  0.00    +0.000 OA
BRANCH  21  24
ATOM     24  N   UNL     1      -1.065  12.466  17.612  0.00  0.00    +0.000 NA
ATOM     25  H   UNL     1      -0.645  12.405  16.679  0.00  0.00    +0.000 HD
BRANCH  24  26
ATOM     26  C   UNL     1      -2.247  11.601  17.884  0.00  0.00    +0.000 C 
BRANCH  26  27
ATOM     27  C   UNL     1      -2.441  10.470  16.869  0.00  0.00    +0.000 C 
ATOM     28  F   UNL     1      -2.405  10.925  15.593  0.00  0.00    +0.000 F 
ATOM     29  F   UNL     1      -1.462   9.542  16.986  0.00  0.00    +0.000 F 
ATOM     30  F   UNL     1      -3.624   9.842  17.047  0.00  0.00    +0.000 F 
ENDBRANCH  26  27
ENDBRANCH  24  26
ENDBRANCH  21  24
ENDBRANCH   4  21
TORSDOF 6
ENDMDL
MODEL 8
REMARK VINA RESULT:      -7.8      4.571      8.924
REMARK  Name = 
REMARK  6 active torsions:
REMARK  status: ('A' for Active; 'I' for Inactive)
REMARK    1  A    between atoms: C_2  and  C_19
REMARK    2  A    between atoms: N_3  and  C_4
REMARK    3  A    between atoms: C_7  and  S_8
REMARK    4  A    between atoms: S_8  and  N_11
REMARK    5  A    between atoms: N_11  and  C_12
REMARK    6  A    between atoms: C_12  and  C_13
REMARK                            x       y       z     vdW  Elec       q    Type
REMARK                         _______ _______ _______ _____ _____    ______ ____
ROOT
ATOM      1  C   UNL     1       2.477   7.370  18.381  0.00  0.00    +0.000 A 
ATOM      2  C   UNL     1       2.137   6.023  18.522  0.00  0.00    +0.000 A 
ATOM      3  C   UNL     1       2.964   5.024  17.996  0.00  0.00    +0.000 A 
ATOM      4  C   UNL     1       4.135   5.379  17.327  0.00  0.00    +0.000 A 
ATOM      5  C   UNL     1       4.501   6.719  17.196  0.00  0.00    +0.000 A 
ATOM      6  C   UNL     1       3.668   7.710  17.723  0.00  0.00    +0.000 A 
ENDROOT
BRANCH   1   9
ATOM      7  O   UNL     1       1.511   7.967  21.163  0.00  0.00    +0.000 OA
ATOM      8  C   UNL     1       1.323   8.687  20.189  0.00  0.00    +0.000 C 
ATOM      9  N   UNL     1       1.706   8.427  18.885  0.00  0.00    +0.000 N 
ATOM     10  H   UNL     1       1.428   9.165  18.241  0.00  0.00    +0.000 HD
BRANCH   8  11
ATOM     11  C   UNL     1       0.712  10.026  20.296  0.00  0.00    +0.000 A 
ATOM     12  N   UNL     1       1.029  10.849  21.323  0.00  0.00    +0.000 NA
ATOM     13  N   UNL     1       0.115  11.831  21.234  0.00  0.00    +0.000 N 
ATOM     14  C   UNL     1      -0.815  11.640  20.252  0.00  0.00    +0.000 A 
ATOM     15  C   UNL     1      -2.017  12.295  19.971  0.00  0.00    +0.000 A 
ATOM     16  C   UNL     1      -2.714  11.879  18.833  0.00  0.00    +0.000 A 
ATOM     17  C   UNL     1      -2.198  10.892  17.992  0.00  0.00    +0.000 A 
ATOM     18  C   UNL     1      -1.017  10.216  18.321  0.00  0.00    +0.000 A 
ATOM     19  C   UNL     1      -0.342  10.567  19.505  0.00  0.00    +0.000 A 
ATOM     20  H   UNL     1       0.157  12.592  21.903  0.00  0.00    +0.000 HD
ENDBRANCH   8  11
ENDBRANCH   1   9
BRANCH   4  21
ATOM     21  S   UNL     1       5.212   4.123  16.687  0.00  0.00    +0.000 S 
ATOM     22  O   UNL     1       4.464   2.895  16.638  0.00  0.00    +0.000 OA
ATOM     23  O   UNL     1       5.907   4.650  15.530  0.00  0.00    +0.000 OA
BRANCH  21  24
ATOM     24  N   UNL     1       6.340   3.947  17.915  0.00  0.00    +0.000 NA
ATOM     25  H   UNL     1       6.425   2.977  18.235  0.00  0.00    +0.000 HD
BRANCH  24  26
ATOM     26  C   UNL     1       7.591   4.751  17.838  0.00  0.00    +0.000 C 
BRANCH  26  27
ATOM     27  C   UNL     1       7.780   5.726  19.004  0.00  0.00    +0.000 C 
ATOM     28  F   UNL     1       6.648   5.863  19.736  0.00  0.00    +0.000 F 
ATOM     29  F   UNL     1       8.745   5.291  19.848  0.00  0.00    +0.000 F 
ATOM     30  F   UNL     1       8.138   6.954  18.570  0.00  0.00    +0.000 F 
ENDBRANCH  26  27
ENDBRANCH  24  26
ENDBRANCH  21  24
ENDBRANCH   4  21
TORSDOF 6
ENDMDL
MODEL 9
REMARK VINA RESULT:      -7.7      2.665      3.088
REMARK  Name = 
REMARK  6 active torsions:
REMARK  status: ('A' for Active; 'I' for Inactive)
REMARK    1  A    between atoms: C_2  and  C_19
REMARK    2  A    between atoms: N_3  and  C_4
REMARK    3  A    between atoms: C_7  and  S_8
REMARK    4  A    between atoms: S_8  and  N_11
REMARK    5  A    between atoms: N_11  and  C_12
REMARK    6  A    between atoms: C_12  and  C_13
REMARK                            x       y       z     vdW  Elec       q    Type
REMARK                         _______ _______ _______ _____ _____    ______ ____
ROOT
ATOM      1  C   UNL     1       2.206   7.839  19.122  0.00  0.00    +0.000 A 
ATOM      2  C   UNL     1       1.577   8.140  20.332  0.00  0.00    +0.000 A 
ATOM      3  C   UNL     1       0.682   9.212  20.417  0.00  0.00    +0.000 A 
ATOM      4  C   UNL     1       0.418   9.982  19.285  0.00  0.00    +0.000 A 
ATOM      5  C   UNL     1       1.021   9.682  18.064  0.00  0.00    +0.000 A 
ATOM      6  C   UNL     1       1.915   8.610  17.988  0.00  0.00    +0.000 A 
ENDROOT
BRANCH   1   9
ATOM      7  O   UNL     1       1.845   5.095  17.951  0.00  0.00    +0.000 OA
ATOM      8  C   UNL     1       2.908   5.543  18.364  0.00  0.00    +0.000 C 
ATOM      9  N   UNL     1       3.109   6.779  18.955  0.00  0.00    +0.000 N 
ATOM     10  H   UNL     1       4.077   6.927  19.232  0.00  0.00    +0.000 HD
BRANCH   8  11
ATOM     11  C   UNL     1       4.190   4.829  18.201  0.00  0.00    +0.000 A 
ATOM     12  N   UNL     1       4.803   4.260  19.266  0.00  0.00    +0.000 NA
ATOM     13  N   UNL     1       6.023   3.946  18.796  0.00  0.00    +0.000 N 
ATOM     14  C   UNL     1       6.248   4.354  17.512  0.00  0.00    +0.000 A 
ATOM     15  C   UNL     1       7.416   4.411  16.747  0.00  0.00    +0.000 A 
ATOM     16  C   UNL     1       7.285   4.832  15.420  0.00  0.00    +0.000 A 
ATOM     17  C   UNL     1       6.033   5.128  14.879  0.00  0.00    +0.000 A 
ATOM     18  C   UNL     1       4.884   5.113  15.679  0.00  0.00    +0.000 A 
ATOM     19  C   UNL     1       5.008   4.767  17.037  0.00  0.00    +0.000 A 
ATOM     20  H   UNL     1       6.676   3.485  19.419  0.00  0.00    +0.000 HD
ENDBRANCH   8  11
ENDBRANCH   1   9
BRANCH   4  21
ATOM     21  S   UNL     1      -0.742  11.322  19.369  0.00  0.00    +0.000 S 
ATOM     22  O   UNL     1      -0.112  12.478  18.789  0.00  0.00    +0.000 OA
ATOM     23  O   UNL     1      -2.038  10.846  18.929  0.00  0.00    +0.000 OA
BRANCH  21  24
ATOM     24  N   UNL     1      -0.845  11.613  21.018  0.00  0.00    +0.000 NA
ATOM     25  H   UNL     1       0.060  11.856  21.432  0.00  0.00    +0.000 HD
BRANCH  24  26
ATOM     26  C   UNL     1      -2.044  12.336  21.528  0.00  0.00    +0.000 C 
BRANCH  26  27
ATOM     27  C   UNL     1      -2.296  12.148  23.027  0.00  0.00    +0.000 C 
ATOM     28  F   UNL     1      -3.618  12.170  23.323  0.00  0.00    +0.000 F 
ATOM     29  F   UNL     1      -1.816  10.956  23.452  0.00  0.00    +0.000 F 
ATOM     30  F   UNL     1      -1.697  13.114  23.755  0.00  0.00    +0.000 F 
ENDBRANCH  26  27
ENDBRANCH  24  26
ENDBRANCH  21  24
ENDBRANCH   4  21
TORSDOF 6
ENDMDL
