MODEL 1
REMARK VINA RESULT:      -8.9      0.000      0.000
REMARK  Name = 
REMARK  4 active torsions:
REMARK  status: ('A' for Active; 'I' for Inactive)
REMARK    1  A    between atoms: C_2  and  C_3
REMARK    2  A    between atoms: C_3  and  O_4
REMARK    3  A    between atoms: O_4  and  C_5
REMARK    4  A    between atoms: N_16  and  C_17
REMARK                            x       y       z     vdW  Elec       q    Type
REMARK                         _______ _______ _______ _____ _____    ______ ____
ROOT
ATOM      1  O   UNL     1       7.778   5.938  18.588  0.00  0.00    +0.000 OA
ATOM      2  C   UNL     1       7.143   6.771  17.946  0.00  0.00    +0.000 C 
ATOM      3  N   UNL     1       5.833   6.631  17.508  0.00  0.00    +0.000 N 
ATOM      4  H   UNL     1       5.519   7.285  16.800  0.00  0.00    +0.000 HD
ENDROOT
BRANCH   3   5
ATOM      5  C   UNL     1       4.951   5.572  17.824  0.00  0.00    +0.000 A 
ATOM      6  C   UNL     1       4.642   4.529  16.927  0.00  0.00    +0.000 A 
ATOM      7  C   UNL     1       3.735   3.519  17.268  0.00  0.00    +0.000 A 
ATOM      8  C   UNL     1       3.152   3.575  18.512  0.00  0.00    +0.000 A 
ATOM      9  C   UNL     1       3.468   4.570  19.407  0.00  0.00    +0.000 A 
ATOM     10  C   UNL     1       4.372   5.570  19.101  0.00  0.00    +0.000 A 
ATOM     11  O   UNL     1       2.785   4.448  20.579  0.00  0.00    +0.000 OA
ATOM     12  C   UNL     1       1.985   3.292  20.282  0.00  0.00    +0.000 C 
ATOM     13  F   UNL     1       2.210   2.357  21.237  0.00  0.00    +0.000 F 
ATOM     14  F   UNL     1       0.677   3.644  20.352  0.00  0.00    +0.000 F 
ATOM     15  O   UNL     1       2.231   2.702  18.999  0.00  0.00    +0.000 OA
ENDBRANCH   3   5
BRANCH   2  16
ATOM     16  C   UNL     1       7.767   8.120  17.582  0.00  0.00    +0.000 C 
BRANCH  16  17
ATOM     17  O   UNL     1       8.565   8.650  18.634  0.00  0.00    +0.000 OA
BRANCH  17  18
ATOM     18  C   UNL     1       8.907   9.977  18.515  0.00  0.00    +0.000 A 
ATOM     19  C   UNL     1       8.227  10.920  17.736  0.00  0.00    +0.000 A 
ATOM     20  C   UNL     1       8.652  12.253  17.697  0.00  0.00    +0.000 A 
ATOM     21  C   UNL     1       9.777  12.639  18.416  0.00  0.00    +0.000 A 
ATOM     22  C   UNL     1      10.479  11.712  19.192  0.00  0.00    +0.000 A 
ATOM     23  C   UNL     1      10.031  10.382  19.245  0.00  0.00    +0.000 A 
ATOM     24  C   UNL     1      11.626  12.196  20.038  0.00  0.00    +0.000 C 
ATOM     25  C   UNL     1      12.333  13.376  19.388  0.00  0.00    +0.000 C 
ATOM     26  C   UNL     1      11.358  14.433  18.922  0.00  0.00    +0.000 C 
ATOM     27  O   UNL     1      11.635  15.630  18.912  0.00  0.00    +0.000 OA
ATOM     28  N   UNL     1      10.184  13.975  18.385  0.00  0.00    +0.000 N 
ATOM     29  H   UNL     1       9.598  14.676  17.950  0.00  0.00    +0.000 HD
ENDBRANCH  17  18
ENDBRANCH  16  17
ENDBRANCH   2  16
TORSDOF 4
ENDMDL
MODEL 2
REMARK VINA RESULT:      -8.9      1.456      1.883
REMARK  Name = 
REMARK  4 active torsions:
REMARK  status: ('A' for Active; 'I' for Inactive)
REMARK    1  A    between atoms: C_2  and  C_3
REMARK    2  A    between atoms: C_3  and  O_4
REMARK    3  A    between atoms: O_4  and  C_5
REMARK    4  A    between atoms: N_16  and  C_17
REMARK                            x       y       z     vdW  Elec       q    Type
REMARK                         _______ _______ _______ _____ _____    ______ ____
ROOT
ATOM      1  O   UNL     1       8.031   6.904  16.561  0.00  0.00    +0.000 OA
ATOM      2  C   UNL     1       7.343   7.620  17.285  0.00  0.00    +0.000 C 
ATOM      3  N   UNL     1       6.114   7.278  17.832  0.00  0.00    +0.000 N 
ATOM      4  H   UNL     1       5.558   8.038  18.209  0.00  0.00    +0.000 HD
ENDROOT
BRANCH   3   5
ATOM      5  C   UNL     1       5.491   6.011  17.769  0.00  0.00    +0.000 A 
ATOM      6  C   UNL     1       4.852   5.521  16.610  0.00  0.00    +0.000 A 
ATOM      7  C   UNL     1       4.215   4.274  16.602  0.00  0.00    +0.000 A 
ATOM      8  C   UNL     1       4.233   3.537  17.762  0.00  0.00    +0.000 A 
ATOM      9  C   UNL     1       4.878   3.991  18.889  0.00  0.00    +0.000 A 
ATOM     10  C   UNL     1       5.528   5.211  18.920  0.00  0.00    +0.000 A 
ATOM     11  O   UNL     1       4.780   3.117  19.929  0.00  0.00    +0.000 OA
ATOM     12  C   UNL     1       3.965   2.100  19.324  0.00  0.00    +0.000 C 
ATOM     13  F   UNL     1       4.612   0.914  19.426  0.00  0.00    +0.000 F 
ATOM     14  F   UNL     1       2.810   1.999  20.027  0.00  0.00    +0.000 F 
ATOM     15  O   UNL     1       3.643   2.326  17.945  0.00  0.00    +0.000 OA
ENDBRANCH   3   5
BRANCH   2  16
ATOM     16  C   UNL     1       7.825   9.015  17.689  0.00  0.00    +0.000 C 
BRANCH  16  17
ATOM     17  O   UNL     1       8.700   8.984  18.810  0.00  0.00    +0.000 OA
BRANCH  17  18
ATOM     18  C   UNL     1       9.312  10.174  19.124  0.00  0.00    +0.000 A 
ATOM     19  C   UNL     1       9.483  10.678  20.419  0.00  0.00    +0.000 A 
ATOM     20  C   UNL     1      10.135  11.898  20.629  0.00  0.00    +0.000 A 
ATOM     21  C   UNL     1      10.594  12.631  19.541  0.00  0.00    +0.000 A 
ATOM     22  C   UNL     1      10.425  12.154  18.238  0.00  0.00    +0.000 A 
ATOM     23  C   UNL     1       9.790  10.916  18.038  0.00  0.00    +0.000 A 
ATOM     24  C   UNL     1      11.032  12.927  17.098  0.00  0.00    +0.000 C 
ATOM     25  C   UNL     1      11.056  14.420  17.394  0.00  0.00    +0.000 C 
ATOM     26  C   UNL     1      11.611  14.715  18.768  0.00  0.00    +0.000 C 
ATOM     27  O   UNL     1      12.245  15.737  19.020  0.00  0.00    +0.000 OA
ATOM     28  N   UNL     1      11.260  13.840  19.761  0.00  0.00    +0.000 N 
ATOM     29  H   UNL     1      11.517  14.115  20.701  0.00  0.00    +0.000 HD
ENDBRANCH  17  18
ENDBRANCH  16  17
ENDBRANCH   2  16
TORSDOF 4
ENDMDL
MODEL 3
REMARK VINA RESULT:      -8.9      7.001      9.138
REMARK  Name = 
REMARK  4 active torsions:
REMARK  status: ('A' for Active; 'I' for Inactive)
REMARK    1  A    between atoms: C_2  and  C_3
REMARK    2  A    between atoms: C_3  and  O_4
REMARK    3  A    between atoms: O_4  and  C_5
REMARK    4  A    between atoms: N_16  and  C_17
REMARK                            x       y       z     vdW  Elec       q    Type
REMARK                         _______ _______ _______ _____ _____    ______ ____
ROOT
ATOM      1  O   UNL     1      -0.421   7.785  21.557  0.00  0.00    +0.000 OA
ATOM      2  C   UNL     1       0.682   8.325  21.597  0.00  0.00    +0.000 C 
ATOM      3  N   UNL     1       1.843   7.843  21.006  0.00  0.00    +0.000 N 
ATOM      4  H   UNL     1       2.714   8.261  21.312  0.00  0.00    +0.000 HD
ENDROOT
BRANCH   3   5
ATOM      5  C   UNL     1       1.945   6.724  20.149  0.00  0.00    +0.000 A 
ATOM      6  C   UNL     1       2.372   6.814  18.808  0.00  0.00    +0.000 A 
ATOM      7  C   UNL     1       2.425   5.684  17.982  0.00  0.00    +0.000 A 
ATOM      8  C   UNL     1       2.046   4.477  18.523  0.00  0.00    +0.000 A 
ATOM      9  C   UNL     1       1.658   4.372  19.837  0.00  0.00    +0.000 A 
ATOM     10  C   UNL     1       1.612   5.468  20.678  0.00  0.00    +0.000 A 
ATOM     11  O   UNL     1       1.323   3.096  20.177  0.00  0.00    +0.000 OA
ATOM     12  C   UNL     1       1.510   2.444  18.911  0.00  0.00    +0.000 C 
ATOM     13  F   UNL     1       2.377   1.416  19.081  0.00  0.00    +0.000 F 
ATOM     14  F   UNL     1       0.323   1.918  18.518  0.00  0.00    +0.000 F 
ATOM     15  O   UNL     1       2.005   3.289  17.865  0.00  0.00    +0.000 OA
ENDBRANCH   3   5
BRANCH   2  16
ATOM     16  C   UNL     1       0.873   9.663  22.315  0.00  0.00    +0.000 C 
BRANCH  16  17
ATOM     17  O   UNL     1       1.027  10.748  21.409  0.00  0.00    +0.000 OA
BRANCH  17  18
ATOM     18  C   UNL     1      -0.104  11.115  20.717  0.00  0.00    +0.000 A 
ATOM     19  C   UNL     1      -1.032  12.073  21.136  0.00  0.00    +0.000 A 
ATOM     20  C   UNL     1      -2.145  12.382  20.344  0.00  0.00    +0.000 A 
ATOM     21  C   UNL     1      -2.345  11.711  19.144  0.00  0.00    +0.000 A 
ATOM     22  C   UNL     1      -1.437  10.741  18.710  0.00  0.00    +0.000 A 
ATOM     23  C   UNL     1      -0.310  10.455  19.499  0.00  0.00    +0.000 A 
ATOM     24  C   UNL     1      -1.634  10.117  17.355  0.00  0.00    +0.000 C 
ATOM     25  C   UNL     1      -3.111  10.030  16.997  0.00  0.00    +0.000 C 
ATOM     26  C   UNL     1      -3.829  11.338  17.238  0.00  0.00    +0.000 C 
ATOM     27  O   UNL     1      -4.778  11.708  16.551  0.00  0.00    +0.000 OA
ATOM     28  N   UNL     1      -3.449  12.038  18.352  0.00  0.00    +0.000 N 
ATOM     29  H   UNL     1      -4.023  12.838  18.586  0.00  0.00    +0.000 HD
ENDBRANCH  17  18
ENDBRANCH  16  17
ENDBRANCH   2  16
TORSDOF 4
ENDMDL
MODEL 4
REMARK VINA RESULT:      -8.8      6.493      8.362
REMARK  Name = 
REMARK  4 active torsions:
REMARK  status: ('A' for Active; 'I' for Inactive)
REMARK    1  A    between atoms: C_2  and  C_3
REMARK    2  A    between atoms: C_3  and  O_4
REMARK    3  A    between atoms: O_4  and  C_5
REMARK    4  A    between atoms: N_16  and  C_17
REMARK                            x       y       z     vdW  Elec       q    Type
REMARK                         _______ _______ _______ _____ _____    ______ ____
ROOT
ATOM      1  O   UNL     1       0.571   4.624  20.338  0.00  0.00    +0.000 OA
ATOM      2  C   UNL     1       1.731   4.791  20.705  0.00  0.00    +0.000 C 
ATOM      3  N   UNL     1       2.472   5.955  20.548  0.00  0.00    +0.000 N 
ATOM      4  H   UNL     1       3.474   5.876  20.682  0.00  0.00    +0.000 HD
ENDROOT
BRANCH   3   5
ATOM      5  C   UNL     1       1.996   7.193  20.062  0.00  0.00    +0.000 A 
ATOM      6  C   UNL     1       2.201   7.634  18.738  0.00  0.00    +0.000 A 
ATOM      7  C   UNL     1       1.743   8.886  18.307  0.00  0.00    +0.000 A 
ATOM      8  C   UNL     1       1.082   9.675  19.219  0.00  0.00    +0.000 A 
ATOM      9  C   UNL     1       0.850   9.243  20.503  0.00  0.00    +0.000 A 
ATOM     10  C   UNL     1       1.277   8.007  20.950  0.00  0.00    +0.000 A 
ATOM     11  O   UNL     1       0.182  10.169  21.247  0.00  0.00    +0.000 OA
ATOM     12  C   UNL     1       0.073  11.230  20.285  0.00  0.00    +0.000 C 
ATOM     13  F   UNL     1      -1.235  11.558  20.155  0.00  0.00    +0.000 F 
ATOM     14  F   UNL     1       0.722  12.318  20.768  0.00  0.00    +0.000 F 
ATOM     15  O   UNL     1       0.597  10.923  18.987  0.00  0.00    +0.000 OA
ENDBRANCH   3   5
BRANCH   2  16
ATOM     16  C   UNL     1       2.489   3.678  21.432  0.00  0.00    +0.000 C 
BRANCH  16  17
ATOM     17  O   UNL     1       2.921   2.650  20.549  0.00  0.00    +0.000 OA
BRANCH  17  18
ATOM     18  C   UNL     1       3.418   3.071  19.338  0.00  0.00    +0.000 A 
ATOM     19  C   UNL     1       2.743   2.988  18.115  0.00  0.00    +0.000 A 
ATOM     20  C   UNL     1       3.337   3.462  16.940  0.00  0.00    +0.000 A 
ATOM     21  C   UNL     1       4.620   3.994  16.981  0.00  0.00    +0.000 A 
ATOM     22  C   UNL     1       5.318   4.077  18.189  0.00  0.00    +0.000 A 
ATOM     23  C   UNL     1       4.705   3.621  19.368  0.00  0.00    +0.000 A 
ATOM     24  C   UNL     1       6.660   4.757  18.206  0.00  0.00    +0.000 C 
ATOM     25  C   UNL     1       7.392   4.570  16.884  0.00  0.00    +0.000 C 
ATOM     26  C   UNL     1       6.505   4.877  15.699  0.00  0.00    +0.000 C 
ATOM     27  O   UNL     1       6.940   5.348  14.652  0.00  0.00    +0.000 OA
ATOM     28  N   UNL     1       5.198   4.481  15.806  0.00  0.00    +0.000 N 
ATOM     29  H   UNL     1       4.645   4.561  14.962  0.00  0.00    +0.000 HD
ENDBRANCH  17  18
ENDBRANCH  16  17
ENDBRANCH   2  16
TORSDOF 4
ENDMDL
MODEL 5
REMARK VINA RESULT:      -8.8      4.519     10.397
REMARK  Name = 
REMARK  4 active torsions:
REMARK  status: ('A' for Active; 'I' for Inactive)
REMARK    1  A    between atoms: C_2  and  C_3
REMARK    2  A    between atoms: C_3  and  O_4
REMARK    3  A    between atoms: O_4  and  C_5
REMARK    4  A    between atoms: N_16  and  C_17
REMARK                            x       y       z     vdW  Elec       q    Type
REMARK                         _______ _______ _______ _____ _____    ______ ____
ROOT
ATOM      1  O   UNL     1       7.433   8.902  17.391  0.00  0.00    +0.000 OA
ATOM      2  C   UNL     1       8.112   8.291  18.213  0.00  0.00    +0.000 C 
ATOM      3  N   UNL     1       9.046   8.854  19.072  0.00  0.00    +0.000 N 
ATOM      4  H   UNL     1       9.691   8.215  19.522  0.00  0.00    +0.000 HD
ENDROOT
BRANCH   3   5
ATOM      5  C   UNL     1       9.295  10.234  19.253  0.00  0.00    +0.000 A 
ATOM      6  C   UNL     1       9.253  10.868  20.513  0.00  0.00    +0.000 A 
ATOM      7  C   UNL     1       9.470  12.245  20.643  0.00  0.00    +0.000 A 
ATOM      8  C   UNL     1       9.727  12.964  19.500  0.00  0.00    +0.000 A 
ATOM      9  C   UNL     1       9.799  12.353  18.270  0.00  0.00    +0.000 A 
ATOM     10  C   UNL     1       9.605  10.993  18.115  0.00  0.00    +0.000 A 
ATOM     11  O   UNL     1      10.062  13.236  17.268  0.00  0.00    +0.000 OA
ATOM     12  C   UNL     1      10.098  14.461  18.018  0.00  0.00    +0.000 C 
ATOM     13  F   UNL     1      11.287  15.070  17.789  0.00  0.00    +0.000 F 
ATOM     14  F   UNL     1       9.122  15.280  17.552  0.00  0.00    +0.000 F 
ATOM     15  O   UNL     1       9.930  14.306  19.433  0.00  0.00    +0.000 OA
ENDBRANCH   3   5
BRANCH   2  16
ATOM     16  C   UNL     1       7.955   6.779  18.388  0.00  0.00    +0.000 C 
BRANCH  16  17
ATOM     17  O   UNL     1       7.691   6.115  17.158  0.00  0.00    +0.000 OA
BRANCH  17  18
ATOM     18  C   UNL     1       6.497   5.436  17.089  0.00  0.00    +0.000 A 
ATOM     19  C   UNL     1       6.070   4.659  16.007  0.00  0.00    +0.000 A 
ATOM     20  C   UNL     1       4.838   3.997  16.047  0.00  0.00    +0.000 A 
ATOM     21  C   UNL     1       4.017   4.133  17.160  0.00  0.00    +0.000 A 
ATOM     22  C   UNL     1       4.417   4.914  18.248  0.00  0.00    +0.000 A 
ATOM     23  C   UNL     1       5.666   5.556  18.210  0.00  0.00    +0.000 A 
ATOM     24  C   UNL     1       3.546   4.948  19.475  0.00  0.00    +0.000 C 
ATOM     25  C   UNL     1       2.075   4.795  19.113  0.00  0.00    +0.000 C 
ATOM     26  C   UNL     1       1.844   3.640  18.165  0.00  0.00    +0.000 C 
ATOM     27  O   UNL     1       0.813   2.972  18.175  0.00  0.00    +0.000 OA
ATOM     28  N   UNL     1       2.796   3.455  17.198  0.00  0.00    +0.000 N 
ATOM     29  H   UNL     1       2.570   2.774  16.485  0.00  0.00    +0.000 HD
ENDBRANCH  17  18
ENDBRANCH  16  17
ENDBRANCH   2  16
TORSDOF 4
ENDMDL
MODEL 6
REMARK VINA RESULT:      -8.7      5.902      7.836
REMARK  Name = 
REMARK  4 active torsions:
REMARK  status: ('A' for Active; 'I' for Inactive)
REMARK    1  A    between atoms: C_2  and  C_3
REMARK    2  A    between atoms: C_3  and  O_4
REMARK    3  A    between atoms: O_4  and  C_5
REMARK    4  A    between atoms: N_16  and  C_17
REMARK                            x       y       z     vdW  Elec       q    Type
REMARK                         _______ _______ _______ _____ _____    ______ ____
ROOT
ATOM      1  O   UNL     1       1.853   5.131  17.959  0.00  0.00    +0.000 OA
ATOM      2  C   UNL     1       2.503   5.169  19.001  0.00  0.00    +0.000 C 
ATOM      3  N   UNL     1       2.700   6.293  19.793  0.00  0.00    +0.000 N 
ATOM      4  H   UNL     1       3.439   6.236  20.484  0.00  0.00    +0.000 HD
ENDROOT
BRANCH   3   5
ATOM      5  C   UNL     1       2.089   7.556  19.623  0.00  0.00    +0.000 A 
ATOM      6  C   UNL     1       2.152   8.289  18.419  0.00  0.00    +0.000 A 
ATOM      7  C   UNL     1       1.563   9.554  18.305  0.00  0.00    +0.000 A 
ATOM      8  C   UNL     1       0.917  10.063  19.408  0.00  0.00    +0.000 A 
ATOM      9  C   UNL     1       0.824   9.345  20.576  0.00  0.00    +0.000 A 
ATOM     10  C   UNL     1       1.382   8.087  20.712  0.00  0.00    +0.000 A 
ATOM     11  O   UNL     1       0.147  10.021  21.546  0.00  0.00    +0.000 OA
ATOM     12  C   UNL     1      -0.123  11.249  20.851  0.00  0.00    +0.000 C 
ATOM     13  F   UNL     1      -1.459  11.472  20.877  0.00  0.00    +0.000 F 
ATOM     14  F   UNL     1       0.475  12.264  21.523  0.00  0.00    +0.000 F 
ATOM     15  O   UNL     1       0.318  11.280  19.488  0.00  0.00    +0.000 OA
ENDBRANCH   3   5
BRANCH   2  16
ATOM     16  C   UNL     1       3.162   3.906  19.558  0.00  0.00    +0.000 C 
BRANCH  16  17
ATOM     17  O   UNL     1       4.539   4.100  19.860  0.00  0.00    +0.000 OA
BRANCH  17  18
ATOM     18  C   UNL     1       5.319   4.561  18.826  0.00  0.00    +0.000 A 
ATOM     19  C   UNL     1       6.223   5.626  18.907  0.00  0.00    +0.000 A 
ATOM     20  C   UNL     1       6.980   6.005  17.794  0.00  0.00    +0.000 A 
ATOM     21  C   UNL     1       6.815   5.337  16.587  0.00  0.00    +0.000 A 
ATOM     22  C   UNL     1       5.910   4.277  16.478  0.00  0.00    +0.000 A 
ATOM     23  C   UNL     1       5.171   3.887  17.607  0.00  0.00    +0.000 A 
ATOM     24  C   UNL     1       5.840   3.513  15.183  0.00  0.00    +0.000 C 
ATOM     25  C   UNL     1       6.149   4.411  13.994  0.00  0.00    +0.000 C 
ATOM     26  C   UNL     1       7.398   5.233  14.215  0.00  0.00    +0.000 C 
ATOM     27  O   UNL     1       8.147   5.558  13.298  0.00  0.00    +0.000 OA
ATOM     28  N   UNL     1       7.588   5.711  15.485  0.00  0.00    +0.000 N 
ATOM     29  H   UNL     1       8.347   6.372  15.596  0.00  0.00    +0.000 HD
ENDBRANCH  17  18
ENDBRANCH  16  17
ENDBRANCH   2  16
TORSDOF 4
ENDMDL
MODEL 7
REMARK VINA RESULT:      -8.7      5.750      9.134
REMARK  Name = 
REMARK  4 active torsions:
REMARK  status: ('A' for Active; 'I' for Inactive)
REMARK    1  A    between atoms: C_2  and  C_3
REMARK    2  A    between atoms: C_3  and  O_4
REMARK    3  A    between atoms: O_4  and  C_5
REMARK    4  A    between atoms: N_16  and  C_17
REMARK                            x       y       z     vdW  Elec       q    Type
REMARK                         _______ _______ _______ _____ _____    ______ ____
ROOT
ATOM      1  O   UNL     1       8.227   4.176  17.402  0.00  0.00    +0.000 OA
ATOM      2  C   UNL     1       7.685   5.277  17.361  0.00  0.00    +0.000 C 
ATOM      3  N   UNL     1       7.160   5.881  16.226  0.00  0.00    +0.000 N 
ATOM      4  H   UNL     1       6.959   6.873  16.292  0.00  0.00    +0.000 HD
ENDROOT
BRANCH   3   5
ATOM      5  C   UNL     1       7.034   5.295  14.946  0.00  0.00    +0.000 A 
ATOM      6  C   UNL     1       7.973   5.490  13.912  0.00  0.00    +0.000 A 
ATOM      7  C   UNL     1       7.792   4.919  12.646  0.00  0.00    +0.000 A 
ATOM      8  C   UNL     1       6.665   4.158  12.442  0.00  0.00    +0.000 A 
ATOM      9  C   UNL     1       5.758   3.936  13.451  0.00  0.00    +0.000 A 
ATOM     10  C   UNL     1       5.921   4.475  14.714  0.00  0.00    +0.000 A 
ATOM     11  O   UNL     1       4.714   3.160  13.048  0.00  0.00    +0.000 OA
ATOM     12  C   UNL     1       5.064   2.969  11.668  0.00  0.00    +0.000 C 
ATOM     13  F   UNL     1       5.116   1.638  11.418  0.00  0.00    +0.000 F 
ATOM     14  F   UNL     1       4.078   3.492  10.898  0.00  0.00    +0.000 F 
ATOM     15  O   UNL     1       6.311   3.556  11.276  0.00  0.00    +0.000 OA
ENDBRANCH   3   5
BRANCH   2  16
ATOM     16  C   UNL     1       7.507   6.109  18.633  0.00  0.00    +0.000 C 
BRANCH  16  17
ATOM     17  O   UNL     1       6.772   5.418  19.636  0.00  0.00    +0.000 OA
BRANCH  17  18
ATOM     18  C   UNL     1       5.468   5.116  19.321  0.00  0.00    +0.000 A 
ATOM     19  C   UNL     1       4.499   6.042  18.918  0.00  0.00    +0.000 A 
ATOM     20  C   UNL     1       3.200   5.625  18.606  0.00  0.00    +0.000 A 
ATOM     21  C   UNL     1       2.860   4.283  18.722  0.00  0.00    +0.000 A 
ATOM     22  C   UNL     1       3.808   3.341  19.134  0.00  0.00    +0.000 A 
ATOM     23  C   UNL     1       5.116   3.765  19.422  0.00  0.00    +0.000 A 
ATOM     24  C   UNL     1       3.427   1.885  19.143  0.00  0.00    +0.000 C 
ATOM     25  C   UNL     1       1.948   1.703  19.454  0.00  0.00    +0.000 C 
ATOM     26  C   UNL     1       1.078   2.613  18.618  0.00  0.00    +0.000 C 
ATOM     27  O   UNL     1      -0.051   2.296  18.254  0.00  0.00    +0.000 OA
ATOM     28  N   UNL     1       1.566   3.872  18.392  0.00  0.00    +0.000 N 
ATOM     29  H   UNL     1       0.924   4.520  17.953  0.00  0.00    +0.000 HD
ENDBRANCH  17  18
ENDBRANCH  16  17
ENDBRANCH   2  16
TORSDOF 4
ENDMDL
MODEL 8
REMARK VINA RESULT:      -8.7      1.694      1.989
REMARK  Name = 
REMARK  4 active torsions:
REMARK  status: ('A' for Active; 'I' for Inactive)
REMARK    1  A    between atoms: C_2  and  C_3
REMARK    2  A    between atoms: C_3  and  O_4
REMARK    3  A    between atoms: O_4  and  C_5
REMARK    4  A    between atoms: N_16  and  C_17
REMARK                            x       y       z     vdW  Elec       q    Type
REMARK                         _______ _______ _______ _____ _____    ______ ____
ROOT
ATOM      1  O   UNL     1       8.142   6.985  18.691  0.00  0.00    +0.000 OA
ATOM      2  C   UNL     1       7.746   7.784  17.846  0.00  0.00    +0.000 C 
ATOM      3  N   UNL     1       6.692   7.577  16.966  0.00  0.00    +0.000 N 
ATOM      4  H   UNL     1       6.628   8.214  16.179  0.00  0.00    +0.000 HD
ENDROOT
BRANCH   3   5
ATOM      5  C   UNL     1       5.805   6.477  16.963  0.00  0.00    +0.000 A 
ATOM      6  C   UNL     1       6.055   5.285  16.251  0.00  0.00    +0.000 A 
ATOM      7  C   UNL     1       5.131   4.232  16.246  0.00  0.00    +0.000 A 
ATOM      8  C   UNL     1       3.969   4.396  16.961  0.00  0.00    +0.000 A 
ATOM      9  C   UNL     1       3.728   5.541  17.683  0.00  0.00    +0.000 A 
ATOM     10  C   UNL     1       4.629   6.589  17.718  0.00  0.00    +0.000 A 
ATOM     11  O   UNL     1       2.524   5.508  18.320  0.00  0.00    +0.000 OA
ATOM     12  C   UNL     1       2.039   4.233  17.869  0.00  0.00    +0.000 C 
ATOM     13  F   UNL     1       1.736   3.481  18.955  0.00  0.00    +0.000 F 
ATOM     14  F   UNL     1       0.891   4.431  17.174  0.00  0.00    +0.000 F 
ATOM     15  O   UNL     1       2.952   3.498  17.045  0.00  0.00    +0.000 OA
ENDBRANCH   3   5
BRANCH   2  16
ATOM     16  C   UNL     1       8.398   9.162  17.706  0.00  0.00    +0.000 C 
BRANCH  16  17
ATOM     17  O   UNL     1       8.966   9.620  18.927  0.00  0.00    +0.000 OA
BRANCH  17  18
ATOM     18  C   UNL     1       9.504  10.885  18.898  0.00  0.00    +0.000 A 
ATOM     19  C   UNL     1      10.239  11.427  17.838  0.00  0.00    +0.000 A 
ATOM     20  C   UNL     1      10.731  12.736  17.906  0.00  0.00    +0.000 A 
ATOM     21  C   UNL     1      10.510  13.497  19.048  0.00  0.00    +0.000 A 
ATOM     22  C   UNL     1       9.788  12.973  20.124  0.00  0.00    +0.000 A 
ATOM     23  C   UNL     1       9.277  11.667  20.037  0.00  0.00    +0.000 A 
ATOM     24  C   UNL     1       9.481  13.867  21.295  0.00  0.00    +0.000 C 
ATOM     25  C   UNL     1      10.585  14.893  21.511  0.00  0.00    +0.000 C 
ATOM     26  C   UNL     1      10.969  15.589  20.225  0.00  0.00    +0.000 C 
ATOM     27  O   UNL     1      11.355  16.755  20.194  0.00  0.00    +0.000 OA
ATOM     28  N   UNL     1      10.989  14.808  19.100  0.00  0.00    +0.000 N 
ATOM     29  H   UNL     1      11.379  15.241  18.272  0.00  0.00    +0.000 HD
ENDBRANCH  17  18
ENDBRANCH  16  17
ENDBRANCH   2  16
TORSDOF 4
ENDMDL
MODEL 9
REMARK VINA RESULT:      -8.7      1.846      2.493
REMARK  Name = 
REMARK  4 active torsions:
REMARK  status: ('A' for Active; 'I' for Inactive)
REMARK    1  A    between atoms: C_2  and  C_3
REMARK    2  A    between atoms: C_3  and  O_4
REMARK    3  A    between atoms: O_4  and  C_5
REMARK    4  A    between atoms: N_16  and  C_17
REMARK                            x       y       z     vdW  Elec       q    Type
REMARK                         _______ _______ _______ _____ _____    ______ ____
ROOT
ATOM      1  O   UNL     1       8.386   7.471  18.664  0.00  0.00    +0.000 OA
ATOM      2  C   UNL     1       7.817   8.143  17.807  0.00  0.00    +0.000 C 
ATOM      3  N   UNL     1       6.840   7.684  16.933  0.00  0.00    +0.000 N 
ATOM      4  H   UNL     1       6.631   8.275  16.136  0.00  0.00    +0.000 HD
ENDROOT
BRANCH   3   5
ATOM      5  C   UNL     1       6.230   6.410  16.951  0.00  0.00    +0.000 A 
ATOM      6  C   UNL     1       6.713   5.311  16.210  0.00  0.00    +0.000 A 
ATOM      7  C   UNL     1       6.056   4.074  16.228  0.00  0.00    +0.000 A 
ATOM      8  C   UNL     1       4.921   3.963  16.996  0.00  0.00    +0.000 A 
ATOM      9  C   UNL     1       4.458   5.017  17.746  0.00  0.00    +0.000 A 
ATOM     10  C   UNL     1       5.095   6.244  17.759  0.00  0.00    +0.000 A 
ATOM     11  O   UNL     1       3.324   4.705  18.434  0.00  0.00    +0.000 OA
ATOM     12  C   UNL     1       3.124   3.355  17.984  0.00  0.00    +0.000 C 
ATOM     13  F   UNL     1       3.053   2.547  19.070  0.00  0.00    +0.000 F 
ATOM     14  F   UNL     1       1.931   3.287  17.343  0.00  0.00    +0.000 F 
ATOM     15  O   UNL     1       4.143   2.854  17.109  0.00  0.00    +0.000 OA
ENDBRANCH   3   5
BRANCH   2  16
ATOM     16  C   UNL     1       8.134   9.631  17.642  0.00  0.00    +0.000 C 
BRANCH  16  17
ATOM     17  O   UNL     1       9.185  10.060  18.499  0.00  0.00    +0.000 OA
BRANCH  17  18
ATOM     18  C   UNL     1       9.751  11.275  18.190  0.00  0.00    +0.000 A 
ATOM     19  C   UNL     1      11.087  11.476  17.830  0.00  0.00    +0.000 A 
ATOM     20  C   UNL     1      11.557  12.758  17.520  0.00  0.00    +0.000 A 
ATOM     21  C   UNL     1      10.696  13.845  17.596  0.00  0.00    +0.000 A 
ATOM     22  C   UNL     1       9.359  13.670  17.964  0.00  0.00    +0.000 A 
ATOM     23  C   UNL     1       8.889  12.377  18.250  0.00  0.00    +0.000 A 
ATOM     24  C   UNL     1       8.436  14.858  17.929  0.00  0.00    +0.000 C 
ATOM     25  C   UNL     1       9.180  16.146  18.253  0.00  0.00    +0.000 C 
ATOM     26  C   UNL     1      10.459  16.275  17.458  0.00  0.00    +0.000 C 
ATOM     27  O   UNL     1      10.908  17.359  17.098  0.00  0.00    +0.000 OA
ATOM     28  N   UNL     1      11.169  15.118  17.268  0.00  0.00    +0.000 N 
ATOM     29  H   UNL     1      12.088  15.230  16.859  0.00  0.00    +0.000 HD
ENDBRANCH  17  18
ENDBRANCH  16  17
ENDBRANCH   2  16
TORSDOF 4
ENDMDL
