MODEL 1
REMARK VINA RESULT:      -8.1      0.000      0.000
REMARK  Name = 
REMARK  6 active torsions:
REMARK  status: ('A' for Active; 'I' for Inactive)
REMARK    1  A    between atoms: C_1  and  N_2
REMARK    2  A    between atoms: C_6  and  C_7
REMARK    3  A    between atoms: C_7  and  C_8
REMARK    4  A    between atoms: C_8  and  C_9
REMARK    5  A    between atoms: C_19  and  N_20
REMARK    6  A    between atoms: N_20  and  C_21
REMARK                            x       y       z     vdW  Elec       q    Type
REMARK                         _______ _______ _______ _____ _____    ______ ____
ROOT
ATOM      1  C   UNL     1      -2.187  13.491  21.131  0.00  0.00    +0.000 A 
ATOM      2  C   UNL     1      -1.672  14.645  20.526  0.00  0.00    +0.000 A 
ATOM      3  C   UNL     1      -0.546  14.558  19.719  0.00  0.00    +0.000 A 
ATOM      4  N   UNL     1       0.100  13.404  19.449  0.00  0.00    +0.000 NA
ATOM      5  C   UNL     1      -0.314  12.308  20.111  0.00  0.00    +0.000 A 
ATOM      6  N   UNL     1       0.350  11.103  19.875  0.00  0.00    +0.000 N 
ATOM      7  C   UNL     1       0.807  10.747  18.548  0.00  0.00    +0.000 C 
ATOM      8  C   UNL     1       1.353   9.368  18.763  0.00  0.00    +0.000 A 
ATOM      9  C   UNL     1       1.901   8.477  17.870  0.00  0.00    +0.000 A 
ATOM     10  C   UNL     1       2.380   7.256  18.369  0.00  0.00    +0.000 A 
ATOM     11  C   UNL     1       2.299   6.905  19.743  0.00  0.00    +0.000 A 
ATOM     12  C   UNL     1       1.759   7.844  20.627  0.00  0.00    +0.000 A 
ATOM     13  C   UNL     1       1.268   9.030  20.110  0.00  0.00    +0.000 A 
ATOM     14  C   UNL     1       0.590  10.121  20.817  0.00  0.00    +0.000 C 
ATOM     15  O   UNL     1       0.334  10.099  22.008  0.00  0.00    +0.000 OA
ATOM     16  C   UNL     1      -1.419  12.325  20.957  0.00  0.00    +0.000 A 
ENDROOT
BRANCH   1  17
ATOM     17  C   UNL     1      -3.593  13.458  21.913  0.00  0.00    +0.000 C 
ATOM     18  C   UNL     1      -3.768  12.401  23.044  0.00  0.00    +0.000 C 
ATOM     19  O   UNL     1      -3.912  13.412  24.059  0.00  0.00    +0.000 OA
ATOM     20  C   UNL     1      -3.712  14.465  23.099  0.00  0.00    +0.000 C 
BRANCH  17  21
ATOM     21  C   UNL     1      -4.778  13.599  20.940  0.00  0.00    +0.000 C 
BRANCH  21  27
ATOM     22  C   UNL     1      -7.170  14.865  22.581  0.00  0.00    +0.000 C 
ATOM     23  N   UNL     1      -7.034  13.501  22.146  0.00  0.00    +0.000 N 
ATOM     24  C   UNL     1      -7.914  12.498  22.428  0.00  0.00    +0.000 A 
ATOM     25  N   UNL     1      -7.499  11.385  21.878  0.00  0.00    +0.000 NA
ATOM     26  N   UNL     1      -6.317  11.653  21.236  0.00  0.00    +0.000 NA
ATOM     27  C   UNL     1      -6.028  12.929  21.407  0.00  0.00    +0.000 A 
ENDBRANCH  21  27
ENDBRANCH  17  21
ENDBRANCH   1  17
BRANCH  11  28
ATOM     28  N   UNL     1       2.881   5.715  20.156  0.00  0.00    +0.000 N 
ATOM     29  H   UNL     1       3.581   5.355  19.516  0.00  0.00    +0.000 HD
BRANCH  28  30
ATOM     30  C   UNL     1       2.106   4.588  20.600  0.00  0.00    +0.000 C 
ATOM     31  F   UNL     1       2.402   3.425  19.987  0.00  0.00    +0.000 F 
ATOM     32  F   UNL     1       2.342   4.420  21.920  0.00  0.00    +0.000 F 
ATOM     33  F   UNL     1       0.790   4.832  20.447  0.00  0.00    +0.000 F 
ENDBRANCH  28  30
ENDBRANCH  11  28
TORSDOF 5
ENDMDL
MODEL 2
REMARK VINA RESULT:      -8.1      1.079      1.587
REMARK  Name = 
REMARK  6 active torsions:
REMARK  status: ('A' for Active; 'I' for Inactive)
REMARK    1  A    between atoms: C_1  and  N_2
REMARK    2  A    between atoms: C_6  and  C_7
REMARK    3  A    between atoms: C_7  and  C_8
REMARK    4  A    between atoms: C_8  and  C_9
REMARK    5  A    between atoms: C_19  and  N_20
REMARK    6  A    between atoms: N_20  and  C_21
REMARK                            x       y       z     vdW  Elec       q    Type
REMARK                         _______ _______ _______ _____ _____    ______ ____
ROOT
ATOM      1  C   UNL     1      -2.519  13.664  21.067  0.00  0.00    +0.000 A 
ATOM      2  C   UNL     1      -1.972  14.846  20.549  0.00  0.00    +0.000 A 
ATOM      3  C   UNL     1      -0.786  14.800  19.829  0.00  0.00    +0.000 A 
ATOM      4  N   UNL     1      -0.108  13.663  19.564  0.00  0.00    +0.000 NA
ATOM      5  C   UNL     1      -0.560  12.539  20.149  0.00  0.00    +0.000 A 
ATOM      6  N   UNL     1       0.135  11.349  19.919  0.00  0.00    +0.000 N 
ATOM      7  C   UNL     1       0.696  11.050  18.619  0.00  0.00    +0.000 C 
ATOM      8  C   UNL     1       1.240   9.668  18.821  0.00  0.00    +0.000 A 
ATOM      9  C   UNL     1       1.865   8.817  17.940  0.00  0.00    +0.000 A 
ATOM     10  C   UNL     1       2.318   7.582  18.427  0.00  0.00    +0.000 A 
ATOM     11  C   UNL     1       2.135   7.177  19.776  0.00  0.00    +0.000 A 
ATOM     12  C   UNL     1       1.518   8.075  20.650  0.00  0.00    +0.000 A 
ATOM     13  C   UNL     1       1.055   9.276  20.144  0.00  0.00    +0.000 A 
ATOM     14  C   UNL     1       0.312  10.333  20.838  0.00  0.00    +0.000 C 
ATOM     15  O   UNL     1      -0.034  10.261  22.004  0.00  0.00    +0.000 OA
ATOM     16  C   UNL     1      -1.727  12.512  20.908  0.00  0.00    +0.000 A 
ENDROOT
BRANCH   1  17
ATOM     17  C   UNL     1      -3.981  13.589  21.736  0.00  0.00    +0.000 C 
ATOM     18  C   UNL     1      -4.198  12.562  22.887  0.00  0.00    +0.000 C 
ATOM     19  O   UNL     1      -4.470  13.599  23.850  0.00  0.00    +0.000 OA
ATOM     20  C   UNL     1      -4.242  14.627  22.871  0.00  0.00    +0.000 C 
BRANCH  17  21
ATOM     21  C   UNL     1      -5.088  13.639  20.667  0.00  0.00    +0.000 C 
BRANCH  21  27
ATOM     22  C   UNL     1      -4.477  11.757  18.198  0.00  0.00    +0.000 C 
ATOM     23  N   UNL     1      -5.426  11.530  19.256  0.00  0.00    +0.000 N 
ATOM     24  C   UNL     1      -6.273  10.465  19.333  0.00  0.00    +0.000 A 
ATOM     25  N   UNL     1      -6.996  10.559  20.421  0.00  0.00    +0.000 NA
ATOM     26  N   UNL     1      -6.631  11.714  21.064  0.00  0.00    +0.000 NA
ATOM     27  C   UNL     1      -5.690  12.309  20.356  0.00  0.00    +0.000 A 
ENDBRANCH  21  27
ENDBRANCH  17  21
ENDBRANCH   1  17
BRANCH  11  28
ATOM     28  N   UNL     1       2.697   5.975  20.185  0.00  0.00    +0.000 N 
ATOM     29  H   UNL     1       3.641   5.825  19.847  0.00  0.00    +0.000 HD
BRANCH  28  30
ATOM     30  C   UNL     1       2.009   4.719  20.065  0.00  0.00    +0.000 C 
ATOM     31  F   UNL     1       1.813   4.303  18.799  0.00  0.00    +0.000 F 
ATOM     32  F   UNL     1       2.756   3.779  20.687  0.00  0.00    +0.000 F 
ATOM     33  F   UNL     1       0.816   4.774  20.690  0.00  0.00    +0.000 F 
ENDBRANCH  28  30
ENDBRANCH  11  28
TORSDOF 5
ENDMDL
MODEL 3
REMARK VINA RESULT:      -8.1      2.420      3.277
REMARK  Name = 
REMARK  6 active torsions:
REMARK  status: ('A' for Active; 'I' for Inactive)
REMARK    1  A    between atoms: C_1  and  N_2
REMARK    2  A    between atoms: C_6  and  C_7
REMARK    3  A    between atoms: C_7  and  C_8
REMARK    4  A    between atoms: C_8  and  C_9
REMARK    5  A    between atoms: C_19  and  N_20
REMARK    6  A    between atoms: N_20  and  C_21
REMARK                            x       y       z     vdW  Elec       q    Type
REMARK                         _______ _______ _______ _____ _____    ______ ____
ROOT
ATOM      1  C   UNL     1      -0.579  12.587  20.354  0.00  0.00    +0.000 A 
ATOM      2  C   UNL     1       0.215  13.538  19.699  0.00  0.00    +0.000 A 
ATOM      3  C   UNL     1       1.334  13.129  18.986  0.00  0.00    +0.000 A 
ATOM      4  N   UNL     1       1.715  11.841  18.854  0.00  0.00    +0.000 NA
ATOM      5  C   UNL     1       1.028  10.930  19.568  0.00  0.00    +0.000 A 
ATOM      6  N   UNL     1       1.413   9.591  19.476  0.00  0.00    +0.000 N 
ATOM      7  C   UNL     1       1.847   9.021  18.218  0.00  0.00    +0.000 C 
ATOM      8  C   UNL     1       2.054   7.581  18.579  0.00  0.00    +0.000 A 
ATOM      9  C   UNL     1       2.432   6.512  17.801  0.00  0.00    +0.000 A 
ATOM     10  C   UNL     1       2.594   5.268  18.427  0.00  0.00    +0.000 A 
ATOM     11  C   UNL     1       2.363   5.073  19.815  0.00  0.00    +0.000 A 
ATOM     12  C   UNL     1       2.004   6.185  20.581  0.00  0.00    +0.000 A 
ATOM     13  C   UNL     1       1.823   7.397  19.939  0.00  0.00    +0.000 A 
ATOM     14  C   UNL     1       1.374   8.672  20.507  0.00  0.00    +0.000 C 
ATOM     15  O   UNL     1       1.056   8.817  21.674  0.00  0.00    +0.000 OA
ATOM     16  C   UNL     1      -0.088  11.269  20.328  0.00  0.00    +0.000 A 
ENDROOT
BRANCH   1  17
ATOM     17  C   UNL     1      -1.996  12.939  21.032  0.00  0.00    +0.000 C 
ATOM     18  C   UNL     1      -2.597  14.350  20.762  0.00  0.00    +0.000 C 
ATOM     19  O   UNL     1      -3.740  13.806  20.075  0.00  0.00    +0.000 OA
ATOM     20  C   UNL     1      -3.247  12.464  20.229  0.00  0.00    +0.000 C 
BRANCH  17  21
ATOM     21  C   UNL     1      -2.053  12.455  22.492  0.00  0.00    +0.000 C 
BRANCH  21  27
ATOM     22  C   UNL     1      -4.274  13.992  24.140  0.00  0.00    +0.000 C 
ATOM     23  N   UNL     1      -2.853  14.212  24.174  0.00  0.00    +0.000 N 
ATOM     24  C   UNL     1      -2.227  15.180  24.901  0.00  0.00    +0.000 A 
ATOM     25  N   UNL     1      -0.934  15.101  24.713  0.00  0.00    +0.000 NA
ATOM     26  N   UNL     1      -0.703  14.073  23.835  0.00  0.00    +0.000 NA
ATOM     27  C   UNL     1      -1.863  13.541  23.498  0.00  0.00    +0.000 A 
ENDBRANCH  21  27
ENDBRANCH  17  21
ENDBRANCH   1  17
BRANCH  11  28
ATOM     28  N   UNL     1       2.637   3.826  20.361  0.00  0.00    +0.000 N 
ATOM     29  H   UNL     1       3.446   3.368  19.956  0.00  0.00    +0.000 HD
BRANCH  28  30
ATOM     30  C   UNL     1       1.628   2.816  20.527  0.00  0.00    +0.000 C 
ATOM     31  F   UNL     1       1.831   1.694  19.808  0.00  0.00    +0.000 F 
ATOM     32  F   UNL     1       1.610   2.461  21.831  0.00  0.00    +0.000 F 
ATOM     33  F   UNL     1       0.412   3.309  20.220  0.00  0.00    +0.000 F 
ENDBRANCH  28  30
ENDBRANCH  11  28
TORSDOF 5
ENDMDL
MODEL 4
REMARK VINA RESULT:      -8.0      1.065      1.535
REMARK  Name = 
REMARK  6 active torsions:
REMARK  status: ('A' for Active; 'I' for Inactive)
REMARK    1  A    between atoms: C_1  and  N_2
REMARK    2  A    between atoms: C_6  and  C_7
REMARK    3  A    between atoms: C_7  and  C_8
REMARK    4  A    between atoms: C_8  and  C_9
REMARK    5  A    between atoms: C_19  and  N_20
REMARK    6  A    between atoms: N_20  and  C_21
REMARK                            x       y       z     vdW  Elec       q    Type
REMARK                         _______ _______ _______ _____ _____    ______ ____
ROOT
ATOM      1  C   UNL     1      -1.784  13.483  20.705  0.00  0.00    +0.000 A 
ATOM      2  C   UNL     1      -1.194  14.559  20.029  0.00  0.00    +0.000 A 
ATOM      3  C   UNL     1      -0.062  14.351  19.254  0.00  0.00    +0.000 A 
ATOM      4  N   UNL     1       0.522  13.146  19.079  0.00  0.00    +0.000 NA
ATOM      5  C   UNL     1       0.034  12.126  19.809  0.00  0.00    +0.000 A 
ATOM      6  N   UNL     1       0.632  10.871  19.673  0.00  0.00    +0.000 N 
ATOM      7  C   UNL     1       1.089  10.395  18.385  0.00  0.00    +0.000 C 
ATOM      8  C   UNL     1       1.552   9.007  18.708  0.00  0.00    +0.000 A 
ATOM      9  C   UNL     1       2.062   8.024  17.892  0.00  0.00    +0.000 A 
ATOM     10  C   UNL     1       2.462   6.818  18.487  0.00  0.00    +0.000 A 
ATOM     11  C   UNL     1       2.339   6.573  19.881  0.00  0.00    +0.000 A 
ATOM     12  C   UNL     1       1.839   7.602  20.684  0.00  0.00    +0.000 A 
ATOM     13  C   UNL     1       1.426   8.772  20.074  0.00  0.00    +0.000 A 
ATOM     14  C   UNL     1       0.800   9.949  20.688  0.00  0.00    +0.000 C 
ATOM     15  O   UNL     1       0.524  10.027  21.872  0.00  0.00    +0.000 OA
ATOM     16  C   UNL     1      -1.082  12.266  20.630  0.00  0.00    +0.000 A 
ENDROOT
BRANCH   1  17
ATOM     17  C   UNL     1      -3.202  13.585  21.458  0.00  0.00    +0.000 C 
ATOM     18  C   UNL     1      -3.547  12.483  22.504  0.00  0.00    +0.000 C 
ATOM     19  O   UNL     1      -3.581  13.431  23.589  0.00  0.00    +0.000 OA
ATOM     20  C   UNL     1      -3.217  14.512  22.714  0.00  0.00    +0.000 C 
BRANCH  17  21
ATOM     21  C   UNL     1      -4.331  13.954  20.479  0.00  0.00    +0.000 C 
BRANCH  21  27
ATOM     22  C   UNL     1      -7.094  12.603  21.225  0.00  0.00    +0.000 C 
ATOM     23  N   UNL     1      -6.169  12.193  20.202  0.00  0.00    +0.000 N 
ATOM     24  C   UNL     1      -6.316  11.095  19.407  0.00  0.00    +0.000 A 
ATOM     25  N   UNL     1      -5.304  11.015  18.581  0.00  0.00    +0.000 NA
ATOM     26  N   UNL     1      -4.467  12.069  18.845  0.00  0.00    +0.000 NA
ATOM     27  C   UNL     1      -4.982  12.776  19.832  0.00  0.00    +0.000 A 
ENDBRANCH  21  27
ENDBRANCH  17  21
ENDBRANCH   1  17
BRANCH  11  28
ATOM     28  N   UNL     1       2.845   5.385  20.389  0.00  0.00    +0.000 N 
ATOM     29  H   UNL     1       3.642   5.023  19.876  0.00  0.00    +0.000 HD
BRANCH  28  30
ATOM     30  C   UNL     1       2.008   4.258  20.701  0.00  0.00    +0.000 C 
ATOM     31  F   UNL     1       2.111   3.815  21.969  0.00  0.00    +0.000 F 
ATOM     32  F   UNL     1       0.724   4.633  20.507  0.00  0.00    +0.000 F 
ATOM     33  F   UNL     1       2.266   3.233  19.865  0.00  0.00    +0.000 F 
ENDBRANCH  28  30
ENDBRANCH  11  28
TORSDOF 5
ENDMDL
MODEL 5
REMARK VINA RESULT:      -8.0      1.301      1.587
REMARK  Name = 
REMARK  6 active torsions:
REMARK  status: ('A' for Active; 'I' for Inactive)
REMARK    1  A    between atoms: C_1  and  N_2
REMARK    2  A    between atoms: C_6  and  C_7
REMARK    3  A    between atoms: C_7  and  C_8
REMARK    4  A    between atoms: C_8  and  C_9
REMARK    5  A    between atoms: C_19  and  N_20
REMARK    6  A    between atoms: N_20  and  C_21
REMARK                            x       y       z     vdW  Elec       q    Type
REMARK                         _______ _______ _______ _____ _____    ______ ____
ROOT
ATOM      1  C   UNL     1      -1.911  14.120  20.688  0.00  0.00    +0.000 A 
ATOM      2  C   UNL     1      -1.249  15.153  20.011  0.00  0.00    +0.000 A 
ATOM      3  C   UNL     1      -0.085  14.881  19.305  0.00  0.00    +0.000 A 
ATOM      4  N   UNL     1       0.464  13.652  19.200  0.00  0.00    +0.000 NA
ATOM      5  C   UNL     1      -0.097  12.674  19.935  0.00  0.00    +0.000 A 
ATOM      6  N   UNL     1       0.463  11.396  19.871  0.00  0.00    +0.000 N 
ATOM      7  C   UNL     1       0.970  10.862  18.626  0.00  0.00    +0.000 C 
ATOM      8  C   UNL     1       1.366   9.471  19.017  0.00  0.00    +0.000 A 
ATOM      9  C   UNL     1       1.884   8.445  18.262  0.00  0.00    +0.000 A 
ATOM     10  C   UNL     1       2.209   7.247  18.915  0.00  0.00    +0.000 A 
ATOM     11  C   UNL     1       2.004   7.053  20.308  0.00  0.00    +0.000 A 
ATOM     12  C   UNL     1       1.500   8.124  21.049  0.00  0.00    +0.000 A 
ATOM     13  C   UNL     1       1.160   9.287  20.381  0.00  0.00    +0.000 A 
ATOM     14  C   UNL     1       0.545  10.503  20.923  0.00  0.00    +0.000 C 
ATOM     15  O   UNL     1       0.209  10.630  22.087  0.00  0.00    +0.000 OA
ATOM     16  C   UNL     1      -1.249  12.878  20.690  0.00  0.00    +0.000 A 
ENDROOT
BRANCH   1  17
ATOM     17  C   UNL     1      -3.363  14.294  21.360  0.00  0.00    +0.000 C 
ATOM     18  C   UNL     1      -3.454  15.108  22.685  0.00  0.00    +0.000 C 
ATOM     19  O   UNL     1      -4.274  16.127  22.082  0.00  0.00    +0.000 OA
ATOM     20  C   UNL     1      -4.211  15.479  20.800  0.00  0.00    +0.000 C 
BRANCH  17  21
ATOM     21  C   UNL     1      -4.156  12.976  21.329  0.00  0.00    +0.000 C 
BRANCH  21  27
ATOM     22  C   UNL     1      -7.197  13.647  21.896  0.00  0.00    +0.000 C 
ATOM     23  N   UNL     1      -6.252  13.044  22.798  0.00  0.00    +0.000 N 
ATOM     24  C   UNL     1      -6.511  12.708  24.093  0.00  0.00    +0.000 A 
ATOM     25  N   UNL     1      -5.442  12.175  24.629  0.00  0.00    +0.000 NA
ATOM     26  N   UNL     1      -4.455  12.175  23.676  0.00  0.00    +0.000 NA
ATOM     27  C   UNL     1      -4.939  12.710  22.572  0.00  0.00    +0.000 A 
ENDBRANCH  21  27
ENDBRANCH  17  21
ENDBRANCH   1  17
BRANCH  11  28
ATOM     28  N   UNL     1       2.441   5.866  20.879  0.00  0.00    +0.000 N 
ATOM     29  H   UNL     1       3.430   5.685  20.750  0.00  0.00    +0.000 HD
BRANCH  28  30
ATOM     30  C   UNL     1       1.761   4.615  20.679  0.00  0.00    +0.000 C 
ATOM     31  F   UNL     1       0.463   4.728  20.338  0.00  0.00    +0.000 F 
ATOM     32  F   UNL     1       2.387   3.962  19.674  0.00  0.00    +0.000 F 
ATOM     33  F   UNL     1       1.851   3.848  21.784  0.00  0.00    +0.000 F 
ENDBRANCH  28  30
ENDBRANCH  11  28
TORSDOF 5
ENDMDL
MODEL 6
REMARK VINA RESULT:      -7.9      4.488      6.383
REMARK  Name = 
REMARK  6 active torsions:
REMARK  status: ('A' for Active; 'I' for Inactive)
REMARK    1  A    between atoms: C_1  and  N_2
REMARK    2  A    between atoms: C_6  and  C_7
REMARK    3  A    between atoms: C_7  and  C_8
REMARK    4  A    between atoms: C_8  and  C_9
REMARK    5  A    between atoms: C_19  and  N_20
REMARK    6  A    between atoms: N_20  and  C_21
REMARK                            x       y       z     vdW  Elec       q    Type
REMARK                         _______ _______ _______ _____ _____    ______ ____
ROOT
ATOM      1  C   UNL     1       0.491  11.912  20.504  0.00  0.00    +0.000 A 
ATOM      2  C   UNL     1      -0.656  11.508  21.202  0.00  0.00    +0.000 A 
ATOM      3  C   UNL     1      -0.948  10.156  21.327  0.00  0.00    +0.000 A 
ATOM      4  N   UNL     1      -0.175   9.169  20.829  0.00  0.00    +0.000 NA
ATOM      5  C   UNL     1       0.867   9.543  20.063  0.00  0.00    +0.000 A 
ATOM      6  N   UNL     1       1.671   8.545  19.510  0.00  0.00    +0.000 N 
ATOM      7  C   UNL     1       1.999   7.348  20.254  0.00  0.00    +0.000 C 
ATOM      8  C   UNL     1       2.935   6.642  19.321  0.00  0.00    +0.000 A 
ATOM      9  C   UNL     1       3.623   5.460  19.472  0.00  0.00    +0.000 A 
ATOM     10  C   UNL     1       4.403   5.012  18.396  0.00  0.00    +0.000 A 
ATOM     11  C   UNL     1       4.524   5.738  17.181  0.00  0.00    +0.000 A 
ATOM     12  C   UNL     1       3.793   6.922  17.053  0.00  0.00    +0.000 A 
ATOM     13  C   UNL     1       3.051   7.360  18.135  0.00  0.00    +0.000 A 
ATOM     14  C   UNL     1       2.276   8.598  18.268  0.00  0.00    +0.000 C 
ATOM     15  O   UNL     1       2.215   9.454  17.403  0.00  0.00    +0.000 OA
ATOM     16  C   UNL     1       1.205  10.879  19.869  0.00  0.00    +0.000 A 
ENDROOT
BRANCH   1  17
ATOM     17  C   UNL     1       1.017  13.432  20.478  0.00  0.00    +0.000 C 
ATOM     18  C   UNL     1       0.713  14.325  21.717  0.00  0.00    +0.000 C 
ATOM     19  O   UNL     1       2.110  14.480  22.033  0.00  0.00    +0.000 OA
ATOM     20  C   UNL     1       2.495  13.626  20.941  0.00  0.00    +0.000 C 
BRANCH  17  21
ATOM     21  C   UNL     1       0.772  14.086  19.106  0.00  0.00    +0.000 C 
BRANCH  21  27
ATOM     22  C   UNL     1       1.217  17.196  19.479  0.00  0.00    +0.000 C 
ATOM     23  N   UNL     1       2.061  16.272  18.770  0.00  0.00    +0.000 N 
ATOM     24  C   UNL     1       3.188  16.610  18.082  0.00  0.00    +0.000 A 
ATOM     25  N   UNL     1       3.722  15.535  17.560  0.00  0.00    +0.000 NA
ATOM     26  N   UNL     1       2.925  14.470  17.897  0.00  0.00    +0.000 NA
ATOM     27  C   UNL     1       1.914  14.915  18.618  0.00  0.00    +0.000 A 
ENDBRANCH  21  27
ENDBRANCH  17  21
ENDBRANCH   1  17
BRANCH  11  28
ATOM     28  N   UNL     1       5.247   5.169  16.142  0.00  0.00    +0.000 N 
ATOM     29  H   UNL     1       4.960   4.225  15.908  0.00  0.00    +0.000 HD
BRANCH  28  30
ATOM     30  C   UNL     1       6.683   5.189  16.097  0.00  0.00    +0.000 C 
ATOM     31  F   UNL     1       7.280   4.166  16.739  0.00  0.00    +0.000 F 
ATOM     32  F   UNL     1       7.057   5.125  14.800  0.00  0.00    +0.000 F 
ATOM     33  F   UNL     1       7.154   6.347  16.602  0.00  0.00    +0.000 F 
ENDBRANCH  28  30
ENDBRANCH  11  28
TORSDOF 5
ENDMDL
MODEL 7
REMARK VINA RESULT:      -7.9      0.848      1.161
REMARK  Name = 
REMARK  6 active torsions:
REMARK  status: ('A' for Active; 'I' for Inactive)
REMARK    1  A    between atoms: C_1  and  N_2
REMARK    2  A    between atoms: C_6  and  C_7
REMARK    3  A    between atoms: C_7  and  C_8
REMARK    4  A    between atoms: C_8  and  C_9
REMARK    5  A    between atoms: C_19  and  N_20
REMARK    6  A    between atoms: N_20  and  C_21
REMARK                            x       y       z     vdW  Elec       q    Type
REMARK                         _______ _______ _______ _____ _____    ______ ____
ROOT
ATOM      1  C   UNL     1      -2.011  13.690  21.441  0.00  0.00    +0.000 A 
ATOM      2  C   UNL     1      -1.496  14.842  20.832  0.00  0.00    +0.000 A 
ATOM      3  C   UNL     1      -0.410  14.741  19.972  0.00  0.00    +0.000 A 
ATOM      4  N   UNL     1       0.193  13.577  19.652  0.00  0.00    +0.000 NA
ATOM      5  C   UNL     1      -0.218  12.480  20.314  0.00  0.00    +0.000 A 
ATOM      6  N   UNL     1       0.403  11.263  20.026  0.00  0.00    +0.000 N 
ATOM      7  C   UNL     1       0.788  10.920  18.674  0.00  0.00    +0.000 C 
ATOM      8  C   UNL     1       1.309   9.524  18.839  0.00  0.00    +0.000 A 
ATOM      9  C   UNL     1       1.791   8.636  17.906  0.00  0.00    +0.000 A 
ATOM     10  C   UNL     1       2.261   7.396  18.361  0.00  0.00    +0.000 A 
ATOM     11  C   UNL     1       2.235   7.022  19.731  0.00  0.00    +0.000 A 
ATOM     12  C   UNL     1       1.761   7.957  20.655  0.00  0.00    +0.000 A 
ATOM     13  C   UNL     1       1.278   9.163  20.182  0.00  0.00    +0.000 A 
ATOM     14  C   UNL     1       0.661  10.258  20.939  0.00  0.00    +0.000 C 
ATOM     15  O   UNL     1       0.460  10.220  22.140  0.00  0.00    +0.000 OA
ATOM     16  C   UNL     1      -1.282  12.508  21.212  0.00  0.00    +0.000 A 
ENDROOT
BRANCH   1  17
ATOM     17  C   UNL     1      -3.380  13.677  22.287  0.00  0.00    +0.000 C 
ATOM     18  C   UNL     1      -3.663  12.437  23.187  0.00  0.00    +0.000 C 
ATOM     19  O   UNL     1      -3.628  13.222  24.394  0.00  0.00    +0.000 OA
ATOM     20  C   UNL     1      -3.315  14.418  23.659  0.00  0.00    +0.000 C 
BRANCH  17  21
ATOM     21  C   UNL     1      -4.566  14.174  21.441  0.00  0.00    +0.000 C 
BRANCH  21  27
ATOM     22  C   UNL     1      -7.266  12.700  22.182  0.00  0.00    +0.000 C 
ATOM     23  N   UNL     1      -6.419  12.451  21.047  0.00  0.00    +0.000 N 
ATOM     24  C   UNL     1      -6.623  11.478  20.115  0.00  0.00    +0.000 A 
ATOM     25  N   UNL     1      -5.675  11.528  19.214  0.00  0.00    +0.000 NA
ATOM     26  N   UNL     1      -4.820  12.542  19.566  0.00  0.00    +0.000 NA
ATOM     27  C   UNL     1      -5.262  13.094  20.680  0.00  0.00    +0.000 A 
ENDBRANCH  21  27
ENDBRANCH  17  21
ENDBRANCH   1  17
BRANCH  11  28
ATOM     28  N   UNL     1       2.805   5.809  20.095  0.00  0.00    +0.000 N 
ATOM     29  H   UNL     1       3.710   5.635  19.672  0.00  0.00    +0.000 HD
BRANCH  28  30
ATOM     30  C   UNL     1       2.080   4.569  20.048  0.00  0.00    +0.000 C 
ATOM     31  F   UNL     1       1.496   4.303  18.863  0.00  0.00    +0.000 F 
ATOM     32  F   UNL     1       2.956   3.570  20.299  0.00  0.00    +0.000 F 
ATOM     33  F   UNL     1       1.136   4.538  21.009  0.00  0.00    +0.000 F 
ENDBRANCH  28  30
ENDBRANCH  11  28
TORSDOF 5
ENDMDL
MODEL 8
REMARK VINA RESULT:      -7.9      1.896      2.627
REMARK  Name = 
REMARK  6 active torsions:
REMARK  status: ('A' for Active; 'I' for Inactive)
REMARK    1  A    between atoms: C_1  and  N_2
REMARK    2  A    between atoms: C_6  and  C_7
REMARK    3  A    between atoms: C_7  and  C_8
REMARK    4  A    between atoms: C_8  and  C_9
REMARK    5  A    between atoms: C_19  and  N_20
REMARK    6  A    between atoms: N_20  and  C_21
REMARK                            x       y       z     vdW  Elec       q    Type
REMARK                         _______ _______ _______ _____ _____    ______ ____
ROOT
ATOM      1  C   UNL     1      -1.944  13.141  20.403  0.00  0.00    +0.000 A 
ATOM      2  C   UNL     1      -1.292  14.254  19.854  0.00  0.00    +0.000 A 
ATOM      3  C   UNL     1      -0.063  14.096  19.229  0.00  0.00    +0.000 A 
ATOM      4  N   UNL     1       0.564  12.908  19.088  0.00  0.00    +0.000 NA
ATOM      5  C   UNL     1       0.006  11.851  19.706  0.00  0.00    +0.000 A 
ATOM      6  N   UNL     1       0.643  10.613  19.603  0.00  0.00    +0.000 N 
ATOM      7  C   UNL     1       1.276  10.198  18.370  0.00  0.00    +0.000 C 
ATOM      8  C   UNL     1       1.722   8.805  18.698  0.00  0.00    +0.000 A 
ATOM      9  C   UNL     1       2.356   7.865  17.920  0.00  0.00    +0.000 A 
ATOM     10  C   UNL     1       2.699   6.642  18.516  0.00  0.00    +0.000 A 
ATOM     11  C   UNL     1       2.398   6.338  19.871  0.00  0.00    +0.000 A 
ATOM     12  C   UNL     1       1.774   7.325  20.639  0.00  0.00    +0.000 A 
ATOM     13  C   UNL     1       1.421   8.512  20.025  0.00  0.00    +0.000 A 
ATOM     14  C   UNL     1       0.694   9.652  20.595  0.00  0.00    +0.000 C 
ATOM     15  O   UNL     1       0.262   9.677  21.733  0.00  0.00    +0.000 OA
ATOM     16  C   UNL     1      -1.212  11.940  20.376  0.00  0.00    +0.000 A 
ENDROOT
BRANCH   1  17
ATOM     17  C   UNL     1      -3.451  13.190  20.964  0.00  0.00    +0.000 C 
ATOM     18  C   UNL     1      -4.291  14.469  20.673  0.00  0.00    +0.000 C 
ATOM     19  O   UNL     1      -5.248  13.741  19.879  0.00  0.00    +0.000 OA
ATOM     20  C   UNL     1      -4.518  12.514  20.047  0.00  0.00    +0.000 C 
BRANCH  17  21
ATOM     21  C   UNL     1      -3.530  12.651  22.404  0.00  0.00    +0.000 C 
BRANCH  21  27
ATOM     22  C   UNL     1      -5.507  14.543  23.993  0.00  0.00    +0.000 C 
ATOM     23  N   UNL     1      -4.073  14.492  24.098  0.00  0.00    +0.000 N 
ATOM     24  C   UNL     1      -3.315  15.311  24.880  0.00  0.00    +0.000 A 
ATOM     25  N   UNL     1      -2.051  14.995  24.749  0.00  0.00    +0.000 NA
ATOM     26  N   UNL     1      -1.972  13.960  23.853  0.00  0.00    +0.000 NA
ATOM     27  C   UNL     1      -3.192  13.662  23.448  0.00  0.00    +0.000 A 
ENDBRANCH  21  27
ENDBRANCH  17  21
ENDBRANCH   1  17
BRANCH  11  28
ATOM     28  N   UNL     1       2.857   5.137  20.395  0.00  0.00    +0.000 N 
ATOM     29  H   UNL     1       3.604   4.711  19.858  0.00  0.00    +0.000 HD
BRANCH  28  30
ATOM     30  C   UNL     1       1.971   4.076  20.788  0.00  0.00    +0.000 C 
ATOM     31  F   UNL     1       0.665   4.323  20.571  0.00  0.00    +0.000 F 
ATOM     32  F   UNL     1       2.299   2.978  20.069  0.00  0.00    +0.000 F 
ATOM     33  F   UNL     1       2.142   3.777  22.091  0.00  0.00    +0.000 F 
ENDBRANCH  28  30
ENDBRANCH  11  28
TORSDOF 5
ENDMDL
MODEL 9
REMARK VINA RESULT:      -7.9      4.155      7.462
REMARK  Name = 
REMARK  6 active torsions:
REMARK  status: ('A' for Active; 'I' for Inactive)
REMARK    1  A    between atoms: C_1  and  N_2
REMARK    2  A    between atoms: C_6  and  C_7
REMARK    3  A    between atoms: C_7  and  C_8
REMARK    4  A    between atoms: C_8  and  C_9
REMARK    5  A    between atoms: C_19  and  N_20
REMARK    6  A    between atoms: N_20  and  C_21
REMARK                            x       y       z     vdW  Elec       q    Type
REMARK                         _______ _______ _______ _____ _____    ______ ____
ROOT
ATOM      1  C   UNL     1       1.788  14.326  19.018  0.00  0.00    +0.000 A 
ATOM      2  C   UNL     1       0.514  14.763  19.404  0.00  0.00    +0.000 A 
ATOM      3  C   UNL     1      -0.443  13.838  19.798  0.00  0.00    +0.000 A 
ATOM      4  N   UNL     1      -0.226  12.507  19.859  0.00  0.00    +0.000 NA
ATOM      5  C   UNL     1       0.953  12.064  19.385  0.00  0.00    +0.000 A 
ATOM      6  N   UNL     1       1.200  10.690  19.408  0.00  0.00    +0.000 N 
ATOM      7  C   UNL     1       0.762   9.869  20.516  0.00  0.00    +0.000 C 
ATOM      8  C   UNL     1       1.322   8.526  20.155  0.00  0.00    +0.000 A 
ATOM      9  C   UNL     1       1.278   7.330  20.832  0.00  0.00    +0.000 A 
ATOM     10  C   UNL     1       1.858   6.208  20.221  0.00  0.00    +0.000 A 
ATOM     11  C   UNL     1       2.498   6.269  18.954  0.00  0.00    +0.000 A 
ATOM     12  C   UNL     1       2.503   7.495  18.283  0.00  0.00    +0.000 A 
ATOM     13  C   UNL     1       1.951   8.595  18.915  0.00  0.00    +0.000 A 
ATOM     14  C   UNL     1       1.909   9.986  18.453  0.00  0.00    +0.000 C 
ATOM     15  O   UNL     1       2.415  10.368  17.413  0.00  0.00    +0.000 OA
ATOM     16  C   UNL     1       1.952  12.930  18.947  0.00  0.00    +0.000 A 
ENDROOT
BRANCH   1  17
ATOM     17  C   UNL     1       3.018  15.327  18.741  0.00  0.00    +0.000 C 
ATOM     18  C   UNL     1       3.320  15.710  17.262  0.00  0.00    +0.000 C 
ATOM     19  O   UNL     1       3.023  17.101  17.492  0.00  0.00    +0.000 OA
ATOM     20  C   UNL     1       2.673  16.844  18.863  0.00  0.00    +0.000 C 
BRANCH  17  21
ATOM     21  C   UNL     1       4.241  14.962  19.601  0.00  0.00    +0.000 C 
BRANCH  21  27
ATOM     22  C   UNL     1       6.106  17.503  19.889  0.00  0.00    +0.000 C 
ATOM     23  N   UNL     1       6.321  16.351  19.054  0.00  0.00    +0.000 N 
ATOM     24  C   UNL     1       7.365  16.193  18.192  0.00  0.00    +0.000 A 
ATOM     25  N   UNL     1       7.267  15.033  17.594  0.00  0.00    +0.000 NA
ATOM     26  N   UNL     1       6.130  14.420  18.058  0.00  0.00    +0.000 NA
ATOM     27  C   UNL     1       5.551  15.221  18.932  0.00  0.00    +0.000 A 
ENDBRANCH  21  27
ENDBRANCH  17  21
ENDBRANCH   1  17
BRANCH  11  28
ATOM     28  N   UNL     1       2.961   5.088  18.391  0.00  0.00    +0.000 N 
ATOM     29  H   UNL     1       3.750   5.211  17.766  0.00  0.00    +0.000 HD
BRANCH  28  30
ATOM     30  C   UNL     1       2.086   4.131  17.771  0.00  0.00    +0.000 C 
ATOM     31  F   UNL     1       2.658   3.392  16.801  0.00  0.00    +0.000 F 
ATOM     32  F   UNL     1       1.660   3.279  18.731  0.00  0.00    +0.000 F 
ATOM     33  F   UNL     1       1.001   4.747  17.260  0.00  0.00    +0.000 F 
ENDBRANCH  28  30
ENDBRANCH  11  28
TORSDOF 5
ENDMDL
