MODEL 1
REMARK VINA RESULT:      -8.7      0.000      0.000
REMARK  Name = 
REMARK  3 active torsions:
REMARK  status: ('A' for Active; 'I' for Inactive)
REMARK    1  A    between atoms: C_2  and  C_3
REMARK    2  A    between atoms: C_3  and  C_4
REMARK    3  A    between atoms: N_14  and  C_15
REMARK                            x       y       z     vdW  Elec       q    Type
REMARK                         _______ _______ _______ _____ _____    ______ ____
ROOT
ATOM      1  O   UNL     1       7.435   8.206  17.183  0.00  0.00    +0.000 OA
ATOM      2  C   UNL     1       7.996   7.751  18.177  0.00  0.00    +0.000 C 
ATOM      3  N   UNL     1       8.811   8.471  19.039  0.00  0.00    +0.000 N 
ATOM      4  H   UNL     1       9.394   7.935  19.670  0.00  0.00    +0.000 HD
ENDROOT
BRANCH   3   5
ATOM      5  C   UNL     1       9.024   9.870  19.000  0.00  0.00    +0.000 A 
ATOM      6  C   UNL     1       8.924  10.637  17.843  0.00  0.00    +0.000 A 
ATOM      7  C   UNL     1       9.165  12.013  17.887  0.00  0.00    +0.000 A 
ATOM      8  C   UNL     1       9.507  12.597  19.103  0.00  0.00    +0.000 A 
ATOM      9  N   UNL     1       9.748  13.996  19.150  0.00  0.00    +0.000 N 
ATOM     10  C   UNL     1      10.145  14.730  20.239  0.00  0.00    +0.000 A 
ATOM     11  N   UNL     1      10.198  16.008  19.936  0.00  0.00    +0.000 NA
ATOM     12  C   UNL     1       9.833  16.019  18.622  0.00  0.00    +0.000 A 
ATOM     13  N   UNL     1       9.578  14.824  18.084  0.00  0.00    +0.000 NA
ATOM     14  N   UNL     1       9.595  11.882  20.258  0.00  0.00    +0.000 NA
ATOM     15  C   UNL     1       9.337  10.550  20.176  0.00  0.00    +0.000 A 
ENDBRANCH   3   5
BRANCH   2  16
ATOM     16  C   UNL     1       7.832   6.288  18.558  0.00  0.00    +0.000 C 
BRANCH  16  17
ATOM     17  C   UNL     1       6.522   5.636  18.169  0.00  0.00    +0.000 A 
ATOM     18  C   UNL     1       6.488   4.821  17.028  0.00  0.00    +0.000 A 
ATOM     19  C   UNL     1       5.326   4.132  16.671  0.00  0.00    +0.000 A 
ATOM     20  C   UNL     1       4.166   4.229  17.449  0.00  0.00    +0.000 A 
ATOM     21  C   UNL     1       2.991   3.540  17.104  0.00  0.00    +0.000 A 
ATOM     22  C   UNL     1       1.847   3.642  17.893  0.00  0.00    +0.000 A 
ATOM     23  C   UNL     1       1.862   4.430  19.039  0.00  0.00    +0.000 A 
ATOM     24  C   UNL     1       3.023   5.117  19.397  0.00  0.00    +0.000 A 
ATOM     25  C   UNL     1       4.187   5.031  18.612  0.00  0.00    +0.000 A 
ATOM     26  C   UNL     1       5.368   5.715  18.962  0.00  0.00    +0.000 A 
ENDBRANCH  16  17
ENDBRANCH   2  16
TORSDOF 3
ENDMDL
MODEL 2
REMARK VINA RESULT:      -8.5      6.283      7.633
REMARK  Name = 
REMARK  3 active torsions:
REMARK  status: ('A' for Active; 'I' for Inactive)
REMARK    1  A    between atoms: C_2  and  C_3
REMARK    2  A    between atoms: C_3  and  C_4
REMARK    3  A    between atoms: N_14  and  C_15
REMARK                            x       y       z     vdW  Elec       q    Type
REMARK                         _______ _______ _______ _____ _____    ______ ____
ROOT
ATOM      1  O   UNL     1       2.093   4.605  18.175  0.00  0.00    +0.000 OA
ATOM      2  C   UNL     1       3.228   5.076  18.129  0.00  0.00    +0.000 C 
ATOM      3  N   UNL     1       3.545   6.420  18.261  0.00  0.00    +0.000 N 
ATOM      4  H   UNL     1       4.474   6.701  17.969  0.00  0.00    +0.000 HD
ENDROOT
BRANCH   3   5
ATOM      5  C   UNL     1       2.641   7.453  18.605  0.00  0.00    +0.000 A 
ATOM      6  C   UNL     1       2.161   8.396  17.700  0.00  0.00    +0.000 A 
ATOM      7  C   UNL     1       1.280   9.395  18.124  0.00  0.00    +0.000 A 
ATOM      8  C   UNL     1       0.895   9.428  19.461  0.00  0.00    +0.000 A 
ATOM      9  N   UNL     1      -0.004  10.440  19.891  0.00  0.00    +0.000 N 
ATOM     10  C   UNL     1      -0.448  10.661  21.171  0.00  0.00    +0.000 A 
ATOM     11  N   UNL     1      -1.330  11.635  21.189  0.00  0.00    +0.000 NA
ATOM     12  C   UNL     1      -1.392  12.006  19.878  0.00  0.00    +0.000 A 
ATOM     13  N   UNL     1      -0.588  11.336  19.050  0.00  0.00    +0.000 NA
ATOM     14  N   UNL     1       1.328   8.512  20.369  0.00  0.00    +0.000 NA
ATOM     15  C   UNL     1       2.171   7.548  19.914  0.00  0.00    +0.000 A 
ENDBRANCH   3   5
BRANCH   2  16
ATOM     16  C   UNL     1       4.433   4.174  17.911  0.00  0.00    +0.000 C 
BRANCH  16  17
ATOM     17  C   UNL     1       5.251   4.437  16.666  0.00  0.00    +0.000 A 
ATOM     18  C   UNL     1       6.424   5.199  16.779  0.00  0.00    +0.000 A 
ATOM     19  C   UNL     1       7.258   5.404  15.675  0.00  0.00    +0.000 A 
ATOM     20  C   UNL     1       6.949   4.845  14.429  0.00  0.00    +0.000 A 
ATOM     21  C   UNL     1       7.780   5.040  13.312  0.00  0.00    +0.000 A 
ATOM     22  C   UNL     1       7.462   4.471  12.080  0.00  0.00    +0.000 A 
ATOM     23  C   UNL     1       6.314   3.697  11.948  0.00  0.00    +0.000 A 
ATOM     24  C   UNL     1       5.482   3.491  13.050  0.00  0.00    +0.000 A 
ATOM     25  C   UNL     1       5.782   4.060  14.301  0.00  0.00    +0.000 A 
ATOM     26  C   UNL     1       4.954   3.858  15.423  0.00  0.00    +0.000 A 
ENDBRANCH  16  17
ENDBRANCH   2  16
TORSDOF 3
ENDMDL
MODEL 3
REMARK VINA RESULT:      -8.5      7.661      9.273
REMARK  Name = 
REMARK  3 active torsions:
REMARK  status: ('A' for Active; 'I' for Inactive)
REMARK    1  A    between atoms: C_2  and  C_3
REMARK    2  A    between atoms: C_3  and  C_4
REMARK    3  A    between atoms: N_14  and  C_15
REMARK                            x       y       z     vdW  Elec       q    Type
REMARK                         _______ _______ _______ _____ _____    ______ ____
ROOT
ATOM      1  O   UNL     1       1.198   8.809  19.790  0.00  0.00    +0.000 OA
ATOM      2  C   UNL     1       1.436   9.126  18.627  0.00  0.00    +0.000 C 
ATOM      3  N   UNL     1       0.583   9.839  17.798  0.00  0.00    +0.000 N 
ATOM      4  H   UNL     1       0.793   9.825  16.807  0.00  0.00    +0.000 HD
ENDROOT
BRANCH   3   5
ATOM      5  C   UNL     1      -0.640  10.436  18.187  0.00  0.00    +0.000 A 
ATOM      6  C   UNL     1      -1.868  10.144  17.599  0.00  0.00    +0.000 A 
ATOM      7  C   UNL     1      -3.029  10.789  18.033  0.00  0.00    +0.000 A 
ATOM      8  C   UNL     1      -2.933  11.726  19.057  0.00  0.00    +0.000 A 
ATOM      9  N   UNL     1      -4.113  12.380  19.503  0.00  0.00    +0.000 N 
ATOM     10  C   UNL     1      -4.204  13.363  20.455  0.00  0.00    +0.000 A 
ATOM     11  N   UNL     1      -5.461  13.683  20.667  0.00  0.00    +0.000 NA
ATOM     12  C   UNL     1      -6.126  12.870  19.797  0.00  0.00    +0.000 A 
ATOM     13  N   UNL     1      -5.358  12.079  19.043  0.00  0.00    +0.000 NA
ATOM     14  N   UNL     1      -1.754  12.023  19.669  0.00  0.00    +0.000 NA
ATOM     15  C   UNL     1      -0.651  11.362  19.229  0.00  0.00    +0.000 A 
ENDBRANCH   3   5
BRANCH   2  16
ATOM     16  C   UNL     1       2.754   8.739  17.973  0.00  0.00    +0.000 C 
BRANCH  16  17
ATOM     17  C   UNL     1       3.002   7.258  17.788  0.00  0.00    +0.000 A 
ATOM     18  C   UNL     1       4.260   6.837  17.331  0.00  0.00    +0.000 A 
ATOM     19  C   UNL     1       4.567   5.478  17.219  0.00  0.00    +0.000 A 
ATOM     20  C   UNL     1       3.629   4.499  17.569  0.00  0.00    +0.000 A 
ATOM     21  C   UNL     1       3.925   3.129  17.465  0.00  0.00    +0.000 A 
ATOM     22  C   UNL     1       2.982   2.167  17.825  0.00  0.00    +0.000 A 
ATOM     23  C   UNL     1       1.735   2.560  18.297  0.00  0.00    +0.000 A 
ATOM     24  C   UNL     1       1.428   3.917  18.411  0.00  0.00    +0.000 A 
ATOM     25  C   UNL     1       2.363   4.904  18.049  0.00  0.00    +0.000 A 
ATOM     26  C   UNL     1       2.070   6.278  18.161  0.00  0.00    +0.000 A 
ENDBRANCH  16  17
ENDBRANCH   2  16
TORSDOF 3
ENDMDL
MODEL 4
REMARK VINA RESULT:      -8.4      8.362      9.823
REMARK  Name = 
REMARK  3 active torsions:
REMARK  status: ('A' for Active; 'I' for Inactive)
REMARK    1  A    between atoms: C_2  and  C_3
REMARK    2  A    between atoms: C_3  and  C_4
REMARK    3  A    between atoms: N_14  and  C_15
REMARK                            x       y       z     vdW  Elec       q    Type
REMARK                         _______ _______ _______ _____ _____    ______ ____
ROOT
ATOM      1  O   UNL     1      -0.702   8.092  21.710  0.00  0.00    +0.000 OA
ATOM      2  C   UNL     1       0.301   8.791  21.580  0.00  0.00    +0.000 C 
ATOM      3  N   UNL     1       0.317  10.178  21.560  0.00  0.00    +0.000 N 
ATOM      4  H   UNL     1       1.159  10.619  21.210  0.00  0.00    +0.000 HD
ENDROOT
BRANCH   3   5
ATOM      5  C   UNL     1      -0.790  11.021  21.820  0.00  0.00    +0.000 A 
ATOM      6  C   UNL     1      -1.378  11.164  23.073  0.00  0.00    +0.000 A 
ATOM      7  C   UNL     1      -2.479  12.008  23.243  0.00  0.00    +0.000 A 
ATOM      8  C   UNL     1      -2.973  12.698  22.141  0.00  0.00    +0.000 A 
ATOM      9  N   UNL     1      -4.089  13.560  22.313  0.00  0.00    +0.000 N 
ATOM     10  C   UNL     1      -4.741  14.273  21.339  0.00  0.00    +0.000 A 
ATOM     11  N   UNL     1      -5.681  15.022  21.869  0.00  0.00    +0.000 NA
ATOM     12  C   UNL     1      -5.585  14.725  23.197  0.00  0.00    +0.000 A 
ATOM     13  N   UNL     1      -4.657  13.822  23.521  0.00  0.00    +0.000 NA
ATOM     14  N   UNL     1      -2.412  12.599  20.904  0.00  0.00    +0.000 NA
ATOM     15  C   UNL     1      -1.333  11.780  20.784  0.00  0.00    +0.000 A 
ENDBRANCH   3   5
BRANCH   2  16
ATOM     16  C   UNL     1       1.673   8.154  21.421  0.00  0.00    +0.000 C 
BRANCH  16  17
ATOM     17  C   UNL     1       1.773   7.015  20.428  0.00  0.00    +0.000 A 
ATOM     18  C   UNL     1       2.310   7.274  19.158  0.00  0.00    +0.000 A 
ATOM     19  C   UNL     1       2.500   6.243  18.234  0.00  0.00    +0.000 A 
ATOM     20  C   UNL     1       2.166   4.921  18.554  0.00  0.00    +0.000 A 
ATOM     21  C   UNL     1       2.353   3.875  17.635  0.00  0.00    +0.000 A 
ATOM     22  C   UNL     1       2.023   2.563  17.973  0.00  0.00    +0.000 A 
ATOM     23  C   UNL     1       1.504   2.280  19.231  0.00  0.00    +0.000 A 
ATOM     24  C   UNL     1       1.317   3.309  20.156  0.00  0.00    +0.000 A 
ATOM     25  C   UNL     1       1.640   4.639  19.835  0.00  0.00    +0.000 A 
ATOM     26  C   UNL     1       1.460   5.688  20.758  0.00  0.00    +0.000 A 
ENDBRANCH  16  17
ENDBRANCH   2  16
TORSDOF 3
ENDMDL
MODEL 5
REMARK VINA RESULT:      -8.4      7.539      9.137
REMARK  Name = 
REMARK  3 active torsions:
REMARK  status: ('A' for Active; 'I' for Inactive)
REMARK    1  A    between atoms: C_2  and  C_3
REMARK    2  A    between atoms: C_3  and  C_4
REMARK    3  A    between atoms: N_14  and  C_15
REMARK                            x       y       z     vdW  Elec       q    Type
REMARK                         _______ _______ _______ _____ _____    ______ ____
ROOT
ATOM      1  O   UNL     1       1.467   8.607  19.713  0.00  0.00    +0.000 OA
ATOM      2  C   UNL     1       1.665   8.942  18.547  0.00  0.00    +0.000 C 
ATOM      3  N   UNL     1       0.828   9.748  17.789  0.00  0.00    +0.000 N 
ATOM      4  H   UNL     1       0.980   9.749  16.788  0.00  0.00    +0.000 HD
ENDROOT
BRANCH   3   5
ATOM      5  C   UNL     1      -0.317  10.429  18.266  0.00  0.00    +0.000 A 
ATOM      6  C   UNL     1      -0.296  11.343  19.315  0.00  0.00    +0.000 A 
ATOM      7  C   UNL     1      -1.476  11.963  19.735  0.00  0.00    +0.000 A 
ATOM      8  C   UNL     1      -2.667  11.649  19.087  0.00  0.00    +0.000 A 
ATOM      9  N   UNL     1      -3.866  12.282  19.509  0.00  0.00    +0.000 N 
ATOM     10  C   UNL     1      -5.132  12.059  19.029  0.00  0.00    +0.000 A 
ATOM     11  N   UNL     1      -5.990  12.875  19.599  0.00  0.00    +0.000 NA
ATOM     12  C   UNL     1      -5.200  13.589  20.452  0.00  0.00    +0.000 A 
ATOM     13  N   UNL     1      -3.909  13.252  20.462  0.00  0.00    +0.000 NA
ATOM     14  N   UNL     1      -2.724  10.776  18.044  0.00  0.00    +0.000 NA
ATOM     15  C   UNL     1      -1.552  10.207  17.656  0.00  0.00    +0.000 A 
ENDBRANCH   3   5
BRANCH   2  16
ATOM     16  C   UNL     1       2.908   8.471  17.807  0.00  0.00    +0.000 C 
BRANCH  16  17
ATOM     17  C   UNL     1       3.110   6.973  17.720  0.00  0.00    +0.000 A 
ATOM     18  C   UNL     1       4.381   6.484  17.383  0.00  0.00    +0.000 A 
ATOM     19  C   UNL     1       4.641   5.110  17.368  0.00  0.00    +0.000 A 
ATOM     20  C   UNL     1       3.643   4.186  17.698  0.00  0.00    +0.000 A 
ATOM     21  C   UNL     1       3.891   2.803  17.690  0.00  0.00    +0.000 A 
ATOM     22  C   UNL     1       2.888   1.897  18.029  0.00  0.00    +0.000 A 
ATOM     23  C   UNL     1       1.625   2.360  18.382  0.00  0.00    +0.000 A 
ATOM     24  C   UNL     1       1.364   3.731  18.400  0.00  0.00    +0.000 A 
ATOM     25  C   UNL     1       2.361   4.662  18.058  0.00  0.00    +0.000 A 
ATOM     26  C   UNL     1       2.115   6.049  18.074  0.00  0.00    +0.000 A 
ENDBRANCH  16  17
ENDBRANCH   2  16
TORSDOF 3
ENDMDL
MODEL 6
REMARK VINA RESULT:      -8.4      0.775      1.219
REMARK  Name = 
REMARK  3 active torsions:
REMARK  status: ('A' for Active; 'I' for Inactive)
REMARK    1  A    between atoms: C_2  and  C_3
REMARK    2  A    between atoms: C_3  and  C_4
REMARK    3  A    between atoms: N_14  and  C_15
REMARK                            x       y       z     vdW  Elec       q    Type
REMARK                         _______ _______ _______ _____ _____    ______ ____
ROOT
ATOM      1  O   UNL     1       7.240   8.442  17.368  0.00  0.00    +0.000 OA
ATOM      2  C   UNL     1       7.937   7.882  18.212  0.00  0.00    +0.000 C 
ATOM      3  N   UNL     1       8.880   8.505  19.016  0.00  0.00    +0.000 N 
ATOM      4  H   UNL     1       9.545   7.904  19.489  0.00  0.00    +0.000 HD
ENDROOT
BRANCH   3   5
ATOM      5  C   UNL     1       9.104   9.900  19.099  0.00  0.00    +0.000 A 
ATOM      6  C   UNL     1       9.194  10.600  20.299  0.00  0.00    +0.000 A 
ATOM      7  C   UNL     1       9.403  11.982  20.294  0.00  0.00    +0.000 A 
ATOM      8  C   UNL     1       9.515  12.641  19.073  0.00  0.00    +0.000 A 
ATOM      9  N   UNL     1       9.731  14.044  19.067  0.00  0.00    +0.000 N 
ATOM     10  C   UNL     1       9.812  14.863  17.969  0.00  0.00    +0.000 A 
ATOM     11  N   UNL     1      10.094  16.094  18.334  0.00  0.00    +0.000 NA
ATOM     12  C   UNL     1      10.165  15.993  19.692  0.00  0.00    +0.000 A 
ATOM     13  N   UNL     1       9.924  14.781  20.195  0.00  0.00    +0.000 NA
ATOM     14  N   UNL     1       9.452  11.986  17.881  0.00  0.00    +0.000 NA
ATOM     15  C   UNL     1       9.264  10.641  17.929  0.00  0.00    +0.000 A 
ENDBRANCH   3   5
BRANCH   2  16
ATOM     16  C   UNL     1       7.813   6.384  18.449  0.00  0.00    +0.000 C 
BRANCH  16  17
ATOM     17  C   UNL     1       6.473   5.762  18.121  0.00  0.00    +0.000 A 
ATOM     18  C   UNL     1       6.330   5.073  16.907  0.00  0.00    +0.000 A 
ATOM     19  C   UNL     1       5.139   4.411  16.592  0.00  0.00    +0.000 A 
ATOM     20  C   UNL     1       4.060   4.411  17.484  0.00  0.00    +0.000 A 
ATOM     21  C   UNL     1       2.858   3.748  17.182  0.00  0.00    +0.000 A 
ATOM     22  C   UNL     1       1.797   3.751  18.085  0.00  0.00    +0.000 A 
ATOM     23  C   UNL     1       1.922   4.413  19.301  0.00  0.00    +0.000 A 
ATOM     24  C   UNL     1       3.111   5.072  19.618  0.00  0.00    +0.000 A 
ATOM     25  C   UNL     1       4.193   5.085  18.719  0.00  0.00    +0.000 A 
ATOM     26  C   UNL     1       5.401   5.742  19.025  0.00  0.00    +0.000 A 
ENDBRANCH  16  17
ENDBRANCH   2  16
TORSDOF 3
ENDMDL
MODEL 7
REMARK VINA RESULT:      -8.3      6.181      7.705
REMARK  Name = 
REMARK  3 active torsions:
REMARK  status: ('A' for Active; 'I' for Inactive)
REMARK    1  A    between atoms: C_2  and  C_3
REMARK    2  A    between atoms: C_3  and  C_4
REMARK    3  A    between atoms: N_14  and  C_15
REMARK                            x       y       z     vdW  Elec       q    Type
REMARK                         _______ _______ _______ _____ _____    ______ ____
ROOT
ATOM      1  O   UNL     1       1.867   4.797  18.182  0.00  0.00    +0.000 OA
ATOM      2  C   UNL     1       3.014   5.236  18.237  0.00  0.00    +0.000 C 
ATOM      3  N   UNL     1       3.358   6.562  18.461  0.00  0.00    +0.000 N 
ATOM      4  H   UNL     1       4.311   6.829  18.245  0.00  0.00    +0.000 HD
ENDROOT
BRANCH   3   5
ATOM      5  C   UNL     1       2.459   7.603  18.797  0.00  0.00    +0.000 A 
ATOM      6  C   UNL     1       1.927   7.787  20.070  0.00  0.00    +0.000 A 
ATOM      7  C   UNL     1       1.034   8.833  20.315  0.00  0.00    +0.000 A 
ATOM      8  C   UNL     1       0.688   9.681  19.268  0.00  0.00    +0.000 A 
ATOM      9  N   UNL     1      -0.216  10.748  19.517  0.00  0.00    +0.000 N 
ATOM     10  C   UNL     1      -0.710  11.644  18.603  0.00  0.00    +0.000 A 
ATOM     11  N   UNL     1      -1.463  12.541  19.200  0.00  0.00    +0.000 NA
ATOM     12  C   UNL     1      -1.420  12.146  20.504  0.00  0.00    +0.000 A 
ATOM     13  N   UNL     1      -0.703  11.048  20.752  0.00  0.00    +0.000 NA
ATOM     14  N   UNL     1       1.204   9.545  18.015  0.00  0.00    +0.000 NA
ATOM     15  C   UNL     1       2.081   8.525  17.822  0.00  0.00    +0.000 A 
ENDBRANCH   3   5
BRANCH   2  16
ATOM     16  C   UNL     1       4.207   4.311  18.053  0.00  0.00    +0.000 C 
BRANCH  16  17
ATOM     17  C   UNL     1       5.069   4.562  16.834  0.00  0.00    +0.000 A 
ATOM     18  C   UNL     1       6.216   5.358  16.973  0.00  0.00    +0.000 A 
ATOM     19  C   UNL     1       7.089   5.555  15.899  0.00  0.00    +0.000 A 
ATOM     20  C   UNL     1       6.847   4.955  14.657  0.00  0.00    +0.000 A 
ATOM     21  C   UNL     1       7.717   5.141  13.570  0.00  0.00    +0.000 A 
ATOM     22  C   UNL     1       7.465   4.530  12.343  0.00  0.00    +0.000 A 
ATOM     23  C   UNL     1       6.344   3.723  12.187  0.00  0.00    +0.000 A 
ATOM     24  C   UNL     1       5.473   3.524  13.259  0.00  0.00    +0.000 A 
ATOM     25  C   UNL     1       5.706   4.134  14.504  0.00  0.00    +0.000 A 
ATOM     26  C   UNL     1       4.838   3.941  15.598  0.00  0.00    +0.000 A 
ENDBRANCH  16  17
ENDBRANCH   2  16
TORSDOF 3
ENDMDL
MODEL 8
REMARK VINA RESULT:      -8.3      8.179     10.096
REMARK  Name = 
REMARK  3 active torsions:
REMARK  status: ('A' for Active; 'I' for Inactive)
REMARK    1  A    between atoms: C_2  and  C_3
REMARK    2  A    between atoms: C_3  and  C_4
REMARK    3  A    between atoms: N_14  and  C_15
REMARK                            x       y       z     vdW  Elec       q    Type
REMARK                         _______ _______ _______ _____ _____    ______ ____
ROOT
ATOM      1  O   UNL     1       0.922  10.009  19.780  0.00  0.00    +0.000 OA
ATOM      2  C   UNL     1       0.995   9.734  18.584  0.00  0.00    +0.000 C 
ATOM      3  N   UNL     1      -0.045   9.835  17.671  0.00  0.00    +0.000 N 
ATOM      4  H   UNL     1       0.076   9.358  16.786  0.00  0.00    +0.000 HD
ENDROOT
BRANCH   3   5
ATOM      5  C   UNL     1      -1.318  10.398  17.928  0.00  0.00    +0.000 A 
ATOM      6  C   UNL     1      -1.527  11.506  18.744  0.00  0.00    +0.000 A 
ATOM      7  C   UNL     1      -2.820  11.991  18.958  0.00  0.00    +0.000 A 
ATOM      8  C   UNL     1      -3.889  11.346  18.344  0.00  0.00    +0.000 A 
ATOM      9  N   UNL     1      -5.204  11.841  18.557  0.00  0.00    +0.000 N 
ATOM     10  C   UNL     1      -6.375  11.306  18.082  0.00  0.00    +0.000 A 
ATOM     11  N   UNL     1      -7.394  12.067  18.412  0.00  0.00    +0.000 NA
ATOM     12  C   UNL     1      -6.799  13.072  19.117  0.00  0.00    +0.000 A 
ATOM     13  N   UNL     1      -5.476  12.972  19.262  0.00  0.00    +0.000 NA
ATOM     14  N   UNL     1      -3.723  10.272  17.524  0.00  0.00    +0.000 NA
ATOM     15  C   UNL     1      -2.448   9.841  17.329  0.00  0.00    +0.000 A 
ENDBRANCH   3   5
BRANCH   2  16
ATOM     16  C   UNL     1       2.299   9.233  17.983  0.00  0.00    +0.000 C 
BRANCH  16  17
ATOM     17  C   UNL     1       2.648   7.784  18.248  0.00  0.00    +0.000 A 
ATOM     18  C   UNL     1       3.632   7.173  17.457  0.00  0.00    +0.000 A 
ATOM     19  C   UNL     1       4.048   5.862  17.712  0.00  0.00    +0.000 A 
ATOM     20  C   UNL     1       3.499   5.128  18.771  0.00  0.00    +0.000 A 
ATOM     21  C   UNL     1       3.910   3.812  19.041  0.00  0.00    +0.000 A 
ATOM     22  C   UNL     1       3.359   3.098  20.103  0.00  0.00    +0.000 A 
ATOM     23  C   UNL     1       2.394   3.689  20.911  0.00  0.00    +0.000 A 
ATOM     24  C   UNL     1       1.979   4.998  20.658  0.00  0.00    +0.000 A 
ATOM     25  C   UNL     1       2.519   5.735  19.589  0.00  0.00    +0.000 A 
ATOM     26  C   UNL     1       2.114   7.058  19.323  0.00  0.00    +0.000 A 
ENDBRANCH  16  17
ENDBRANCH   2  16
TORSDOF 3
ENDMDL
MODEL 9
REMARK VINA RESULT:      -8.3      6.263      7.777
REMARK  Name = 
REMARK  3 active torsions:
REMARK  status: ('A' for Active; 'I' for Inactive)
REMARK    1  A    between atoms: C_2  and  C_3
REMARK    2  A    between atoms: C_3  and  C_4
REMARK    3  A    between atoms: N_14  and  C_15
REMARK                            x       y       z     vdW  Elec       q    Type
REMARK                         _______ _______ _______ _____ _____    ______ ____
ROOT
ATOM      1  O   UNL     1       1.076   5.037  20.296  0.00  0.00    +0.000 OA
ATOM      2  C   UNL     1       2.230   5.439  20.166  0.00  0.00    +0.000 C 
ATOM      3  N   UNL     1       2.610   6.770  20.060  0.00  0.00    +0.000 N 
ATOM      4  H   UNL     1       3.547   6.951  19.721  0.00  0.00    +0.000 HD
ENDROOT
BRANCH   3   5
ATOM      5  C   UNL     1       1.757   7.888  20.219  0.00  0.00    +0.000 A 
ATOM      6  C   UNL     1       1.138   8.227  21.419  0.00  0.00    +0.000 A 
ATOM      7  C   UNL     1       0.298   9.342  21.488  0.00  0.00    +0.000 A 
ATOM      8  C   UNL     1       0.091  10.100  20.339  0.00  0.00    +0.000 A 
ATOM      9  N   UNL     1      -0.759  11.235  20.409  0.00  0.00    +0.000 N 
ATOM     10  C   UNL     1      -1.120  12.063  19.375  0.00  0.00    +0.000 A 
ATOM     11  N   UNL     1      -1.859  13.056  19.818  0.00  0.00    +0.000 NA
ATOM     12  C   UNL     1      -1.944  12.790  21.153  0.00  0.00    +0.000 A 
ATOM     13  N   UNL     1      -1.322  11.683  21.564  0.00  0.00    +0.000 NA
ATOM     14  N   UNL     1       0.695   9.811  19.154  0.00  0.00    +0.000 NA
ATOM     15  C   UNL     1       1.517   8.728  19.132  0.00  0.00    +0.000 A 
ENDBRANCH   3   5
BRANCH   2  16
ATOM     16  C   UNL     1       3.391   4.458  20.108  0.00  0.00    +0.000 C 
BRANCH  16  17
ATOM     17  C   UNL     1       4.391   4.668  18.991  0.00  0.00    +0.000 A 
ATOM     18  C   UNL     1       5.688   5.087  19.320  0.00  0.00    +0.000 A 
ATOM     19  C   UNL     1       6.673   5.218  18.335  0.00  0.00    +0.000 A 
ATOM     20  C   UNL     1       6.391   4.925  16.995  0.00  0.00    +0.000 A 
ATOM     21  C   UNL     1       7.371   5.049  15.996  0.00  0.00    +0.000 A 
ATOM     22  C   UNL     1       7.077   4.746  14.668  0.00  0.00    +0.000 A 
ATOM     23  C   UNL     1       5.802   4.312  14.321  0.00  0.00    +0.000 A 
ATOM     24  C   UNL     1       4.819   4.179  15.303  0.00  0.00    +0.000 A 
ATOM     25  C   UNL     1       5.094   4.484  16.648  0.00  0.00    +0.000 A 
ATOM     26  C   UNL     1       4.115   4.351  17.653  0.00  0.00    +0.000 A 
ENDBRANCH  16  17
ENDBRANCH   2  16
TORSDOF 3
ENDMDL
