MODEL 1
REMARK VINA RESULT:      -9.4      0.000      0.000
REMARK  Name = 
REMARK  7 active torsions:
REMARK  status: ('A' for Active; 'I' for Inactive)
REMARK    1  A    between atoms: C_1  and  N_2
REMARK    2  A    between atoms: C_6  and  C_7
REMARK    3  A    between atoms: C_7  and  C_8
REMARK    4  A    between atoms: C_8  and  C_9
REMARK    5  A    between atoms: C_13  and  N_14
REMARK    6  A    between atoms: C_19  and  C_20
REMARK    7  A    between atoms: C_20  and  C_21
REMARK                            x       y       z     vdW  Elec       q    Type
REMARK                         _______ _______ _______ _____ _____    ______ ____
ROOT
ATOM      1  C   UNL     1       4.516   4.810  17.216  0.00  0.00    +0.000 A 
ATOM      2  C   UNL     1       3.710   3.688  17.017  0.00  0.00    +0.000 A 
ATOM      3  C   UNL     1       2.411   3.689  17.503  0.00  0.00    +0.000 A 
ATOM      4  C   UNL     1       1.957   4.796  18.203  0.00  0.00    +0.000 A 
ATOM      5  C   UNL     1       2.788   5.899  18.333  0.00  0.00    +0.000 A 
ATOM      6  N   UNL     1       4.038   5.931  17.826  0.00  0.00    +0.000 NA
ENDROOT
BRANCH   5   7
ATOM      7  N   UNL     1       2.336   6.998  19.066  0.00  0.00    +0.000 N 
ATOM      8  C   UNL     1       1.838   6.909  20.425  0.00  0.00    +0.000 C 
ATOM      9  C   UNL     1       1.341   8.303  20.669  0.00  0.00    +0.000 A 
ATOM     10  C   UNL     1       0.858   8.907  21.814  0.00  0.00    +0.000 A 
ATOM     11  C   UNL     1       0.428  10.243  21.729  0.00  0.00    +0.000 A 
ATOM     12  C   UNL     1       0.454  10.962  20.509  0.00  0.00    +0.000 A 
ATOM     13  C   UNL     1       0.974  10.343  19.368  0.00  0.00    +0.000 A 
ATOM     14  C   UNL     1       1.424   9.041  19.491  0.00  0.00    +0.000 A 
ATOM     15  C   UNL     1       2.063   8.215  18.473  0.00  0.00    +0.000 C 
ATOM     16  O   UNL     1       2.257   8.589  17.325  0.00  0.00    +0.000 OA
BRANCH  12  17
ATOM     17  C   UNL     1      -0.015  12.395  20.433  0.00  0.00    +0.000 C 
BRANCH  17  18
ATOM     18  C   UNL     1      -1.500  12.558  20.144  0.00  0.00    +0.000 C 
ATOM     19  F   UNL     1      -2.010  11.419  19.609  0.00  0.00    +0.000 F 
ATOM     20  F   UNL     1      -2.159  12.750  21.317  0.00  0.00    +0.000 F 
ENDBRANCH  17  18
ENDBRANCH  12  17
ENDBRANCH   5   7
BRANCH   1  21
ATOM     21  C   UNL     1       6.036   4.900  16.812  0.00  0.00    +0.000 C 
ATOM     22  C   UNL     1       6.678   6.310  16.768  0.00  0.00    +0.000 C 
ATOM     23  O   UNL     1       7.580   6.005  17.851  0.00  0.00    +0.000 OA
ATOM     24  C   UNL     1       7.041   4.674  17.976  0.00  0.00    +0.000 C 
BRANCH  21  25
ATOM     25  C   UNL     1       6.345   3.973  15.617  0.00  0.00    +0.000 C 
BRANCH  25  31
ATOM     26  C   UNL     1       5.799   3.345  12.500  0.00  0.00    +0.000 C 
ATOM     27  N   UNL     1       6.721   4.287  13.078  0.00  0.00    +0.000 N 
ATOM     28  C   UNL     1       7.608   5.026  12.351  0.00  0.00    +0.000 A 
ATOM     29  N   UNL     1       8.316   5.780  13.157  0.00  0.00    +0.000 NA
ATOM     30  N   UNL     1       7.891   5.529  14.437  0.00  0.00    +0.000 NA
ATOM     31  C   UNL     1       6.939   4.614  14.398  0.00  0.00    +0.000 A 
ENDBRANCH  25  31
ENDBRANCH  21  25
ENDBRANCH   1  21
TORSDOF 6
ENDMDL
MODEL 2
REMARK VINA RESULT:      -9.2      1.009      1.212
REMARK  Name = 
REMARK  7 active torsions:
REMARK  status: ('A' for Active; 'I' for Inactive)
REMARK    1  A    between atoms: C_1  and  N_2
REMARK    2  A    between atoms: C_6  and  C_7
REMARK    3  A    between atoms: C_7  and  C_8
REMARK    4  A    between atoms: C_8  and  C_9
REMARK    5  A    between atoms: C_13  and  N_14
REMARK    6  A    between atoms: C_19  and  C_20
REMARK    7  A    between atoms: C_20  and  C_21
REMARK                            x       y       z     vdW  Elec       q    Type
REMARK                         _______ _______ _______ _____ _____    ______ ____
ROOT
ATOM      1  C   UNL     1       4.514   4.672  17.239  0.00  0.00    +0.000 A 
ATOM      2  C   UNL     1       3.742   3.513  17.151  0.00  0.00    +0.000 A 
ATOM      3  C   UNL     1       2.469   3.499  17.702  0.00  0.00    +0.000 A 
ATOM      4  C   UNL     1       2.008   4.631  18.355  0.00  0.00    +0.000 A 
ATOM      5  C   UNL     1       2.802   5.769  18.375  0.00  0.00    +0.000 A 
ATOM      6  N   UNL     1       4.024   5.812  17.804  0.00  0.00    +0.000 NA
ENDROOT
BRANCH   5   7
ATOM      7  N   UNL     1       2.345   6.895  19.061  0.00  0.00    +0.000 N 
ATOM      8  C   UNL     1       1.808   6.854  20.407  0.00  0.00    +0.000 C 
ATOM      9  C   UNL     1       1.323   8.261  20.595  0.00  0.00    +0.000 A 
ATOM     10  C   UNL     1       0.817   8.906  21.707  0.00  0.00    +0.000 A 
ATOM     11  C   UNL     1       0.409  10.244  21.570  0.00  0.00    +0.000 A 
ATOM     12  C   UNL     1       0.479  10.925  20.330  0.00  0.00    +0.000 A 
ATOM     13  C   UNL     1       1.022  10.265  19.224  0.00  0.00    +0.000 A 
ATOM     14  C   UNL     1       1.450   8.962  19.398  0.00  0.00    +0.000 A 
ATOM     15  C   UNL     1       2.106   8.097  18.424  0.00  0.00    +0.000 C 
ATOM     16  O   UNL     1       2.338   8.433  17.272  0.00  0.00    +0.000 OA
BRANCH  12  17
ATOM     17  C   UNL     1       0.032  12.362  20.198  0.00  0.00    +0.000 C 
BRANCH  17  18
ATOM     18  C   UNL     1       0.966  13.375  20.843  0.00  0.00    +0.000 C 
ATOM     19  F   UNL     1       0.657  13.541  22.155  0.00  0.00    +0.000 F 
ATOM     20  F   UNL     1       2.234  12.886  20.815  0.00  0.00    +0.000 F 
ENDBRANCH  17  18
ENDBRANCH  12  17
ENDBRANCH   5   7
BRANCH   1  21
ATOM     21  C   UNL     1       6.007   4.789  16.754  0.00  0.00    +0.000 C 
ATOM     22  C   UNL     1       6.631   6.207  16.707  0.00  0.00    +0.000 C 
ATOM     23  O   UNL     1       7.596   5.888  17.731  0.00  0.00    +0.000 OA
ATOM     24  C   UNL     1       7.079   4.548  17.854  0.00  0.00    +0.000 C 
BRANCH  21  25
ATOM     25  C   UNL     1       6.259   3.894  15.522  0.00  0.00    +0.000 C 
BRANCH  25  31
ATOM     26  C   UNL     1       5.746   3.324  12.388  0.00  0.00    +0.000 C 
ATOM     27  N   UNL     1       6.669   4.247  12.993  0.00  0.00    +0.000 N 
ATOM     28  C   UNL     1       7.571   4.990  12.291  0.00  0.00    +0.000 A 
ATOM     29  N   UNL     1       8.276   5.723  13.117  0.00  0.00    +0.000 NA
ATOM     30  N   UNL     1       7.833   5.454  14.388  0.00  0.00    +0.000 NA
ATOM     31  C   UNL     1       6.874   4.550  14.321  0.00  0.00    +0.000 A 
ENDBRANCH  25  31
ENDBRANCH  21  25
ENDBRANCH   1  21
TORSDOF 6
ENDMDL
MODEL 3
REMARK VINA RESULT:      -8.9      1.280      1.748
REMARK  Name = 
REMARK  7 active torsions:
REMARK  status: ('A' for Active; 'I' for Inactive)
REMARK    1  A    between atoms: C_1  and  N_2
REMARK    2  A    between atoms: C_6  and  C_7
REMARK    3  A    between atoms: C_7  and  C_8
REMARK    4  A    between atoms: C_8  and  C_9
REMARK    5  A    between atoms: C_13  and  N_14
REMARK    6  A    between atoms: C_19  and  C_20
REMARK    7  A    between atoms: C_20  and  C_21
REMARK                            x       y       z     vdW  Elec       q    Type
REMARK                         _______ _______ _______ _____ _____    ______ ____
ROOT
ATOM      1  C   UNL     1       4.655   4.964  17.336  0.00  0.00    +0.000 A 
ATOM      2  C   UNL     1       3.980   3.743  17.337  0.00  0.00    +0.000 A 
ATOM      3  C   UNL     1       2.649   3.702  17.728  0.00  0.00    +0.000 A 
ATOM      4  C   UNL     1       2.032   4.874  18.137  0.00  0.00    +0.000 A 
ATOM      5  C   UNL     1       2.741   6.066  18.074  0.00  0.00    +0.000 A 
ATOM      6  N   UNL     1       4.021   6.129  17.653  0.00  0.00    +0.000 NA
ENDROOT
BRANCH   5   7
ATOM      7  N   UNL     1       2.124   7.237  18.517  0.00  0.00    +0.000 N 
ATOM      8  C   UNL     1       2.026   8.445  17.720  0.00  0.00    +0.000 C 
ATOM      9  C   UNL     1       1.443   9.420  18.699  0.00  0.00    +0.000 A 
ATOM     10  C   UNL     1       0.993  10.716  18.531  0.00  0.00    +0.000 A 
ATOM     11  C   UNL     1       0.519  11.406  19.661  0.00  0.00    +0.000 A 
ATOM     12  C   UNL     1       0.518  10.819  20.950  0.00  0.00    +0.000 A 
ATOM     13  C   UNL     1       0.948   9.497  21.094  0.00  0.00    +0.000 A 
ATOM     14  C   UNL     1       1.373   8.832  19.959  0.00  0.00    +0.000 A 
ATOM     15  C   UNL     1       1.799   7.442  19.843  0.00  0.00    +0.000 C 
ATOM     16  O   UNL     1       1.861   6.673  20.793  0.00  0.00    +0.000 OA
BRANCH  12  17
ATOM     17  C   UNL     1       0.009  11.575  22.155  0.00  0.00    +0.000 C 
BRANCH  17  18
ATOM     18  C   UNL     1      -1.331  11.089  22.685  0.00  0.00    +0.000 C 
ATOM     19  F   UNL     1      -1.158  10.042  23.532  0.00  0.00    +0.000 F 
ATOM     20  F   UNL     1      -1.898  12.080  23.423  0.00  0.00    +0.000 F 
ENDBRANCH  17  18
ENDBRANCH  12  17
ENDBRANCH   5   7
BRANCH   1  21
ATOM     21  C   UNL     1       6.188   5.136  17.020  0.00  0.00    +0.000 C 
ATOM     22  C   UNL     1       6.730   6.582  16.891  0.00  0.00    +0.000 C 
ATOM     23  O   UNL     1       7.577   6.438  18.051  0.00  0.00    +0.000 OA
ATOM     24  C   UNL     1       7.126   5.085  18.258  0.00  0.00    +0.000 C 
BRANCH  21  25
ATOM     25  C   UNL     1       6.642   4.140  15.931  0.00  0.00    +0.000 C 
BRANCH  25  31
ATOM     26  C   UNL     1       5.728   3.429  12.921  0.00  0.00    +0.000 C 
ATOM     27  N   UNL     1       6.735   4.360  13.357  0.00  0.00    +0.000 N 
ATOM     28  C   UNL     1       7.552   5.048  12.509  0.00  0.00    +0.000 A 
ATOM     29  N   UNL     1       8.368   5.804  13.202  0.00  0.00    +0.000 NA
ATOM     30  N   UNL     1       8.085   5.607  14.530  0.00  0.00    +0.000 NA
ATOM     31  C   UNL     1       7.110   4.722  14.631  0.00  0.00    +0.000 A 
ENDBRANCH  25  31
ENDBRANCH  21  25
ENDBRANCH   1  21
TORSDOF 6
ENDMDL
MODEL 4
REMARK VINA RESULT:      -8.7      1.659      2.206
REMARK  Name = 
REMARK  7 active torsions:
REMARK  status: ('A' for Active; 'I' for Inactive)
REMARK    1  A    between atoms: C_1  and  N_2
REMARK    2  A    between atoms: C_6  and  C_7
REMARK    3  A    between atoms: C_7  and  C_8
REMARK    4  A    between atoms: C_8  and  C_9
REMARK    5  A    between atoms: C_13  and  N_14
REMARK    6  A    between atoms: C_19  and  C_20
REMARK    7  A    between atoms: C_20  and  C_21
REMARK                            x       y       z     vdW  Elec       q    Type
REMARK                         _______ _______ _______ _____ _____    ______ ____
ROOT
ATOM      1  C   UNL     1       5.519   5.305  18.412  0.00  0.00    +0.000 A 
ATOM      2  C   UNL     1       5.134   4.042  18.861  0.00  0.00    +0.000 A 
ATOM      3  C   UNL     1       3.843   3.852  19.333  0.00  0.00    +0.000 A 
ATOM      4  C   UNL     1       2.977   4.934  19.375  0.00  0.00    +0.000 A 
ATOM      5  C   UNL     1       3.402   6.157  18.875  0.00  0.00    +0.000 A 
ATOM      6  N   UNL     1       4.639   6.346  18.371  0.00  0.00    +0.000 NA
ENDROOT
BRANCH   5   7
ATOM      7  N   UNL     1       2.536   7.249  18.949  0.00  0.00    +0.000 N 
ATOM      8  C   UNL     1       2.521   8.330  17.982  0.00  0.00    +0.000 C 
ATOM      9  C   UNL     1       1.555   9.294  18.604  0.00  0.00    +0.000 A 
ATOM     10  C   UNL     1       1.011  10.471  18.125  0.00  0.00    +0.000 A 
ATOM     11  C   UNL     1       0.140  11.189  18.963  0.00  0.00    +0.000 A 
ATOM     12  C   UNL     1      -0.165  10.753  20.276  0.00  0.00    +0.000 A 
ATOM     13  C   UNL     1       0.371   9.545  20.731  0.00  0.00    +0.000 A 
ATOM     14  C   UNL     1       1.194   8.841  19.870  0.00  0.00    +0.000 A 
ATOM     15  C   UNL     1       1.812   7.538  20.088  0.00  0.00    +0.000 C 
ATOM     16  O   UNL     1       1.690   6.898  21.123  0.00  0.00    +0.000 OA
BRANCH  12  17
ATOM     17  C   UNL     1      -1.099  11.538  21.165  0.00  0.00    +0.000 C 
BRANCH  17  18
ATOM     18  C   UNL     1      -0.774  11.457  22.649  0.00  0.00    +0.000 C 
ATOM     19  F   UNL     1      -1.035  12.641  23.260  0.00  0.00    +0.000 F 
ATOM     20  F   UNL     1      -1.596  10.545  23.231  0.00  0.00    +0.000 F 
ENDBRANCH  17  18
ENDBRANCH  12  17
ENDBRANCH   5   7
BRANCH   1  21
ATOM     21  C   UNL     1       6.978   5.683  17.954  0.00  0.00    +0.000 C 
ATOM     22  C   UNL     1       7.240   7.158  17.559  0.00  0.00    +0.000 C 
ATOM     23  O   UNL     1       8.155   7.358  18.657  0.00  0.00    +0.000 OA
ATOM     24  C   UNL     1       7.970   6.002  19.108  0.00  0.00    +0.000 C 
BRANCH  21  25
ATOM     25  C   UNL     1       7.552   4.612  17.002  0.00  0.00    +0.000 C 
BRANCH  25  31
ATOM     26  C   UNL     1       5.160   3.079  15.473  0.00  0.00    +0.000 C 
ATOM     27  N   UNL     1       6.140   3.982  14.929  0.00  0.00    +0.000 N 
ATOM     28  C   UNL     1       6.257   4.266  13.601  0.00  0.00    +0.000 A 
ATOM     29  N   UNL     1       7.243   5.109  13.416  0.00  0.00    +0.000 NA
ATOM     30  N   UNL     1       7.788   5.382  14.646  0.00  0.00    +0.000 NA
ATOM     31  C   UNL     1       7.137   4.691  15.563  0.00  0.00    +0.000 A 
ENDBRANCH  25  31
ENDBRANCH  21  25
ENDBRANCH   1  21
TORSDOF 6
ENDMDL
MODEL 5
REMARK VINA RESULT:      -8.7      2.559      3.848
REMARK  Name = 
REMARK  7 active torsions:
REMARK  status: ('A' for Active; 'I' for Inactive)
REMARK    1  A    between atoms: C_1  and  N_2
REMARK    2  A    between atoms: C_6  and  C_7
REMARK    3  A    between atoms: C_7  and  C_8
REMARK    4  A    between atoms: C_8  and  C_9
REMARK    5  A    between atoms: C_13  and  N_14
REMARK    6  A    between atoms: C_19  and  C_20
REMARK    7  A    between atoms: C_20  and  C_21
REMARK                            x       y       z     vdW  Elec       q    Type
REMARK                         _______ _______ _______ _____ _____    ______ ____
ROOT
ATOM      1  C   UNL     1       2.933   5.772  18.695  0.00  0.00    +0.000 A 
ATOM      2  C   UNL     1       3.440   6.257  17.490  0.00  0.00    +0.000 A 
ATOM      3  C   UNL     1       3.283   7.599  17.177  0.00  0.00    +0.000 A 
ATOM      4  C   UNL     1       2.596   8.419  18.060  0.00  0.00    +0.000 A 
ATOM      5  C   UNL     1       2.150   7.890  19.263  0.00  0.00    +0.000 A 
ATOM      6  N   UNL     1       2.336   6.597  19.602  0.00  0.00    +0.000 NA
ENDROOT
BRANCH   5   7
ATOM      7  N   UNL     1       1.433   8.713  20.133  0.00  0.00    +0.000 N 
ATOM      8  C   UNL     1       0.909   8.270  21.410  0.00  0.00    +0.000 C 
ATOM      9  C   UNL     1       0.103   9.456  21.848  0.00  0.00    +0.000 A 
ATOM     10  C   UNL     1      -0.551   9.722  23.036  0.00  0.00    +0.000 A 
ATOM     11  C   UNL     1      -1.264  10.928  23.146  0.00  0.00    +0.000 A 
ATOM     12  C   UNL     1      -1.346  11.850  22.073  0.00  0.00    +0.000 A 
ATOM     13  C   UNL     1      -0.653  11.577  20.891  0.00  0.00    +0.000 A 
ATOM     14  C   UNL     1       0.070  10.401  20.825  0.00  0.00    +0.000 A 
ATOM     15  C   UNL     1       0.921   9.933  19.737  0.00  0.00    +0.000 C 
ATOM     16  O   UNL     1       1.076  10.545  18.690  0.00  0.00    +0.000 OA
BRANCH  12  17
ATOM     17  C   UNL     1      -2.120  13.140  22.206  0.00  0.00    +0.000 C 
BRANCH  17  18
ATOM     18  C   UNL     1      -3.576  13.050  21.774  0.00  0.00    +0.000 C 
ATOM     19  F   UNL     1      -3.686  12.366  20.606  0.00  0.00    +0.000 F 
ATOM     20  F   UNL     1      -4.265  12.329  22.698  0.00  0.00    +0.000 F 
ENDBRANCH  17  18
ENDBRANCH  12  17
ENDBRANCH   5   7
BRANCH   1  21
ATOM     21  C   UNL     1       2.948   4.256  19.124  0.00  0.00    +0.000 C 
ATOM     22  C   UNL     1       2.450   3.916  20.551  0.00  0.00    +0.000 C 
ATOM     23  O   UNL     1       1.324   3.164  20.050  0.00  0.00    +0.000 OA
ATOM     24  C   UNL     1       1.702   3.435  18.687  0.00  0.00    +0.000 C 
BRANCH  21  25
ATOM     25  C   UNL     1       4.257   3.569  18.679  0.00  0.00    +0.000 C 
BRANCH  25  31
ATOM     26  C   UNL     1       6.397   4.333  16.389  0.00  0.00    +0.000 C 
ATOM     27  N   UNL     1       6.436   4.642  17.794  0.00  0.00    +0.000 N 
ATOM     28  C   UNL     1       7.486   5.261  18.406  0.00  0.00    +0.000 A 
ATOM     29  N   UNL     1       7.233   5.393  19.685  0.00  0.00    +0.000 NA
ATOM     30  N   UNL     1       5.996   4.848  19.920  0.00  0.00    +0.000 NA
ATOM     31  C   UNL     1       5.516   4.377  18.783  0.00  0.00    +0.000 A 
ENDBRANCH  25  31
ENDBRANCH  21  25
ENDBRANCH   1  21
TORSDOF 6
ENDMDL
MODEL 6
REMARK VINA RESULT:      -8.6      1.294      1.737
REMARK  Name = 
REMARK  7 active torsions:
REMARK  status: ('A' for Active; 'I' for Inactive)
REMARK    1  A    between atoms: C_1  and  N_2
REMARK    2  A    between atoms: C_6  and  C_7
REMARK    3  A    between atoms: C_7  and  C_8
REMARK    4  A    between atoms: C_8  and  C_9
REMARK    5  A    between atoms: C_13  and  N_14
REMARK    6  A    between atoms: C_19  and  C_20
REMARK    7  A    between atoms: C_20  and  C_21
REMARK                            x       y       z     vdW  Elec       q    Type
REMARK                         _______ _______ _______ _____ _____    ______ ____
ROOT
ATOM      1  C   UNL     1       4.476   5.097  17.016  0.00  0.00    +0.000 A 
ATOM      2  C   UNL     1       3.792   3.881  16.974  0.00  0.00    +0.000 A 
ATOM      3  C   UNL     1       2.583   3.758  17.641  0.00  0.00    +0.000 A 
ATOM      4  C   UNL     1       2.099   4.840  18.361  0.00  0.00    +0.000 A 
ATOM      5  C   UNL     1       2.801   6.036  18.332  0.00  0.00    +0.000 A 
ATOM      6  N   UNL     1       3.955   6.186  17.650  0.00  0.00    +0.000 NA
ENDROOT
BRANCH   5   7
ATOM      7  N   UNL     1       2.324   7.112  19.083  0.00  0.00    +0.000 N 
ATOM      8  C   UNL     1       1.849   6.992  20.448  0.00  0.00    +0.000 C 
ATOM      9  C   UNL     1       1.311   8.366  20.715  0.00  0.00    +0.000 A 
ATOM     10  C   UNL     1       0.826   8.942  21.874  0.00  0.00    +0.000 A 
ATOM     11  C   UNL     1       0.353  10.265  21.810  0.00  0.00    +0.000 A 
ATOM     12  C   UNL     1       0.339  10.997  20.598  0.00  0.00    +0.000 A 
ATOM     13  C   UNL     1       0.861  10.408  19.443  0.00  0.00    +0.000 A 
ATOM     14  C   UNL     1       1.354   9.120  19.545  0.00  0.00    +0.000 A 
ATOM     15  C   UNL     1       2.004   8.326  18.508  0.00  0.00    +0.000 C 
ATOM     16  O   UNL     1       2.170   8.719  17.362  0.00  0.00    +0.000 OA
BRANCH  12  17
ATOM     17  C   UNL     1      -0.177  12.416  20.545  0.00  0.00    +0.000 C 
BRANCH  17  18
ATOM     18  C   UNL     1       0.906  13.477  20.430  0.00  0.00    +0.000 C 
ATOM     19  F   UNL     1       2.067  13.036  20.979  0.00  0.00    +0.000 F 
ATOM     20  F   UNL     1       1.171  13.695  19.115  0.00  0.00    +0.000 F 
ENDBRANCH  17  18
ENDBRANCH  12  17
ENDBRANCH   5   7
BRANCH   1  21
ATOM     21  C   UNL     1       5.903   5.340  16.396  0.00  0.00    +0.000 C 
ATOM     22  C   UNL     1       6.940   6.089  17.270  0.00  0.00    +0.000 C 
ATOM     23  O   UNL     1       7.806   4.937  17.346  0.00  0.00    +0.000 OA
ATOM     24  C   UNL     1       6.898   4.155  16.546  0.00  0.00    +0.000 C 
BRANCH  21  25
ATOM     25  C   UNL     1       5.795   5.798  14.926  0.00  0.00    +0.000 C 
BRANCH  25  31
ATOM     26  C   UNL     1       8.349   5.602  12.964  0.00  0.00    +0.000 C 
ATOM     27  N   UNL     1       7.188   4.752  13.015  0.00  0.00    +0.000 N 
ATOM     28  C   UNL     1       6.949   3.739  12.134  0.00  0.00    +0.000 A 
ATOM     29  N   UNL     1       5.813   3.157  12.431  0.00  0.00    +0.000 NA
ATOM     30  N   UNL     1       5.292   3.802  13.525  0.00  0.00    +0.000 NA
ATOM     31  C   UNL     1       6.111   4.778  13.872  0.00  0.00    +0.000 A 
ENDBRANCH  25  31
ENDBRANCH  21  25
ENDBRANCH   1  21
TORSDOF 6
ENDMDL
MODEL 7
REMARK VINA RESULT:      -8.5      2.629      3.902
REMARK  Name = 
REMARK  7 active torsions:
REMARK  status: ('A' for Active; 'I' for Inactive)
REMARK    1  A    between atoms: C_1  and  N_2
REMARK    2  A    between atoms: C_6  and  C_7
REMARK    3  A    between atoms: C_7  and  C_8
REMARK    4  A    between atoms: C_8  and  C_9
REMARK    5  A    between atoms: C_13  and  N_14
REMARK    6  A    between atoms: C_19  and  C_20
REMARK    7  A    between atoms: C_20  and  C_21
REMARK                            x       y       z     vdW  Elec       q    Type
REMARK                         _______ _______ _______ _____ _____    ______ ____
ROOT
ATOM      1  C   UNL     1       2.970   5.858  18.687  0.00  0.00    +0.000 A 
ATOM      2  C   UNL     1       3.470   6.362  17.486  0.00  0.00    +0.000 A 
ATOM      3  C   UNL     1       3.288   7.703  17.182  0.00  0.00    +0.000 A 
ATOM      4  C   UNL     1       2.582   8.503  18.068  0.00  0.00    +0.000 A 
ATOM      5  C   UNL     1       2.144   7.957  19.267  0.00  0.00    +0.000 A 
ATOM      6  N   UNL     1       2.354   6.666  19.597  0.00  0.00    +0.000 NA
ENDROOT
BRANCH   5   7
ATOM      7  N   UNL     1       1.409   8.759  20.140  0.00  0.00    +0.000 N 
ATOM      8  C   UNL     1       1.041   8.358  21.484  0.00  0.00    +0.000 C 
ATOM      9  C   UNL     1       0.143   9.480  21.913  0.00  0.00    +0.000 A 
ATOM     10  C   UNL     1      -0.442   9.760  23.133  0.00  0.00    +0.000 A 
ATOM     11  C   UNL     1      -1.276  10.888  23.226  0.00  0.00    +0.000 A 
ATOM     12  C   UNL     1      -1.547  11.714  22.107  0.00  0.00    +0.000 A 
ATOM     13  C   UNL     1      -0.923  11.431  20.889  0.00  0.00    +0.000 A 
ATOM     14  C   UNL     1      -0.078  10.337  20.837  0.00  0.00    +0.000 A 
ATOM     15  C   UNL     1       0.732   9.884  19.712  0.00  0.00    +0.000 C 
ATOM     16  O   UNL     1       0.734  10.432  18.618  0.00  0.00    +0.000 OA
BRANCH  12  17
ATOM     17  C   UNL     1      -2.450  12.919  22.222  0.00  0.00    +0.000 C 
BRANCH  17  18
ATOM     18  C   UNL     1      -1.720  14.233  22.453  0.00  0.00    +0.000 C 
ATOM     19  F   UNL     1      -2.424  15.029  23.299  0.00  0.00    +0.000 F 
ATOM     20  F   UNL     1      -0.538  13.978  23.073  0.00  0.00    +0.000 F 
ENDBRANCH  17  18
ENDBRANCH  12  17
ENDBRANCH   5   7
BRANCH   1  21
ATOM     21  C   UNL     1       3.013   4.340  19.105  0.00  0.00    +0.000 C 
ATOM     22  C   UNL     1       2.660   3.997  20.574  0.00  0.00    +0.000 C 
ATOM     23  O   UNL     1       1.482   3.259  20.188  0.00  0.00    +0.000 OA
ATOM     24  C   UNL     1       1.721   3.534  18.794  0.00  0.00    +0.000 C 
BRANCH  21  25
ATOM     25  C   UNL     1       4.262   3.643  18.525  0.00  0.00    +0.000 C 
BRANCH  25  31
ATOM     26  C   UNL     1       6.431   4.272  16.221  0.00  0.00    +0.000 C 
ATOM     27  N   UNL     1       6.489   4.597  17.621  0.00  0.00    +0.000 N 
ATOM     28  C   UNL     1       7.569   5.171  18.224  0.00  0.00    +0.000 A 
ATOM     29  N   UNL     1       7.326   5.333  19.502  0.00  0.00    +0.000 NA
ATOM     30  N   UNL     1       6.064   4.852  19.746  0.00  0.00    +0.000 NA
ATOM     31  C   UNL     1       5.560   4.390  18.616  0.00  0.00    +0.000 A 
ENDBRANCH  25  31
ENDBRANCH  21  25
ENDBRANCH   1  21
TORSDOF 6
ENDMDL
MODEL 8
REMARK VINA RESULT:      -8.5      1.479      2.151
REMARK  Name = 
REMARK  7 active torsions:
REMARK  status: ('A' for Active; 'I' for Inactive)
REMARK    1  A    between atoms: C_1  and  N_2
REMARK    2  A    between atoms: C_6  and  C_7
REMARK    3  A    between atoms: C_7  and  C_8
REMARK    4  A    between atoms: C_8  and  C_9
REMARK    5  A    between atoms: C_13  and  N_14
REMARK    6  A    between atoms: C_19  and  C_20
REMARK    7  A    between atoms: C_20  and  C_21
REMARK                            x       y       z     vdW  Elec       q    Type
REMARK                         _______ _______ _______ _____ _____    ______ ____
ROOT
ATOM      1  C   UNL     1       4.671   5.048  17.104  0.00  0.00    +0.000 A 
ATOM      2  C   UNL     1       4.145   3.756  17.108  0.00  0.00    +0.000 A 
ATOM      3  C   UNL     1       2.902   3.529  17.680  0.00  0.00    +0.000 A 
ATOM      4  C   UNL     1       2.226   4.591  18.263  0.00  0.00    +0.000 A 
ATOM      5  C   UNL     1       2.779   5.862  18.191  0.00  0.00    +0.000 A 
ATOM      6  N   UNL     1       3.965   6.106  17.597  0.00  0.00    +0.000 NA
ENDROOT
BRANCH   5   7
ATOM      7  N   UNL     1       2.109   6.921  18.806  0.00  0.00    +0.000 N 
ATOM      8  C   UNL     1       2.074   8.268  18.273  0.00  0.00    +0.000 C 
ATOM      9  C   UNL     1       1.387   9.024  19.371  0.00  0.00    +0.000 A 
ATOM     10  C   UNL     1       0.941  10.330  19.435  0.00  0.00    +0.000 A 
ATOM     11  C   UNL     1       0.352  10.773  20.632  0.00  0.00    +0.000 A 
ATOM     12  C   UNL     1       0.233   9.930  21.765  0.00  0.00    +0.000 A 
ATOM     13  C   UNL     1       0.663   8.604  21.671  0.00  0.00    +0.000 A 
ATOM     14  C   UNL     1       1.203   8.186  20.469  0.00  0.00    +0.000 A 
ATOM     15  C   UNL     1       1.655   6.847  20.108  0.00  0.00    +0.000 C 
ATOM     16  O   UNL     1       1.634   5.897  20.878  0.00  0.00    +0.000 OA
BRANCH  12  17
ATOM     17  C   UNL     1      -0.398  10.423  23.045  0.00  0.00    +0.000 C 
BRANCH  17  18
ATOM     18  C   UNL     1      -1.433  11.522  22.856  0.00  0.00    +0.000 C 
ATOM     19  F   UNL     1      -2.512  11.304  23.650  0.00  0.00    +0.000 F 
ATOM     20  F   UNL     1      -0.900  12.704  23.262  0.00  0.00    +0.000 F 
ENDBRANCH  17  18
ENDBRANCH  12  17
ENDBRANCH   5   7
BRANCH   1  21
ATOM     21  C   UNL     1       6.109   5.425  16.586  0.00  0.00    +0.000 C 
ATOM     22  C   UNL     1       7.026   6.221  17.548  0.00  0.00    +0.000 C 
ATOM     23  O   UNL     1       7.975   5.138  17.646  0.00  0.00    +0.000 OA
ATOM     24  C   UNL     1       7.185   4.316  16.764  0.00  0.00    +0.000 C 
BRANCH  21  25
ATOM     25  C   UNL     1       6.057   5.925  15.126  0.00  0.00    +0.000 C 
BRANCH  25  31
ATOM     26  C   UNL     1       8.418   5.691  12.940  0.00  0.00    +0.000 C 
ATOM     27  N   UNL     1       7.255   4.858  13.098  0.00  0.00    +0.000 N 
ATOM     28  C   UNL     1       6.922   3.849  12.244  0.00  0.00    +0.000 A 
ATOM     29  N   UNL     1       5.809   3.284  12.644  0.00  0.00    +0.000 NA
ATOM     30  N   UNL     1       5.400   3.936  13.780  0.00  0.00    +0.000 NA
ATOM     31  C   UNL     1       6.261   4.900  14.050  0.00  0.00    +0.000 A 
ENDBRANCH  25  31
ENDBRANCH  21  25
ENDBRANCH   1  21
TORSDOF 6
ENDMDL
MODEL 9
REMARK VINA RESULT:      -8.5      0.907      1.418
REMARK  Name = 
REMARK  7 active torsions:
REMARK  status: ('A' for Active; 'I' for Inactive)
REMARK    1  A    between atoms: C_1  and  N_2
REMARK    2  A    between atoms: C_6  and  C_7
REMARK    3  A    between atoms: C_7  and  C_8
REMARK    4  A    between atoms: C_8  and  C_9
REMARK    5  A    between atoms: C_13  and  N_14
REMARK    6  A    between atoms: C_19  and  C_20
REMARK    7  A    between atoms: C_20  and  C_21
REMARK                            x       y       z     vdW  Elec       q    Type
REMARK                         _______ _______ _______ _____ _____    ______ ____
ROOT
ATOM      1  C   UNL     1       4.533   5.210  17.071  0.00  0.00    +0.000 A 
ATOM      2  C   UNL     1       3.833   4.008  16.961  0.00  0.00    +0.000 A 
ATOM      3  C   UNL     1       2.589   3.887  17.562  0.00  0.00    +0.000 A 
ATOM      4  C   UNL     1       2.086   4.957  18.286  0.00  0.00    +0.000 A 
ATOM      5  C   UNL     1       2.807   6.142  18.325  0.00  0.00    +0.000 A 
ATOM      6  N   UNL     1       3.996   6.290  17.707  0.00  0.00    +0.000 NA
ENDROOT
BRANCH   5   7
ATOM      7  N   UNL     1       2.309   7.205  19.081  0.00  0.00    +0.000 N 
ATOM      8  C   UNL     1       1.851   7.073  20.450  0.00  0.00    +0.000 C 
ATOM      9  C   UNL     1       1.279   8.433  20.723  0.00  0.00    +0.000 A 
ATOM     10  C   UNL     1       0.790   8.996  21.886  0.00  0.00    +0.000 A 
ATOM     11  C   UNL     1       0.281  10.305  21.827  0.00  0.00    +0.000 A 
ATOM     12  C   UNL     1       0.235  11.037  20.614  0.00  0.00    +0.000 A 
ATOM     13  C   UNL     1       0.762  10.461  19.455  0.00  0.00    +0.000 A 
ATOM     14  C   UNL     1       1.290   9.186  19.551  0.00  0.00    +0.000 A 
ATOM     15  C   UNL     1       1.951   8.410  18.509  0.00  0.00    +0.000 C 
ATOM     16  O   UNL     1       2.095   8.806  17.361  0.00  0.00    +0.000 OA
BRANCH  12  17
ATOM     17  C   UNL     1      -0.319  12.441  20.566  0.00  0.00    +0.000 C 
BRANCH  17  18
ATOM     18  C   UNL     1      -1.395  12.658  19.514  0.00  0.00    +0.000 C 
ATOM     19  F   UNL     1      -2.393  13.438  20.004  0.00  0.00    +0.000 F 
ATOM     20  F   UNL     1      -0.859  13.346  18.470  0.00  0.00    +0.000 F 
ENDBRANCH  17  18
ENDBRANCH  12  17
ENDBRANCH   5   7
BRANCH   1  21
ATOM     21  C   UNL     1       5.993   5.446  16.531  0.00  0.00    +0.000 C 
ATOM     22  C   UNL     1       6.990   6.173  17.469  0.00  0.00    +0.000 C 
ATOM     23  O   UNL     1       7.838   5.010  17.576  0.00  0.00    +0.000 OA
ATOM     24  C   UNL     1       6.967   4.248  16.718  0.00  0.00    +0.000 C 
BRANCH  21  25
ATOM     25  C   UNL     1       5.968   5.924  15.063  0.00  0.00    +0.000 C 
BRANCH  25  31
ATOM     26  C   UNL     1       8.378   5.707  12.929  0.00  0.00    +0.000 C 
ATOM     27  N   UNL     1       7.230   4.851  13.077  0.00  0.00    +0.000 N 
ATOM     28  C   UNL     1       6.936   3.822  12.233  0.00  0.00    +0.000 A 
ATOM     29  N   UNL     1       5.828   3.239  12.620  0.00  0.00    +0.000 NA
ATOM     30  N   UNL     1       5.382   3.900  13.736  0.00  0.00    +0.000 NA
ATOM     31  C   UNL     1       6.216   4.887  14.008  0.00  0.00    +0.000 A 
ENDBRANCH  25  31
ENDBRANCH  21  25
ENDBRANCH   1  21
TORSDOF 6
ENDMDL
