MODEL 1
REMARK VINA RESULT:      -9.6      0.000      0.000
REMARK  Name = 
REMARK  5 active torsions:
REMARK  status: ('A' for Active; 'I' for Inactive)
REMARK    1  A    between atoms: C_1  and  C_2
REMARK    2  A    between atoms: C_2  and  C_3
REMARK    3  A    between atoms: C_7  and  N_8
REMARK    4  A    between atoms: C_9  and  C_11
REMARK    5  A    between atoms: C_14  and  C_15
REMARK                            x       y       z     vdW  Elec       q    Type
REMARK                         _______ _______ _______ _____ _____    ______ ____
ROOT
ATOM      1  C   UNL     1       5.117   5.407  17.107  0.00  0.00    +0.000 A 
ATOM      2  C   UNL     1       4.489   4.181  16.829  0.00  0.00    +0.000 A 
ATOM      3  C   UNL     1       3.173   3.950  17.202  0.00  0.00    +0.000 A 
ATOM      4  C   UNL     1       2.470   4.927  17.895  0.00  0.00    +0.000 A 
ATOM      5  C   UNL     1       3.071   6.139  18.233  0.00  0.00    +0.000 A 
ATOM      6  C   UNL     1       4.380   6.393  17.801  0.00  0.00    +0.000 A 
ENDROOT
BRANCH   1   8
ATOM      7  C   UNL     1       6.946   4.742  15.514  0.00  0.00    +0.000 C 
ATOM      8  C   UNL     1       6.587   5.596  16.727  0.00  0.00    +0.000 C 
ATOM      9  N   UNL     1       6.890   7.001  16.512  0.00  0.00    +0.000 N 
ATOM     10  C   UNL     1       7.509   7.567  17.596  0.00  0.00    +0.000 C 
ATOM     11  O   UNL     1       7.746   8.755  17.722  0.00  0.00    +0.000 OA
ATOM     12  N   UNL     1       7.846   6.586  18.458  0.00  0.00    +0.000 N 
ATOM     13  C   UNL     1       7.542   5.373  17.919  0.00  0.00    +0.000 C 
ATOM     14  O   UNL     1       7.929   4.298  18.360  0.00  0.00    +0.000 OA
ATOM     15  H   UNL     1       6.499   7.588  15.788  0.00  0.00    +0.000 HD
ATOM     16  H   UNL     1       8.426   6.732  19.266  0.00  0.00    +0.000 HD
ENDBRANCH   1   8
BRANCH   5  17
ATOM     17  N   UNL     1       2.418   7.119  19.024  0.00  0.00    +0.000 N 
ATOM     18  C   UNL     1       2.004   8.356  18.546  0.00  0.00    +0.000 C 
ATOM     19  O   UNL     1       2.137   8.771  17.404  0.00  0.00    +0.000 OA
ATOM     20  H   UNL     1       2.072   6.818  19.921  0.00  0.00    +0.000 HD
BRANCH  18  21
ATOM     21  C   UNL     1       1.266   9.233  19.495  0.00  0.00    +0.000 A 
ATOM     22  C   UNL     1       0.755  10.479  19.129  0.00  0.00    +0.000 A 
ATOM     23  C   UNL     1       0.004  11.217  20.050  0.00  0.00    +0.000 A 
ATOM     24  C   UNL     1      -0.244  10.718  21.342  0.00  0.00    +0.000 A 
ATOM     25  C   UNL     1       0.263   9.463  21.697  0.00  0.00    +0.000 A 
ATOM     26  C   UNL     1       1.013   8.727  20.780  0.00  0.00    +0.000 A 
BRANCH  24  27
ATOM     27  C   UNL     1      -1.053  11.509  22.342  0.00  0.00    +0.000 C 
ATOM     28  F   UNL     1      -0.449  12.666  22.729  0.00  0.00    +0.000 F 
ATOM     29  F   UNL     1      -2.274  11.866  21.859  0.00  0.00    +0.000 F 
ATOM     30  F   UNL     1      -1.291  10.810  23.486  0.00  0.00    +0.000 F 
ENDBRANCH  24  27
ENDBRANCH  18  21
ENDBRANCH   5  17
TORSDOF 4
ENDMDL
MODEL 2
REMARK VINA RESULT:      -9.2      0.477      1.313
REMARK  Name = 
REMARK  5 active torsions:
REMARK  status: ('A' for Active; 'I' for Inactive)
REMARK    1  A    between atoms: C_1  and  C_2
REMARK    2  A    between atoms: C_2  and  C_3
REMARK    3  A    between atoms: C_7  and  N_8
REMARK    4  A    between atoms: C_9  and  C_11
REMARK    5  A    between atoms: C_14  and  C_15
REMARK                            x       y       z     vdW  Elec       q    Type
REMARK                         _______ _______ _______ _____ _____    ______ ____
ROOT
ATOM      1  C   UNL     1       5.155   5.436  17.144  0.00  0.00    +0.000 A 
ATOM      2  C   UNL     1       4.552   4.186  16.922  0.00  0.00    +0.000 A 
ATOM      3  C   UNL     1       3.233   3.954  17.282  0.00  0.00    +0.000 A 
ATOM      4  C   UNL     1       2.500   4.956  17.905  0.00  0.00    +0.000 A 
ATOM      5  C   UNL     1       3.076   6.196  18.186  0.00  0.00    +0.000 A 
ATOM      6  C   UNL     1       4.389   6.448  17.766  0.00  0.00    +0.000 A 
ENDROOT
BRANCH   1   8
ATOM      7  C   UNL     1       7.007   4.770  15.577  0.00  0.00    +0.000 C 
ATOM      8  C   UNL     1       6.629   5.628  16.782  0.00  0.00    +0.000 C 
ATOM      9  N   UNL     1       6.931   7.034  16.564  0.00  0.00    +0.000 N 
ATOM     10  C   UNL     1       7.534   7.606  17.655  0.00  0.00    +0.000 C 
ATOM     11  O   UNL     1       7.766   8.795  17.778  0.00  0.00    +0.000 OA
ATOM     12  N   UNL     1       7.862   6.630  18.526  0.00  0.00    +0.000 N 
ATOM     13  C   UNL     1       7.570   5.413  17.987  0.00  0.00    +0.000 C 
ATOM     14  O   UNL     1       7.954   4.341  18.438  0.00  0.00    +0.000 OA
ATOM     15  H   UNL     1       6.548   7.615  15.833  0.00  0.00    +0.000 HD
ATOM     16  H   UNL     1       8.431   6.781  19.341  0.00  0.00    +0.000 HD
ENDBRANCH   1   8
BRANCH   5  17
ATOM     17  N   UNL     1       2.391   7.208  18.907  0.00  0.00    +0.000 N 
ATOM     18  C   UNL     1       2.021   8.433  18.368  0.00  0.00    +0.000 C 
ATOM     19  O   UNL     1       2.223   8.810  17.224  0.00  0.00    +0.000 OA
ATOM     20  H   UNL     1       1.991   6.939  19.793  0.00  0.00    +0.000 HD
BRANCH  18  21
ATOM     21  C   UNL     1       1.242   9.348  19.246  0.00  0.00    +0.000 A 
ATOM     22  C   UNL     1       0.722   8.950  20.479  0.00  0.00    +0.000 A 
ATOM     23  C   UNL     1       0.065   9.884  21.288  0.00  0.00    +0.000 A 
ATOM     24  C   UNL     1      -0.078  11.221  20.874  0.00  0.00    +0.000 A 
ATOM     25  C   UNL     1       0.457  11.614  19.642  0.00  0.00    +0.000 A 
ATOM     26  C   UNL     1       1.109  10.684  18.834  0.00  0.00    +0.000 A 
BRANCH  24  27
ATOM     27  C   UNL     1      -0.786  12.234  21.741  0.00  0.00    +0.000 C 
ATOM     28  F   UNL     1      -2.136  12.242  21.567  0.00  0.00    +0.000 F 
ATOM     29  F   UNL     1      -0.580  12.018  23.069  0.00  0.00    +0.000 F 
ATOM     30  F   UNL     1      -0.370  13.507  21.498  0.00  0.00    +0.000 F 
ENDBRANCH  24  27
ENDBRANCH  18  21
ENDBRANCH   5  17
TORSDOF 4
ENDMDL
MODEL 3
REMARK VINA RESULT:      -9.1      1.036      1.412
REMARK  Name = 
REMARK  5 active torsions:
REMARK  status: ('A' for Active; 'I' for Inactive)
REMARK    1  A    between atoms: C_1  and  C_2
REMARK    2  A    between atoms: C_2  and  C_3
REMARK    3  A    between atoms: C_7  and  N_8
REMARK    4  A    between atoms: C_9  and  C_11
REMARK    5  A    between atoms: C_14  and  C_15
REMARK                            x       y       z     vdW  Elec       q    Type
REMARK                         _______ _______ _______ _____ _____    ______ ____
ROOT
ATOM      1  C   UNL     1       5.113   5.434  17.117  0.00  0.00    +0.000 A 
ATOM      2  C   UNL     1       4.542   4.156  16.988  0.00  0.00    +0.000 A 
ATOM      3  C   UNL     1       3.226   3.919  17.355  0.00  0.00    +0.000 A 
ATOM      4  C   UNL     1       2.464   4.948  17.895  0.00  0.00    +0.000 A 
ATOM      5  C   UNL     1       3.007   6.219  18.083  0.00  0.00    +0.000 A 
ATOM      6  C   UNL     1       4.317   6.471  17.654  0.00  0.00    +0.000 A 
ENDROOT
BRANCH   1   8
ATOM      7  C   UNL     1       6.960   4.791  15.536  0.00  0.00    +0.000 C 
ATOM      8  C   UNL     1       6.585   5.634  16.751  0.00  0.00    +0.000 C 
ATOM      9  N   UNL     1       6.881   7.043  16.549  0.00  0.00    +0.000 N 
ATOM     10  C   UNL     1       7.488   7.604  17.643  0.00  0.00    +0.000 C 
ATOM     11  O   UNL     1       7.716   8.793  17.779  0.00  0.00    +0.000 OA
ATOM     12  N   UNL     1       7.822   6.619  18.502  0.00  0.00    +0.000 N 
ATOM     13  C   UNL     1       7.531   5.408  17.950  0.00  0.00    +0.000 C 
ATOM     14  O   UNL     1       7.920   4.332  18.387  0.00  0.00    +0.000 OA
ATOM     15  H   UNL     1       6.494   7.632  15.826  0.00  0.00    +0.000 HD
ATOM     16  H   UNL     1       8.394   6.762  19.316  0.00  0.00    +0.000 HD
ENDBRANCH   1   8
BRANCH   5  17
ATOM     17  N   UNL     1       2.292   7.266  18.720  0.00  0.00    +0.000 N 
ATOM     18  C   UNL     1       1.857   7.222  20.039  0.00  0.00    +0.000 C 
ATOM     19  O   UNL     1       2.024   6.302  20.824  0.00  0.00    +0.000 OA
ATOM     20  H   UNL     1       2.271   8.155  18.244  0.00  0.00    +0.000 HD
BRANCH  18  21
ATOM     21  C   UNL     1       1.187   8.441  20.569  0.00  0.00    +0.000 A 
ATOM     22  C   UNL     1       0.799   8.569  21.903  0.00  0.00    +0.000 A 
ATOM     23  C   UNL     1       0.244   9.773  22.351  0.00  0.00    +0.000 A 
ATOM     24  C   UNL     1       0.072  10.857  21.472  0.00  0.00    +0.000 A 
ATOM     25  C   UNL     1       0.475  10.725  20.138  0.00  0.00    +0.000 A 
ATOM     26  C   UNL     1       1.026   9.525  19.690  0.00  0.00    +0.000 A 
BRANCH  24  27
ATOM     27  C   UNL     1      -0.527  12.160  21.947  0.00  0.00    +0.000 C 
ATOM     28  F   UNL     1       0.325  13.216  21.838  0.00  0.00    +0.000 F 
ATOM     29  F   UNL     1      -1.644  12.505  21.249  0.00  0.00    +0.000 F 
ATOM     30  F   UNL     1      -0.901  12.114  23.255  0.00  0.00    +0.000 F 
ENDBRANCH  24  27
ENDBRANCH  18  21
ENDBRANCH   5  17
TORSDOF 4
ENDMDL
MODEL 4
REMARK VINA RESULT:      -9.1      0.981      1.121
REMARK  Name = 
REMARK  5 active torsions:
REMARK  status: ('A' for Active; 'I' for Inactive)
REMARK    1  A    between atoms: C_1  and  C_2
REMARK    2  A    between atoms: C_2  and  C_3
REMARK    3  A    between atoms: C_7  and  N_8
REMARK    4  A    between atoms: C_9  and  C_11
REMARK    5  A    between atoms: C_14  and  C_15
REMARK                            x       y       z     vdW  Elec       q    Type
REMARK                         _______ _______ _______ _____ _____    ______ ____
ROOT
ATOM      1  C   UNL     1       5.101   5.456  17.137  0.00  0.00    +0.000 A 
ATOM      2  C   UNL     1       4.544   4.165  17.104  0.00  0.00    +0.000 A 
ATOM      3  C   UNL     1       3.232   3.941  17.496  0.00  0.00    +0.000 A 
ATOM      4  C   UNL     1       2.462   4.998  17.965  0.00  0.00    +0.000 A 
ATOM      5  C   UNL     1       2.990   6.285  18.057  0.00  0.00    +0.000 A 
ATOM      6  C   UNL     1       4.296   6.520  17.603  0.00  0.00    +0.000 A 
ENDROOT
BRANCH   1   8
ATOM      7  C   UNL     1       6.920   4.798  15.529  0.00  0.00    +0.000 C 
ATOM      8  C   UNL     1       6.568   5.646  16.749  0.00  0.00    +0.000 C 
ATOM      9  N   UNL     1       6.871   7.052  16.540  0.00  0.00    +0.000 N 
ATOM     10  C   UNL     1       7.498   7.611  17.624  0.00  0.00    +0.000 C 
ATOM     11  O   UNL     1       7.736   8.798  17.755  0.00  0.00    +0.000 OA
ATOM     12  N   UNL     1       7.838   6.625  18.479  0.00  0.00    +0.000 N 
ATOM     13  C   UNL     1       7.531   5.415  17.934  0.00  0.00    +0.000 C 
ATOM     14  O   UNL     1       7.919   4.337  18.367  0.00  0.00    +0.000 OA
ATOM     15  H   UNL     1       6.477   7.642  15.822  0.00  0.00    +0.000 HD
ATOM     16  H   UNL     1       8.423   6.765  19.284  0.00  0.00    +0.000 HD
ENDBRANCH   1   8
BRANCH   5  17
ATOM     17  N   UNL     1       2.267   7.367  18.621  0.00  0.00    +0.000 N 
ATOM     18  C   UNL     1       1.846   7.417  19.944  0.00  0.00    +0.000 C 
ATOM     19  O   UNL     1       2.034   6.560  20.795  0.00  0.00    +0.000 OA
ATOM     20  H   UNL     1       2.229   8.217  18.079  0.00  0.00    +0.000 HD
BRANCH  18  21
ATOM     21  C   UNL     1       1.164   8.663  20.388  0.00  0.00    +0.000 A 
ATOM     22  C   UNL     1       0.775   9.668  19.501  0.00  0.00    +0.000 A 
ATOM     23  C   UNL     1       0.068  10.777  19.978  0.00  0.00    +0.000 A 
ATOM     24  C   UNL     1      -0.257  10.893  21.341  0.00  0.00    +0.000 A 
ATOM     25  C   UNL     1       0.126   9.875  22.222  0.00  0.00    +0.000 A 
ATOM     26  C   UNL     1       0.833   8.770  21.749  0.00  0.00    +0.000 A 
BRANCH  24  27
ATOM     27  C   UNL     1      -1.018  12.087  21.863  0.00  0.00    +0.000 C 
ATOM     28  F   UNL     1      -1.340  12.987  20.894  0.00  0.00    +0.000 F 
ATOM     29  F   UNL     1      -2.193  11.738  22.456  0.00  0.00    +0.000 F 
ATOM     30  F   UNL     1      -0.317  12.782  22.801  0.00  0.00    +0.000 F 
ENDBRANCH  24  27
ENDBRANCH  18  21
ENDBRANCH   5  17
TORSDOF 4
ENDMDL
MODEL 5
REMARK VINA RESULT:      -9.0      1.510      2.190
REMARK  Name = 
REMARK  5 active torsions:
REMARK  status: ('A' for Active; 'I' for Inactive)
REMARK    1  A    between atoms: C_1  and  C_2
REMARK    2  A    between atoms: C_2  and  C_3
REMARK    3  A    between atoms: C_7  and  N_8
REMARK    4  A    between atoms: C_9  and  C_11
REMARK    5  A    between atoms: C_14  and  C_15
REMARK                            x       y       z     vdW  Elec       q    Type
REMARK                         _______ _______ _______ _____ _____    ______ ____
ROOT
ATOM      1  C   UNL     1       5.200   4.875  18.389  0.00  0.00    +0.000 A 
ATOM      2  C   UNL     1       4.812   3.549  18.644  0.00  0.00    +0.000 A 
ATOM      3  C   UNL     1       3.646   3.265  19.340  0.00  0.00    +0.000 A 
ATOM      4  C   UNL     1       2.863   4.303  19.828  0.00  0.00    +0.000 A 
ATOM      5  C   UNL     1       3.237   5.633  19.638  0.00  0.00    +0.000 A 
ATOM      6  C   UNL     1       4.383   5.917  18.882  0.00  0.00    +0.000 A 
ENDROOT
BRANCH   1   8
ATOM      7  C   UNL     1       7.665   5.292  18.668  0.00  0.00    +0.000 C 
ATOM      8  C   UNL     1       6.522   5.141  17.667  0.00  0.00    +0.000 C 
ATOM      9  N   UNL     1       6.794   4.104  16.685  0.00  0.00    +0.000 N 
ATOM     10  C   UNL     1       6.476   4.505  15.413  0.00  0.00    +0.000 C 
ATOM     11  O   UNL     1       6.483   3.781  14.433  0.00  0.00    +0.000 OA
ATOM     12  N   UNL     1       6.207   5.826  15.432  0.00  0.00    +0.000 N 
ATOM     13  C   UNL     1       6.433   6.324  16.680  0.00  0.00    +0.000 C 
ATOM     14  O   UNL     1       6.492   7.516  16.954  0.00  0.00    +0.000 OA
ATOM     15  H   UNL     1       6.956   3.128  16.884  0.00  0.00    +0.000 HD
ATOM     16  H   UNL     1       6.076   6.379  14.603  0.00  0.00    +0.000 HD
ENDBRANCH   1   8
BRANCH   5  17
ATOM     17  N   UNL     1       2.516   6.716  20.204  0.00  0.00    +0.000 N 
ATOM     18  C   UNL     1       2.022   7.789  19.475  0.00  0.00    +0.000 C 
ATOM     19  O   UNL     1       2.131   7.955  18.269  0.00  0.00    +0.000 OA
ATOM     20  H   UNL     1       2.186   6.593  21.150  0.00  0.00    +0.000 HD
BRANCH  18  21
ATOM     21  C   UNL     1       1.222   8.800  20.219  0.00  0.00    +0.000 A 
ATOM     22  C   UNL     1       0.820  10.010  19.653  0.00  0.00    +0.000 A 
ATOM     23  C   UNL     1       0.004  10.880  20.385  0.00  0.00    +0.000 A 
ATOM     24  C   UNL     1      -0.418  10.549  21.685  0.00  0.00    +0.000 A 
ATOM     25  C   UNL     1      -0.020   9.328  22.241  0.00  0.00    +0.000 A 
ATOM     26  C   UNL     1       0.795   8.461  21.514  0.00  0.00    +0.000 A 
BRANCH  24  27
ATOM     27  C   UNL     1      -1.298  11.482  22.482  0.00  0.00    +0.000 C 
ATOM     28  F   UNL     1      -0.636  12.571  22.959  0.00  0.00    +0.000 F 
ATOM     29  F   UNL     1      -2.339  11.967  21.751  0.00  0.00    +0.000 F 
ATOM     30  F   UNL     1      -1.852  10.875  23.567  0.00  0.00    +0.000 F 
ENDBRANCH  24  27
ENDBRANCH  18  21
ENDBRANCH   5  17
TORSDOF 4
ENDMDL
MODEL 6
REMARK VINA RESULT:      -8.9      2.595      3.808
REMARK  Name = 
REMARK  5 active torsions:
REMARK  status: ('A' for Active; 'I' for Inactive)
REMARK    1  A    between atoms: C_1  and  C_2
REMARK    2  A    between atoms: C_2  and  C_3
REMARK    3  A    between atoms: C_7  and  N_8
REMARK    4  A    between atoms: C_9  and  C_11
REMARK    5  A    between atoms: C_14  and  C_15
REMARK                            x       y       z     vdW  Elec       q    Type
REMARK                         _______ _______ _______ _____ _____    ______ ____
ROOT
ATOM      1  C   UNL     1       3.355   4.432  18.401  0.00  0.00    +0.000 A 
ATOM      2  C   UNL     1       4.149   4.813  17.306  0.00  0.00    +0.000 A 
ATOM      3  C   UNL     1       4.357   6.151  17.003  0.00  0.00    +0.000 A 
ATOM      4  C   UNL     1       3.744   7.135  17.768  0.00  0.00    +0.000 A 
ATOM      5  C   UNL     1       2.911   6.799  18.835  0.00  0.00    +0.000 A 
ATOM      6  C   UNL     1       2.752   5.448  19.176  0.00  0.00    +0.000 A 
ENDROOT
BRANCH   1   8
ATOM      7  C   UNL     1       2.502   2.273  17.433  0.00  0.00    +0.000 C 
ATOM      8  C   UNL     1       3.108   2.945  18.662  0.00  0.00    +0.000 C 
ATOM      9  N   UNL     1       4.329   2.286  19.096  0.00  0.00    +0.000 N 
ATOM     10  C   UNL     1       4.365   2.112  20.456  0.00  0.00    +0.000 C 
ATOM     11  O   UNL     1       5.329   1.709  21.081  0.00  0.00    +0.000 OA
ATOM     12  N   UNL     1       3.151   2.415  20.960  0.00  0.00    +0.000 N 
ATOM     13  C   UNL     1       2.287   2.696  19.946  0.00  0.00    +0.000 C 
ATOM     14  O   UNL     1       1.072   2.787  20.071  0.00  0.00    +0.000 OA
ATOM     15  H   UNL     1       5.170   2.176  18.549  0.00  0.00    +0.000 HD
ATOM     16  H   UNL     1       2.887   2.241  21.914  0.00  0.00    +0.000 HD
ENDBRANCH   1   8
BRANCH   5  17
ATOM     17  N   UNL     1       2.191   7.772  19.577  0.00  0.00    +0.000 N 
ATOM     18  C   UNL     1       1.438   8.788  19.003  0.00  0.00    +0.000 C 
ATOM     19  O   UNL     1       1.286   8.987  17.807  0.00  0.00    +0.000 OA
ATOM     20  H   UNL     1       2.073   7.592  20.562  0.00  0.00    +0.000 HD
BRANCH  18  21
ATOM     21  C   UNL     1       0.686   9.676  19.930  0.00  0.00    +0.000 A 
ATOM     22  C   UNL     1       0.266  10.958  19.573  0.00  0.00    +0.000 A 
ATOM     23  C   UNL     1      -0.504  11.709  20.468  0.00  0.00    +0.000 A 
ATOM     24  C   UNL     1      -0.861  11.188  21.724  0.00  0.00    +0.000 A 
ATOM     25  C   UNL     1      -0.446   9.897  22.070  0.00  0.00    +0.000 A 
ATOM     26  C   UNL     1       0.323   9.148  21.180  0.00  0.00    +0.000 A 
BRANCH  24  27
ATOM     27  C   UNL     1      -1.691  11.992  22.696  0.00  0.00    +0.000 C 
ATOM     28  F   UNL     1      -2.320  11.227  23.630  0.00  0.00    +0.000 F 
ATOM     29  F   UNL     1      -0.949  12.897  23.391  0.00  0.00    +0.000 F 
ATOM     30  F   UNL     1      -2.671  12.707  22.076  0.00  0.00    +0.000 F 
ENDBRANCH  24  27
ENDBRANCH  18  21
ENDBRANCH   5  17
TORSDOF 4
ENDMDL
MODEL 7
REMARK VINA RESULT:      -8.9      0.913      1.190
REMARK  Name = 
REMARK  5 active torsions:
REMARK  status: ('A' for Active; 'I' for Inactive)
REMARK    1  A    between atoms: C_1  and  C_2
REMARK    2  A    between atoms: C_2  and  C_3
REMARK    3  A    between atoms: C_7  and  N_8
REMARK    4  A    between atoms: C_9  and  C_11
REMARK    5  A    between atoms: C_14  and  C_15
REMARK                            x       y       z     vdW  Elec       q    Type
REMARK                         _______ _______ _______ _____ _____    ______ ____
ROOT
ATOM      1  C   UNL     1       4.899   5.350  17.742  0.00  0.00    +0.000 A 
ATOM      2  C   UNL     1       4.764   4.017  18.165  0.00  0.00    +0.000 A 
ATOM      3  C   UNL     1       3.818   3.660  19.115  0.00  0.00    +0.000 A 
ATOM      4  C   UNL     1       3.013   4.636  19.689  0.00  0.00    +0.000 A 
ATOM      5  C   UNL     1       3.147   5.978  19.331  0.00  0.00    +0.000 A 
ATOM      6  C   UNL     1       4.061   6.326  18.327  0.00  0.00    +0.000 A 
ENDROOT
BRANCH   1   8
ATOM      7  C   UNL     1       5.673   5.126  15.359  0.00  0.00    +0.000 C 
ATOM      8  C   UNL     1       5.994   5.706  16.734  0.00  0.00    +0.000 C 
ATOM      9  N   UNL     1       6.204   7.143  16.682  0.00  0.00    +0.000 N 
ATOM     10  C   UNL     1       7.300   7.530  17.409  0.00  0.00    +0.000 C 
ATOM     11  O   UNL     1       7.614   8.685  17.635  0.00  0.00    +0.000 OA
ATOM     12  N   UNL     1       7.982   6.427  17.779  0.00  0.00    +0.000 N 
ATOM     13  C   UNL     1       7.405   5.322  17.229  0.00  0.00    +0.000 C 
ATOM     14  O   UNL     1       7.918   4.210  17.198  0.00  0.00    +0.000 OA
ATOM     15  H   UNL     1       5.529   7.830  16.378  0.00  0.00    +0.000 HD
ATOM     16  H   UNL     1       8.891   6.453  18.207  0.00  0.00    +0.000 HD
ENDBRANCH   1   8
BRANCH   5  17
ATOM     17  N   UNL     1       2.413   7.013  19.965  0.00  0.00    +0.000 N 
ATOM     18  C   UNL     1       1.866   8.101  19.297  0.00  0.00    +0.000 C 
ATOM     19  O   UNL     1       1.933   8.321  18.097  0.00  0.00    +0.000 OA
ATOM     20  H   UNL     1       2.116   6.840  20.913  0.00  0.00    +0.000 HD
BRANCH  18  21
ATOM     21  C   UNL     1       1.060   9.054  20.108  0.00  0.00    +0.000 A 
ATOM     22  C   UNL     1       0.432  10.171  19.556  0.00  0.00    +0.000 A 
ATOM     23  C   UNL     1      -0.374  10.982  20.362  0.00  0.00    +0.000 A 
ATOM     24  C   UNL     1      -0.561  10.685  21.724  0.00  0.00    +0.000 A 
ATOM     25  C   UNL     1       0.063   9.555  22.268  0.00  0.00    +0.000 A 
ATOM     26  C   UNL     1       0.869   8.748  21.465  0.00  0.00    +0.000 A 
BRANCH  24  27
ATOM     27  C   UNL     1      -1.428  11.555  22.602  0.00  0.00    +0.000 C 
ATOM     28  F   UNL     1      -2.015  10.874  23.624  0.00  0.00    +0.000 F 
ATOM     29  F   UNL     1      -0.731  12.572  23.179  0.00  0.00    +0.000 F 
ATOM     30  F   UNL     1      -2.444  12.141  21.910  0.00  0.00    +0.000 F 
ENDBRANCH  24  27
ENDBRANCH  18  21
ENDBRANCH   5  17
TORSDOF 4
ENDMDL
MODEL 8
REMARK VINA RESULT:      -8.8      3.041      4.241
REMARK  Name = 
REMARK  5 active torsions:
REMARK  status: ('A' for Active; 'I' for Inactive)
REMARK    1  A    between atoms: C_1  and  C_2
REMARK    2  A    between atoms: C_2  and  C_3
REMARK    3  A    between atoms: C_7  and  N_8
REMARK    4  A    between atoms: C_9  and  C_11
REMARK    5  A    between atoms: C_14  and  C_15
REMARK                            x       y       z     vdW  Elec       q    Type
REMARK                         _______ _______ _______ _____ _____    ______ ____
ROOT
ATOM      1  C   UNL     1       2.982   4.627  18.693  0.00  0.00    +0.000 A 
ATOM      2  C   UNL     1       3.792   4.966  17.596  0.00  0.00    +0.000 A 
ATOM      3  C   UNL     1       4.023   6.292  17.260  0.00  0.00    +0.000 A 
ATOM      4  C   UNL     1       3.418   7.305  17.992  0.00  0.00    +0.000 A 
ATOM      5  C   UNL     1       2.569   7.011  19.059  0.00  0.00    +0.000 A 
ATOM      6  C   UNL     1       2.387   5.672  19.434  0.00  0.00    +0.000 A 
ENDROOT
BRANCH   1   8
ATOM      7  C   UNL     1       3.471   2.253  18.021  0.00  0.00    +0.000 C 
ATOM      8  C   UNL     1       2.710   3.151  18.992  0.00  0.00    +0.000 C 
ATOM      9  N   UNL     1       3.018   2.838  20.378  0.00  0.00    +0.000 N 
ATOM     10  C   UNL     1       1.891   2.794  21.159  0.00  0.00    +0.000 C 
ATOM     11  O   UNL     1       1.888   2.684  22.372  0.00  0.00    +0.000 OA
ATOM     12  N   UNL     1       0.809   2.843  20.355  0.00  0.00    +0.000 N 
ATOM     13  C   UNL     1       1.202   2.825  19.051  0.00  0.00    +0.000 C 
ATOM     14  O   UNL     1       0.453   2.637  18.100  0.00  0.00    +0.000 OA
ATOM     15  H   UNL     1       3.930   2.884  20.807  0.00  0.00    +0.000 HD
ATOM     16  H   UNL     1      -0.130   2.694  20.679  0.00  0.00    +0.000 HD
ENDBRANCH   1   8
BRANCH   5  17
ATOM     17  N   UNL     1       1.858   8.014  19.766  0.00  0.00    +0.000 N 
ATOM     18  C   UNL     1       1.166   9.053  19.158  0.00  0.00    +0.000 C 
ATOM     19  O   UNL     1       1.068   9.250  17.956  0.00  0.00    +0.000 OA
ATOM     20  H   UNL     1       1.695   7.845  20.747  0.00  0.00    +0.000 HD
BRANCH  18  21
ATOM     21  C   UNL     1       0.411   9.974  20.051  0.00  0.00    +0.000 A 
ATOM     22  C   UNL     1      -0.417  10.986  19.564  0.00  0.00    +0.000 A 
ATOM     23  C   UNL     1      -1.157  11.766  20.460  0.00  0.00    +0.000 A 
ATOM     24  C   UNL     1      -1.078  11.542  21.846  0.00  0.00    +0.000 A 
ATOM     25  C   UNL     1      -0.254  10.517  22.325  0.00  0.00    +0.000 A 
ATOM     26  C   UNL     1       0.486   9.741  21.434  0.00  0.00    +0.000 A 
BRANCH  24  27
ATOM     27  C   UNL     1      -1.873  12.380  22.819  0.00  0.00    +0.000 C 
ATOM     28  F   UNL     1      -1.095  13.164  23.615  0.00  0.00    +0.000 F 
ATOM     29  F   UNL     1      -2.739  13.223  22.193  0.00  0.00    +0.000 F 
ATOM     30  F   UNL     1      -2.628  11.622  23.661  0.00  0.00    +0.000 F 
ENDBRANCH  24  27
ENDBRANCH  18  21
ENDBRANCH   5  17
TORSDOF 4
ENDMDL
MODEL 9
REMARK VINA RESULT:      -8.8      2.837      3.939
REMARK  Name = 
REMARK  5 active torsions:
REMARK  status: ('A' for Active; 'I' for Inactive)
REMARK    1  A    between atoms: C_1  and  C_2
REMARK    2  A    between atoms: C_2  and  C_3
REMARK    3  A    between atoms: C_7  and  N_8
REMARK    4  A    between atoms: C_9  and  C_11
REMARK    5  A    between atoms: C_14  and  C_15
REMARK                            x       y       z     vdW  Elec       q    Type
REMARK                         _______ _______ _______ _____ _____    ______ ____
ROOT
ATOM      1  C   UNL     1       3.289   4.613  18.346  0.00  0.00    +0.000 A 
ATOM      2  C   UNL     1       4.210   4.985  17.352  0.00  0.00    +0.000 A 
ATOM      3  C   UNL     1       4.437   6.320  17.050  0.00  0.00    +0.000 A 
ATOM      4  C   UNL     1       3.720   7.309  17.712  0.00  0.00    +0.000 A 
ATOM      5  C   UNL     1       2.763   6.980  18.672  0.00  0.00    +0.000 A 
ATOM      6  C   UNL     1       2.580   5.634  19.017  0.00  0.00    +0.000 A 
ENDROOT
BRANCH   1   8
ATOM      7  C   UNL     1       2.405   2.465  17.380  0.00  0.00    +0.000 C 
ATOM      8  C   UNL     1       3.030   3.127  18.605  0.00  0.00    +0.000 C 
ATOM      9  N   UNL     1       4.249   2.454  19.024  0.00  0.00    +0.000 N 
ATOM     10  C   UNL     1       4.297   2.275  20.383  0.00  0.00    +0.000 C 
ATOM     11  O   UNL     1       5.264   1.860  20.997  0.00  0.00    +0.000 OA
ATOM     12  N   UNL     1       3.092   2.588  20.900  0.00  0.00    +0.000 N 
ATOM     13  C   UNL     1       2.220   2.881  19.896  0.00  0.00    +0.000 C 
ATOM     14  O   UNL     1       1.007   2.984  20.033  0.00  0.00    +0.000 OA
ATOM     15  H   UNL     1       5.083   2.338  18.468  0.00  0.00    +0.000 HD
ATOM     16  H   UNL     1       2.836   2.414  21.857  0.00  0.00    +0.000 HD
ENDBRANCH   1   8
BRANCH   5  17
ATOM     17  N   UNL     1       1.944   7.955  19.296  0.00  0.00    +0.000 N 
ATOM     18  C   UNL     1       1.445   7.842  20.587  0.00  0.00    +0.000 C 
ATOM     19  O   UNL     1       1.634   6.912  21.356  0.00  0.00    +0.000 OA
ATOM     20  H   UNL     1       1.887   8.854  18.843  0.00  0.00    +0.000 HD
BRANCH  18  21
ATOM     21  C   UNL     1       0.664   8.995  21.112  0.00  0.00    +0.000 A 
ATOM     22  C   UNL     1       0.185  10.018  20.292  0.00  0.00    +0.000 A 
ATOM     23  C   UNL     1      -0.609  11.031  20.840  0.00  0.00    +0.000 A 
ATOM     24  C   UNL     1      -0.931  11.033  22.209  0.00  0.00    +0.000 A 
ATOM     25  C   UNL     1      -0.457   9.997  23.022  0.00  0.00    +0.000 A 
ATOM     26  C   UNL     1       0.336   8.987  22.478  0.00  0.00    +0.000 A 
BRANCH  24  27
ATOM     27  C   UNL     1      -1.787  12.123  22.809  0.00  0.00    +0.000 C 
ATOM     28  F   UNL     1      -2.728  11.655  23.674  0.00  0.00    +0.000 F 
ATOM     29  F   UNL     1      -1.055  13.034  23.507  0.00  0.00    +0.000 F 
ATOM     30  F   UNL     1      -2.465  12.831  21.864  0.00  0.00    +0.000 F 
ENDBRANCH  24  27
ENDBRANCH  18  21
ENDBRANCH   5  17
TORSDOF 4
ENDMDL
