MODEL 1
REMARK VINA RESULT:      -8.3      0.000      0.000
REMARK  Name = 
REMARK  8 active torsions:
REMARK  status: ('A' for Active; 'I' for Inactive)
REMARK    1  A    between atoms: C_1  and  N_2
REMARK    2  A    between atoms: N_2  and  C_3
REMARK    3  A    between atoms: N_2  and  C_10
REMARK    4  A    between atoms: C_3  and  C_4
REMARK    5  A    between atoms: N_8  and  C_9
REMARK    6  A    between atoms: C_14  and  N_15
REMARK    7  A    between atoms: C_20  and  C_21
REMARK    8  A    between atoms: C_24  and  C_25
REMARK                            x       y       z     vdW  Elec       q    Type
REMARK                         _______ _______ _______ _____ _____    ______ ____
ROOT
ATOM      1  N   UNL     1       3.812   4.725  19.284  0.00  0.00    +0.000 N 
ATOM      2  C   UNL     1       5.190   5.278  19.367  0.00  0.00    +0.000 C 
ATOM      3  C   UNL     1       5.689   5.077  17.968  0.00  0.00    +0.000 A 
ATOM      4  C   UNL     1       4.993   3.992  17.426  0.00  0.00    +0.000 A 
ATOM      5  C   UNL     1       5.087   3.615  16.098  0.00  0.00    +0.000 A 
ATOM      6  C   UNL     1       5.905   4.391  15.277  0.00  0.00    +0.000 A 
ATOM      7  C   UNL     1       6.607   5.499  15.805  0.00  0.00    +0.000 A 
ATOM      8  C   UNL     1       6.509   5.863  17.166  0.00  0.00    +0.000 A 
ATOM      9  C   UNL     1       3.878   3.666  18.344  0.00  0.00    +0.000 C 
ATOM     10  O   UNL     1       3.075   2.771  18.142  0.00  0.00    +0.000 OA
ENDROOT
BRANCH   1  15
ATOM     11  C   UNL     1       1.846   7.701  20.124  0.00  0.00    +0.000 A 
ATOM     12  C   UNL     1       2.243   8.477  19.021  0.00  0.00    +0.000 A 
ATOM     13  C   UNL     1       2.778   7.906  17.863  0.00  0.00    +0.000 A 
ATOM     14  C   UNL     1       3.037   6.546  17.815  0.00  0.00    +0.000 A 
ATOM     15  C   UNL     1       2.864   5.788  18.977  0.00  0.00    +0.000 A 
ATOM     16  C   UNL     1       2.119   6.325  20.040  0.00  0.00    +0.000 A 
BRANCH  11  18
ATOM     17  C   UNL     1       2.098   8.899  22.269  0.00  0.00    +0.000 C 
ATOM     18  N   UNL     1       1.254   8.274  21.251  0.00  0.00    +0.000 N 
BRANCH  18  19
ATOM     19  C   UNL     1      -0.131   8.779  21.180  0.00  0.00    +0.000 C 
BRANCH  19  20
ATOM     20  C   UNL     1      -0.442  10.075  21.872  0.00  0.00    +0.000 A 
ATOM     21  N   UNL     1      -0.956  10.239  23.078  0.00  0.00    +0.000 NA
ATOM     22  N   UNL     1      -1.166  11.584  23.284  0.00  0.00    +0.000 NA
ATOM     23  C   UNL     1      -0.778  12.213  22.205  0.00  0.00    +0.000 A 
ATOM     24  N   UNL     1      -0.326  11.313  21.288  0.00  0.00    +0.000 N 
ATOM     25  C   UNL     1       0.131  11.621  19.962  0.00  0.00    +0.000 C 
ENDBRANCH  19  20
ENDBRANCH  18  19
ENDBRANCH  11  18
ENDBRANCH   1  15
BRANCH   8  26
ATOM     26  C   UNL     1       7.170   7.136  17.637  0.00  0.00    +0.000 C 
ATOM     27  F   UNL     1       7.873   6.993  18.786  0.00  0.00    +0.000 F 
ATOM     28  F   UNL     1       8.049   7.614  16.713  0.00  0.00    +0.000 F 
ATOM     29  F   UNL     1       6.258   8.124  17.831  0.00  0.00    +0.000 F 
ENDBRANCH   8  26
BRANCH   6  30
ATOM     30  C   UNL     1       5.995   4.170  13.819  0.00  0.00    +0.000 C 
ATOM     31  N   UNL     1       6.234   3.044  13.232  0.00  0.00    +0.000 NA
ATOM     32  H   UNL     1       6.371   2.269  13.883  0.00  0.00    +0.000 HD
ENDBRANCH   6  30
TORSDOF 6
ENDMDL
MODEL 2
REMARK VINA RESULT:      -8.3      3.736      8.316
REMARK  Name = 
REMARK  8 active torsions:
REMARK  status: ('A' for Active; 'I' for Inactive)
REMARK    1  A    between atoms: C_1  and  N_2
REMARK    2  A    between atoms: N_2  and  C_3
REMARK    3  A    between atoms: N_2  and  C_10
REMARK    4  A    between atoms: C_3  and  C_4
REMARK    5  A    between atoms: N_8  and  C_9
REMARK    6  A    between atoms: C_14  and  N_15
REMARK    7  A    between atoms: C_20  and  C_21
REMARK    8  A    between atoms: C_24  and  C_25
REMARK                            x       y       z     vdW  Elec       q    Type
REMARK                         _______ _______ _______ _____ _____    ______ ____
ROOT
ATOM      1  N   UNL     1       2.605   7.840  19.359  0.00  0.00    +0.000 N 
ATOM      2  C   UNL     1       2.212   8.629  20.556  0.00  0.00    +0.000 C 
ATOM      3  C   UNL     1       1.008   9.371  20.056  0.00  0.00    +0.000 A 
ATOM      4  C   UNL     1       1.144   9.507  18.672  0.00  0.00    +0.000 A 
ATOM      5  C   UNL     1       0.146  10.008  17.856  0.00  0.00    +0.000 A 
ATOM      6  C   UNL     1      -1.054  10.364  18.470  0.00  0.00    +0.000 A 
ATOM      7  C   UNL     1      -1.214  10.222  19.868  0.00  0.00    +0.000 A 
ATOM      8  C   UNL     1      -0.180   9.718  20.689  0.00  0.00    +0.000 A 
ATOM      9  C   UNL     1       2.265   8.641  18.240  0.00  0.00    +0.000 C 
ATOM     10  O   UNL     1       2.626   8.530  17.081  0.00  0.00    +0.000 OA
ENDROOT
BRANCH   1  15
ATOM     11  C   UNL     1       2.583   4.215  18.822  0.00  0.00    +0.000 A 
ATOM     12  C   UNL     1       2.162   3.860  20.115  0.00  0.00    +0.000 A 
ATOM     13  C   UNL     1       1.519   4.765  20.964  0.00  0.00    +0.000 A 
ATOM     14  C   UNL     1       1.376   6.090  20.586  0.00  0.00    +0.000 A 
ATOM     15  C   UNL     1       1.986   6.520  19.404  0.00  0.00    +0.000 A 
ATOM     16  C   UNL     1       2.419   5.565  18.469  0.00  0.00    +0.000 A 
BRANCH  11  18
ATOM     17  C   UNL     1       2.469   2.033  17.669  0.00  0.00    +0.000 C 
ATOM     18  N   UNL     1       3.167   3.286  17.958  0.00  0.00    +0.000 N 
BRANCH  18  19
ATOM     19  C   UNL     1       4.113   3.738  16.920  0.00  0.00    +0.000 C 
BRANCH  19  20
ATOM     20  C   UNL     1       5.521   4.049  17.341  0.00  0.00    +0.000 A 
ATOM     21  N   UNL     1       5.971   4.227  18.570  0.00  0.00    +0.000 NA
ATOM     22  N   UNL     1       7.299   4.587  18.500  0.00  0.00    +0.000 NA
ATOM     23  C   UNL     1       7.632   4.621  17.236  0.00  0.00    +0.000 A 
ATOM     24  N   UNL     1       6.552   4.302  16.469  0.00  0.00    +0.000 N 
ATOM     25  C   UNL     1       6.515   4.287  15.034  0.00  0.00    +0.000 C 
ENDBRANCH  19  20
ENDBRANCH  18  19
ENDBRANCH  11  18
ENDBRANCH   1  15
BRANCH   8  26
ATOM     26  C   UNL     1      -0.460   9.460  22.149  0.00  0.00    +0.000 C 
ATOM     27  F   UNL     1      -1.339  10.331  22.699  0.00  0.00    +0.000 F 
ATOM     28  F   UNL     1      -0.984   8.218  22.346  0.00  0.00    +0.000 F 
ATOM     29  F   UNL     1       0.681   9.505  22.887  0.00  0.00    +0.000 F 
ENDBRANCH   8  26
BRANCH   6  30
ATOM     30  C   UNL     1      -2.238  10.795  17.698  0.00  0.00    +0.000 C 
ATOM     31  N   UNL     1      -2.227  11.492  16.611  0.00  0.00    +0.000 NA
ATOM     32  H   UNL     1      -1.286  11.747  16.304  0.00  0.00    +0.000 HD
ENDBRANCH   6  30
TORSDOF 6
ENDMDL
MODEL 3
REMARK VINA RESULT:      -8.2      0.753      1.423
REMARK  Name = 
REMARK  8 active torsions:
REMARK  status: ('A' for Active; 'I' for Inactive)
REMARK    1  A    between atoms: C_1  and  N_2
REMARK    2  A    between atoms: N_2  and  C_3
REMARK    3  A    between atoms: N_2  and  C_10
REMARK    4  A    between atoms: C_3  and  C_4
REMARK    5  A    between atoms: N_8  and  C_9
REMARK    6  A    between atoms: C_14  and  N_15
REMARK    7  A    between atoms: C_20  and  C_21
REMARK    8  A    between atoms: C_24  and  C_25
REMARK                            x       y       z     vdW  Elec       q    Type
REMARK                         _______ _______ _______ _____ _____    ______ ____
ROOT
ATOM      1  N   UNL     1       3.903   4.964  19.166  0.00  0.00    +0.000 N 
ATOM      2  C   UNL     1       5.272   5.521  19.328  0.00  0.00    +0.000 C 
ATOM      3  C   UNL     1       5.881   5.242  17.988  0.00  0.00    +0.000 A 
ATOM      4  C   UNL     1       5.227   4.129  17.453  0.00  0.00    +0.000 A 
ATOM      5  C   UNL     1       5.426   3.679  16.160  0.00  0.00    +0.000 A 
ATOM      6  C   UNL     1       6.310   4.407  15.366  0.00  0.00    +0.000 A 
ATOM      7  C   UNL     1       6.973   5.543  15.886  0.00  0.00    +0.000 A 
ATOM      8  C   UNL     1       6.766   5.983  17.212  0.00  0.00    +0.000 A 
ATOM      9  C   UNL     1       4.040   3.854  18.295  0.00  0.00    +0.000 C 
ATOM     10  O   UNL     1       3.253   2.949  18.079  0.00  0.00    +0.000 OA
ENDROOT
BRANCH   1  15
ATOM     11  C   UNL     1       1.826   7.936  19.698  0.00  0.00    +0.000 A 
ATOM     12  C   UNL     1       2.341   8.689  18.629  0.00  0.00    +0.000 A 
ATOM     13  C   UNL     1       3.011   8.097  17.555  0.00  0.00    +0.000 A 
ATOM     14  C   UNL     1       3.286   6.740  17.572  0.00  0.00    +0.000 A 
ATOM     15  C   UNL     1       2.987   6.008  18.724  0.00  0.00    +0.000 A 
ATOM     16  C   UNL     1       2.119   6.561  19.681  0.00  0.00    +0.000 A 
BRANCH  11  18
ATOM     17  C   UNL     1       1.744   8.740  22.032  0.00  0.00    +0.000 C 
ATOM     18  N   UNL     1       1.102   8.529  20.734  0.00  0.00    +0.000 N 
BRANCH  18  19
ATOM     19  C   UNL     1      -0.016   9.441  20.425  0.00  0.00    +0.000 C 
BRANCH  19  20
ATOM     20  C   UNL     1       0.193  10.910  20.653  0.00  0.00    +0.000 A 
ATOM     21  N   UNL     1       0.943  11.734  19.944  0.00  0.00    +0.000 NA
ATOM     22  N   UNL     1       0.929  12.970  20.552  0.00  0.00    +0.000 NA
ATOM     23  C   UNL     1       0.175  12.877  21.615  0.00  0.00    +0.000 A 
ATOM     24  N   UNL     1      -0.302  11.606  21.729  0.00  0.00    +0.000 N 
ATOM     25  C   UNL     1      -1.119  11.107  22.799  0.00  0.00    +0.000 C 
ENDBRANCH  19  20
ENDBRANCH  18  19
ENDBRANCH  11  18
ENDBRANCH   1  15
BRANCH   8  26
ATOM     26  C   UNL     1       7.393   7.281  17.663  0.00  0.00    +0.000 C 
ATOM     27  F   UNL     1       8.242   7.820  16.757  0.00  0.00    +0.000 F 
ATOM     28  F   UNL     1       6.451   8.232  17.913  0.00  0.00    +0.000 F 
ATOM     29  F   UNL     1       8.079   7.120  18.826  0.00  0.00    +0.000 F 
ENDBRANCH   8  26
BRANCH   6  30
ATOM     30  C   UNL     1       6.517   4.106  13.934  0.00  0.00    +0.000 C 
ATOM     31  N   UNL     1       5.784   3.331  13.205  0.00  0.00    +0.000 NA
ATOM     32  H   UNL     1       5.006   2.910  13.717  0.00  0.00    +0.000 HD
ENDBRANCH   6  30
TORSDOF 6
ENDMDL
MODEL 4
REMARK VINA RESULT:      -8.0      1.068      1.543
REMARK  Name = 
REMARK  8 active torsions:
REMARK  status: ('A' for Active; 'I' for Inactive)
REMARK    1  A    between atoms: C_1  and  N_2
REMARK    2  A    between atoms: N_2  and  C_3
REMARK    3  A    between atoms: N_2  and  C_10
REMARK    4  A    between atoms: C_3  and  C_4
REMARK    5  A    between atoms: N_8  and  C_9
REMARK    6  A    between atoms: C_14  and  N_15
REMARK    7  A    between atoms: C_20  and  C_21
REMARK    8  A    between atoms: C_24  and  C_25
REMARK                            x       y       z     vdW  Elec       q    Type
REMARK                         _______ _______ _______ _____ _____    ______ ____
ROOT
ATOM      1  N   UNL     1       3.822   4.934  19.159  0.00  0.00    +0.000 N 
ATOM      2  C   UNL     1       5.202   5.465  19.317  0.00  0.00    +0.000 C 
ATOM      3  C   UNL     1       5.788   5.210  17.961  0.00  0.00    +0.000 A 
ATOM      4  C   UNL     1       5.109   4.121  17.408  0.00  0.00    +0.000 A 
ATOM      5  C   UNL     1       5.283   3.701  16.101  0.00  0.00    +0.000 A 
ATOM      6  C   UNL     1       6.168   4.436  15.313  0.00  0.00    +0.000 A 
ATOM      7  C   UNL     1       6.856   5.547  15.853  0.00  0.00    +0.000 A 
ATOM      8  C   UNL     1       6.675   5.956  17.192  0.00  0.00    +0.000 A 
ATOM      9  C   UNL     1       3.929   3.845  18.258  0.00  0.00    +0.000 C 
ATOM     10  O   UNL     1       3.124   2.958  18.031  0.00  0.00    +0.000 OA
ENDROOT
BRANCH   1  15
ATOM     11  C   UNL     1       1.783   7.910  19.800  0.00  0.00    +0.000 A 
ATOM     12  C   UNL     1       2.303   8.694  18.756  0.00  0.00    +0.000 A 
ATOM     13  C   UNL     1       2.963   8.131  17.659  0.00  0.00    +0.000 A 
ATOM     14  C   UNL     1       3.222   6.770  17.629  0.00  0.00    +0.000 A 
ATOM     15  C   UNL     1       2.917   6.003  18.757  0.00  0.00    +0.000 A 
ATOM     16  C   UNL     1       2.059   6.533  19.735  0.00  0.00    +0.000 A 
BRANCH  11  18
ATOM     17  C   UNL     1       1.771   8.826  22.094  0.00  0.00    +0.000 C 
ATOM     18  N   UNL     1       1.069   8.476  20.859  0.00  0.00    +0.000 N 
BRANCH  18  19
ATOM     19  C   UNL     1      -0.163   9.243  20.591  0.00  0.00    +0.000 C 
BRANCH  19  20
ATOM     20  C   UNL     1      -0.019  10.627  20.027  0.00  0.00    +0.000 A 
ATOM     21  N   UNL     1       0.526  11.680  20.611  0.00  0.00    +0.000 NA
ATOM     22  N   UNL     1       0.364  12.769  19.784  0.00  0.00    +0.000 NA
ATOM     23  C   UNL     1      -0.272  12.363  18.716  0.00  0.00    +0.000 A 
ATOM     24  N   UNL     1      -0.544  11.032  18.825  0.00  0.00    +0.000 N 
ATOM     25  C   UNL     1      -1.278  10.244  17.875  0.00  0.00    +0.000 C 
ENDBRANCH  19  20
ENDBRANCH  18  19
ENDBRANCH  11  18
ENDBRANCH   1  15
BRANCH   8  26
ATOM     26  C   UNL     1       7.329   7.232  17.667  0.00  0.00    +0.000 C 
ATOM     27  F   UNL     1       8.212   7.753  16.783  0.00  0.00    +0.000 F 
ATOM     28  F   UNL     1       6.409   8.208  17.904  0.00  0.00    +0.000 F 
ATOM     29  F   UNL     1       7.984   7.043  18.843  0.00  0.00    +0.000 F 
ENDBRANCH   8  26
BRANCH   6  30
ATOM     30  C   UNL     1       6.350   4.167  13.871  0.00  0.00    +0.000 C 
ATOM     31  N   UNL     1       6.178   3.032  13.280  0.00  0.00    +0.000 NA
ATOM     32  H   UNL     1       5.895   2.283  13.916  0.00  0.00    +0.000 HD
ENDBRANCH   6  30
TORSDOF 6
ENDMDL
MODEL 5
REMARK VINA RESULT:      -8.0      3.469      8.618
REMARK  Name = 
REMARK  8 active torsions:
REMARK  status: ('A' for Active; 'I' for Inactive)
REMARK    1  A    between atoms: C_1  and  N_2
REMARK    2  A    between atoms: N_2  and  C_3
REMARK    3  A    between atoms: N_2  and  C_10
REMARK    4  A    between atoms: C_3  and  C_4
REMARK    5  A    between atoms: N_8  and  C_9
REMARK    6  A    between atoms: C_14  and  N_15
REMARK    7  A    between atoms: C_20  and  C_21
REMARK    8  A    between atoms: C_24  and  C_25
REMARK                            x       y       z     vdW  Elec       q    Type
REMARK                         _______ _______ _______ _____ _____    ______ ____
ROOT
ATOM      1  N   UNL     1       0.766   8.317  21.144  0.00  0.00    +0.000 N 
ATOM      2  C   UNL     1      -0.494   8.596  20.407  0.00  0.00    +0.000 C 
ATOM      3  C   UNL     1      -0.394  10.073  20.171  0.00  0.00    +0.000 A 
ATOM      4  C   UNL     1       0.400  10.608  21.189  0.00  0.00    +0.000 A 
ATOM      5  C   UNL     1       0.831  11.922  21.205  0.00  0.00    +0.000 A 
ATOM      6  C   UNL     1       0.459  12.723  20.126  0.00  0.00    +0.000 A 
ATOM      7  C   UNL     1      -0.335  12.196  19.081  0.00  0.00    +0.000 A 
ATOM      8  C   UNL     1      -0.776  10.854  19.085  0.00  0.00    +0.000 A 
ATOM      9  C   UNL     1       1.029   9.479  21.912  0.00  0.00    +0.000 C 
ATOM     10  O   UNL     1       1.794   9.620  22.850  0.00  0.00    +0.000 OA
ENDROOT
BRANCH   1  15
ATOM     11  C   UNL     1       2.690   5.852  19.233  0.00  0.00    +0.000 A 
ATOM     12  C   UNL     1       2.564   6.480  17.981  0.00  0.00    +0.000 A 
ATOM     13  C   UNL     1       2.238   7.834  17.856  0.00  0.00    +0.000 A 
ATOM     14  C   UNL     1       1.918   8.577  18.980  0.00  0.00    +0.000 A 
ATOM     15  C   UNL     1       1.815   7.923  20.211  0.00  0.00    +0.000 A 
ATOM     16  C   UNL     1       2.363   6.637  20.352  0.00  0.00    +0.000 A 
BRANCH  11  18
ATOM     17  C   UNL     1       2.283   3.604  20.171  0.00  0.00    +0.000 C 
ATOM     18  N   UNL     1       3.079   4.516  19.349  0.00  0.00    +0.000 N 
BRANCH  18  19
ATOM     19  C   UNL     1       3.861   3.879  18.272  0.00  0.00    +0.000 C 
BRANCH  19  20
ATOM     20  C   UNL     1       5.327   4.192  18.191  0.00  0.00    +0.000 A 
ATOM     21  N   UNL     1       6.146   4.470  19.189  0.00  0.00    +0.000 NA
ATOM     22  N   UNL     1       7.380   4.789  18.666  0.00  0.00    +0.000 NA
ATOM     23  C   UNL     1       7.291   4.698  17.365  0.00  0.00    +0.000 A 
ATOM     24  N   UNL     1       6.024   4.338  17.016  0.00  0.00    +0.000 N 
ATOM     25  C   UNL     1       5.530   4.193  15.676  0.00  0.00    +0.000 C 
ENDBRANCH  19  20
ENDBRANCH  18  19
ENDBRANCH  11  18
ENDBRANCH   1  15
BRANCH   8  26
ATOM     26  C   UNL     1      -1.500  10.314  17.876  0.00  0.00    +0.000 C 
ATOM     27  F   UNL     1      -0.759   9.457  17.134  0.00  0.00    +0.000 F 
ATOM     28  F   UNL     1      -2.626   9.633  18.230  0.00  0.00    +0.000 F 
ATOM     29  F   UNL     1      -1.913  11.318  17.058  0.00  0.00    +0.000 F 
ENDBRANCH   8  26
BRANCH   6  30
ATOM     30  C   UNL     1       0.955  14.106  19.962  0.00  0.00    +0.000 C 
ATOM     31  N   UNL     1       0.536  14.968  19.096  0.00  0.00    +0.000 NA
ATOM     32  H   UNL     1      -0.204  14.607  18.490  0.00  0.00    +0.000 HD
ENDBRANCH   6  30
TORSDOF 6
ENDMDL
MODEL 6
REMARK VINA RESULT:      -8.0      1.034      1.504
REMARK  Name = 
REMARK  8 active torsions:
REMARK  status: ('A' for Active; 'I' for Inactive)
REMARK    1  A    between atoms: C_1  and  N_2
REMARK    2  A    between atoms: N_2  and  C_3
REMARK    3  A    between atoms: N_2  and  C_10
REMARK    4  A    between atoms: C_3  and  C_4
REMARK    5  A    between atoms: N_8  and  C_9
REMARK    6  A    between atoms: C_14  and  N_15
REMARK    7  A    between atoms: C_20  and  C_21
REMARK    8  A    between atoms: C_24  and  C_25
REMARK                            x       y       z     vdW  Elec       q    Type
REMARK                         _______ _______ _______ _____ _____    ______ ____
ROOT
ATOM      1  N   UNL     1       3.816   5.035  19.064  0.00  0.00    +0.000 N 
ATOM      2  C   UNL     1       5.192   5.556  19.275  0.00  0.00    +0.000 C 
ATOM      3  C   UNL     1       5.849   5.238  17.966  0.00  0.00    +0.000 A 
ATOM      4  C   UNL     1       5.186   4.134  17.422  0.00  0.00    +0.000 A 
ATOM      5  C   UNL     1       5.427   3.657  16.146  0.00  0.00    +0.000 A 
ATOM      6  C   UNL     1       6.364   4.347  15.378  0.00  0.00    +0.000 A 
ATOM      7  C   UNL     1       7.036   5.473  15.909  0.00  0.00    +0.000 A 
ATOM      8  C   UNL     1       6.786   5.940  17.218  0.00  0.00    +0.000 A 
ATOM      9  C   UNL     1       3.957   3.907  18.216  0.00  0.00    +0.000 C 
ATOM     10  O   UNL     1       3.155   3.020  17.981  0.00  0.00    +0.000 OA
ENDROOT
BRANCH   1  15
ATOM     11  C   UNL     1       1.876   8.121  19.439  0.00  0.00    +0.000 A 
ATOM     12  C   UNL     1       2.426   8.796  18.336  0.00  0.00    +0.000 A 
ATOM     13  C   UNL     1       3.071   8.121  17.295  0.00  0.00    +0.000 A 
ATOM     14  C   UNL     1       3.284   6.755  17.381  0.00  0.00    +0.000 A 
ATOM     15  C   UNL     1       2.949   6.096  18.567  0.00  0.00    +0.000 A 
ATOM     16  C   UNL     1       2.106   6.735  19.491  0.00  0.00    +0.000 A 
BRANCH  11  18
ATOM     17  C   UNL     1       1.072   8.201  21.773  0.00  0.00    +0.000 C 
ATOM     18  N   UNL     1       1.178   8.797  20.441  0.00  0.00    +0.000 N 
BRANCH  18  19
ATOM     19  C   UNL     1       1.061  10.268  20.395  0.00  0.00    +0.000 C 
BRANCH  19  20
ATOM     20  C   UNL     1      -0.247  10.854  19.949  0.00  0.00    +0.000 A 
ATOM     21  N   UNL     1      -0.774  10.814  18.738  0.00  0.00    +0.000 NA
ATOM     22  N   UNL     1      -1.935  11.555  18.743  0.00  0.00    +0.000 NA
ATOM     23  C   UNL     1      -2.093  12.032  19.950  0.00  0.00    +0.000 A 
ATOM     24  N   UNL     1      -1.058  11.630  20.740  0.00  0.00    +0.000 N 
ATOM     25  C   UNL     1      -0.856  12.000  22.113  0.00  0.00    +0.000 C 
ENDBRANCH  19  20
ENDBRANCH  18  19
ENDBRANCH  11  18
ENDBRANCH   1  15
BRANCH   8  26
ATOM     26  C   UNL     1       7.431   7.228  17.674  0.00  0.00    +0.000 C 
ATOM     27  F   UNL     1       8.140   7.105  18.821  0.00  0.00    +0.000 F 
ATOM     28  F   UNL     1       8.298   7.711  16.742  0.00  0.00    +0.000 F 
ATOM     29  F   UNL     1       6.504   8.203  17.864  0.00  0.00    +0.000 F 
ENDBRANCH   8  26
BRANCH   6  30
ATOM     30  C   UNL     1       6.622   4.015  13.962  0.00  0.00    +0.000 C 
ATOM     31  N   UNL     1       5.850   3.327  13.187  0.00  0.00    +0.000 NA
ATOM     32  H   UNL     1       4.998   3.002  13.650  0.00  0.00    +0.000 HD
ENDBRANCH   6  30
TORSDOF 6
ENDMDL
MODEL 7
REMARK VINA RESULT:      -7.9      3.791      8.816
REMARK  Name = 
REMARK  8 active torsions:
REMARK  status: ('A' for Active; 'I' for Inactive)
REMARK    1  A    between atoms: C_1  and  N_2
REMARK    2  A    between atoms: N_2  and  C_3
REMARK    3  A    between atoms: N_2  and  C_10
REMARK    4  A    between atoms: C_3  and  C_4
REMARK    5  A    between atoms: N_8  and  C_9
REMARK    6  A    between atoms: C_14  and  N_15
REMARK    7  A    between atoms: C_20  and  C_21
REMARK    8  A    between atoms: C_24  and  C_25
REMARK                            x       y       z     vdW  Elec       q    Type
REMARK                         _______ _______ _______ _____ _____    ______ ____
ROOT
ATOM      1  N   UNL     1       0.089   9.202  20.862  0.00  0.00    +0.000 N 
ATOM      2  C   UNL     1      -1.107   9.224  19.980  0.00  0.00    +0.000 C 
ATOM      3  C   UNL     1      -1.165  10.665  19.571  0.00  0.00    +0.000 A 
ATOM      4  C   UNL     1      -0.559  11.413  20.585  0.00  0.00    +0.000 A 
ATOM      5  C   UNL     1      -0.297  12.767  20.477  0.00  0.00    +0.000 A 
ATOM      6  C   UNL     1      -0.644  13.385  19.277  0.00  0.00    +0.000 A 
ATOM      7  C   UNL     1      -1.247  12.641  18.236  0.00  0.00    +0.000 A 
ATOM      8  C   UNL     1      -1.518  11.261  18.366  0.00  0.00    +0.000 A 
ATOM      9  C   UNL     1       0.121  10.467  21.500  0.00  0.00    +0.000 C 
ATOM     10  O   UNL     1       0.755  10.814  22.481  0.00  0.00    +0.000 OA
ENDROOT
BRANCH   1  15
ATOM     11  C   UNL     1       2.492   6.821  19.451  0.00  0.00    +0.000 A 
ATOM     12  C   UNL     1       2.433   7.292  18.128  0.00  0.00    +0.000 A 
ATOM     13  C   UNL     1       1.965   8.572  17.813  0.00  0.00    +0.000 A 
ATOM     14  C   UNL     1       1.436   9.381  18.805  0.00  0.00    +0.000 A 
ATOM     15  C   UNL     1       1.275   8.852  20.089  0.00  0.00    +0.000 A 
ATOM     16  C   UNL     1       1.952   7.670  20.433  0.00  0.00    +0.000 A 
BRANCH  11  18
ATOM     17  C   UNL     1       2.322   4.708  20.719  0.00  0.00    +0.000 C 
ATOM     18  N   UNL     1       3.020   5.567  19.762  0.00  0.00    +0.000 N 
BRANCH  18  19
ATOM     19  C   UNL     1       3.872   4.862  18.784  0.00  0.00    +0.000 C 
BRANCH  19  20
ATOM     20  C   UNL     1       5.344   5.158  18.795  0.00  0.00    +0.000 A 
ATOM     21  N   UNL     1       6.193   4.972  19.790  0.00  0.00    +0.000 NA
ATOM     22  N   UNL     1       7.423   5.463  19.412  0.00  0.00    +0.000 NA
ATOM     23  C   UNL     1       7.302   5.937  18.199  0.00  0.00    +0.000 A 
ATOM     24  N   UNL     1       6.018   5.779  17.772  0.00  0.00    +0.000 N 
ATOM     25  C   UNL     1       5.489   6.225  16.514  0.00  0.00    +0.000 C 
ENDBRANCH  19  20
ENDBRANCH  18  19
ENDBRANCH  11  18
ENDBRANCH   1  15
BRANCH   8  26
ATOM     26  C   UNL     1      -2.033  10.497  17.171  0.00  0.00    +0.000 C 
ATOM     27  F   UNL     1      -3.191   9.835  17.404  0.00  0.00    +0.000 F 
ATOM     28  F   UNL     1      -2.275  11.322  16.115  0.00  0.00    +0.000 F 
ATOM     29  F   UNL     1      -1.120   9.589  16.734  0.00  0.00    +0.000 F 
ENDBRANCH   8  26
BRANCH   6  30
ATOM     30  C   UNL     1      -0.307  14.794  18.989  0.00  0.00    +0.000 C 
ATOM     31  N   UNL     1      -1.092  15.810  19.134  0.00  0.00    +0.000 NA
ATOM     32  H   UNL     1      -2.020  15.558  19.478  0.00  0.00    +0.000 HD
ENDBRANCH   6  30
TORSDOF 6
ENDMDL
MODEL 8
REMARK VINA RESULT:      -7.9      1.370      1.746
REMARK  Name = 
REMARK  8 active torsions:
REMARK  status: ('A' for Active; 'I' for Inactive)
REMARK    1  A    between atoms: C_1  and  N_2
REMARK    2  A    between atoms: N_2  and  C_3
REMARK    3  A    between atoms: N_2  and  C_10
REMARK    4  A    between atoms: C_3  and  C_4
REMARK    5  A    between atoms: N_8  and  C_9
REMARK    6  A    between atoms: C_14  and  N_15
REMARK    7  A    between atoms: C_20  and  C_21
REMARK    8  A    between atoms: C_24  and  C_25
REMARK                            x       y       z     vdW  Elec       q    Type
REMARK                         _______ _______ _______ _____ _____    ______ ____
ROOT
ATOM      1  N   UNL     1       3.847   5.045  19.017  0.00  0.00    +0.000 N 
ATOM      2  C   UNL     1       5.219   5.571  19.242  0.00  0.00    +0.000 C 
ATOM      3  C   UNL     1       5.886   5.267  17.934  0.00  0.00    +0.000 A 
ATOM      4  C   UNL     1       5.232   4.165  17.376  0.00  0.00    +0.000 A 
ATOM      5  C   UNL     1       5.483   3.700  16.098  0.00  0.00    +0.000 A 
ATOM      6  C   UNL     1       6.422   4.401  15.342  0.00  0.00    +0.000 A 
ATOM      7  C   UNL     1       7.085   5.525  15.887  0.00  0.00    +0.000 A 
ATOM      8  C   UNL     1       6.825   5.980  17.198  0.00  0.00    +0.000 A 
ATOM      9  C   UNL     1       3.999   3.925  18.161  0.00  0.00    +0.000 C 
ATOM     10  O   UNL     1       3.202   3.037  17.913  0.00  0.00    +0.000 OA
ENDROOT
BRANCH   1  15
ATOM     11  C   UNL     1       1.898   8.124  19.404  0.00  0.00    +0.000 A 
ATOM     12  C   UNL     1       2.449   8.806  18.306  0.00  0.00    +0.000 A 
ATOM     13  C   UNL     1       3.098   8.139  17.263  0.00  0.00    +0.000 A 
ATOM     14  C   UNL     1       3.314   6.773  17.342  0.00  0.00    +0.000 A 
ATOM     15  C   UNL     1       2.979   6.107  18.524  0.00  0.00    +0.000 A 
ATOM     16  C   UNL     1       2.131   6.738  19.450  0.00  0.00    +0.000 A 
BRANCH  11  18
ATOM     17  C   UNL     1       1.066   8.177  21.729  0.00  0.00    +0.000 C 
ATOM     18  N   UNL     1       1.196   8.793  20.409  0.00  0.00    +0.000 N 
BRANCH  18  19
ATOM     19  C   UNL     1       1.099  10.265  20.385  0.00  0.00    +0.000 C 
BRANCH  19  20
ATOM     20  C   UNL     1      -0.043  10.881  19.629  0.00  0.00    +0.000 A 
ATOM     21  N   UNL     1      -1.265  10.399  19.487  0.00  0.00    +0.000 NA
ATOM     22  N   UNL     1      -1.966  11.230  18.642  0.00  0.00    +0.000 NA
ATOM     23  C   UNL     1      -1.163  12.198  18.285  0.00  0.00    +0.000 A 
ATOM     24  N   UNL     1       0.055  12.020  18.869  0.00  0.00    +0.000 N 
ATOM     25  C   UNL     1       1.211  12.849  18.672  0.00  0.00    +0.000 C 
ENDBRANCH  19  20
ENDBRANCH  18  19
ENDBRANCH  11  18
ENDBRANCH   1  15
BRANCH   8  26
ATOM     26  C   UNL     1       7.460   7.266  17.670  0.00  0.00    +0.000 C 
ATOM     27  F   UNL     1       8.336   7.799  16.785  0.00  0.00    +0.000 F 
ATOM     28  F   UNL     1       6.526   8.229  17.905  0.00  0.00    +0.000 F 
ATOM     29  F   UNL     1       8.119   7.090  18.846  0.00  0.00    +0.000 F 
ENDBRANCH   8  26
BRANCH   6  30
ATOM     30  C   UNL     1       6.690   4.083  13.924  0.00  0.00    +0.000 C 
ATOM     31  N   UNL     1       6.131   3.144  13.235  0.00  0.00    +0.000 NA
ATOM     32  H   UNL     1       5.453   2.598  13.770  0.00  0.00    +0.000 HD
ENDBRANCH   6  30
TORSDOF 6
ENDMDL
MODEL 9
REMARK VINA RESULT:      -7.8      6.708      9.419
REMARK  Name = 
REMARK  8 active torsions:
REMARK  status: ('A' for Active; 'I' for Inactive)
REMARK    1  A    between atoms: C_1  and  N_2
REMARK    2  A    between atoms: N_2  and  C_3
REMARK    3  A    between atoms: N_2  and  C_10
REMARK    4  A    between atoms: C_3  and  C_4
REMARK    5  A    between atoms: N_8  and  C_9
REMARK    6  A    between atoms: C_14  and  N_15
REMARK    7  A    between atoms: C_20  and  C_21
REMARK    8  A    between atoms: C_24  and  C_25
REMARK                            x       y       z     vdW  Elec       q    Type
REMARK                         _______ _______ _______ _____ _____    ______ ____
ROOT
ATOM      1  N   UNL     1      -0.400  11.229  18.325  0.00  0.00    +0.000 N 
ATOM      2  C   UNL     1       0.308  10.403  19.339  0.00  0.00    +0.000 C 
ATOM      3  C   UNL     1      -0.035  11.114  20.612  0.00  0.00    +0.000 A 
ATOM      4  C   UNL     1      -0.279  12.453  20.293  0.00  0.00    +0.000 A 
ATOM      5  C   UNL     1      -0.770  13.374  21.201  0.00  0.00    +0.000 A 
ATOM      6  C   UNL     1      -1.050  12.909  22.485  0.00  0.00    +0.000 A 
ATOM      7  C   UNL     1      -0.821  11.555  22.823  0.00  0.00    +0.000 A 
ATOM      8  C   UNL     1      -0.308  10.630  21.887  0.00  0.00    +0.000 A 
ATOM      9  C   UNL     1      -0.364  12.558  18.818  0.00  0.00    +0.000 C 
ATOM     10  O   UNL     1      -0.584  13.600  18.226  0.00  0.00    +0.000 OA
ENDROOT
BRANCH   1  15
ATOM     11  C   UNL     1      -4.024  11.515  17.865  0.00  0.00    +0.000 A 
ATOM     12  C   UNL     1      -4.093  10.801  16.656  0.00  0.00    +0.000 A 
ATOM     13  C   UNL     1      -3.083   9.923  16.251  0.00  0.00    +0.000 A 
ATOM     14  C   UNL     1      -1.917   9.818  16.991  0.00  0.00    +0.000 A 
ATOM     15  C   UNL     1      -1.727  10.682  18.072  0.00  0.00    +0.000 A 
ATOM     16  C   UNL     1      -2.830  11.380  18.594  0.00  0.00    +0.000 A 
BRANCH  11  18
ATOM     17  C   UNL     1      -6.298  12.410  17.505  0.00  0.00    +0.000 C 
ATOM     18  N   UNL     1      -5.067  12.340  18.291  0.00  0.00    +0.000 N 
BRANCH  18  19
ATOM     19  C   UNL     1      -5.211  12.664  19.724  0.00  0.00    +0.000 C 
BRANCH  19  20
ATOM     20  C   UNL     1      -6.248  11.915  20.512  0.00  0.00    +0.000 A 
ATOM     21  N   UNL     1      -6.603  10.651  20.373  0.00  0.00    +0.000 NA
ATOM     22  N   UNL     1      -7.653  10.396  21.228  0.00  0.00    +0.000 NA
ATOM     23  C   UNL     1      -7.917  11.505  21.869  0.00  0.00    +0.000 A 
ATOM     24  N   UNL     1      -7.072  12.488  21.449  0.00  0.00    +0.000 N 
ATOM     25  C   UNL     1      -7.093  13.857  21.883  0.00  0.00    +0.000 C 
ENDBRANCH  19  20
ENDBRANCH  18  19
ENDBRANCH  11  18
ENDBRANCH   1  15
BRANCH   8  26
ATOM     26  C   UNL     1      -0.218   9.172  22.267  0.00  0.00    +0.000 C 
ATOM     27  F   UNL     1      -0.914   8.350  21.446  0.00  0.00    +0.000 F 
ATOM     28  F   UNL     1       1.070   8.728  22.245  0.00  0.00    +0.000 F 
ATOM     29  F   UNL     1      -0.663   8.963  23.534  0.00  0.00    +0.000 F 
ENDBRANCH   8  26
BRANCH   6  30
ATOM     30  C   UNL     1      -1.692  13.758  23.509  0.00  0.00    +0.000 C 
ATOM     31  N   UNL     1      -1.994  15.008  23.383  0.00  0.00    +0.000 NA
ATOM     32  H   UNL     1      -1.738  15.396  22.473  0.00  0.00    +0.000 HD
ENDBRANCH   6  30
TORSDOF 6
ENDMDL
