MODEL 1
REMARK VINA RESULT:      -9.0      0.000      0.000
REMARK  Name = 
REMARK  5 active torsions:
REMARK  status: ('A' for Active; 'I' for Inactive)
REMARK    1  A    between atoms: C_1  and  C_2
REMARK    2  A    between atoms: C_4  and  C_5
REMARK    3  A    between atoms: C_14  and  C_15
REMARK    4  A    between atoms: C_15  and  C_16
REMARK    5  A    between atoms: N_18  and  C_19
REMARK                            x       y       z     vdW  Elec       q    Type
REMARK                         _______ _______ _______ _____ _____    ______ ____
ROOT
ATOM      1  C   UNL     1       5.868   6.747  15.897  0.00  0.00    +0.000 C 
ATOM      2  C   UNL     1       6.788   6.859  17.084  0.00  0.00    +0.000 A 
ATOM      3  N   UNL     1       7.310   8.124  17.249  0.00  0.00    +0.000 NA
ATOM      4  C   UNL     1       8.144   8.340  18.208  0.00  0.00    +0.000 A 
ATOM      5  N   UNL     1       8.528   7.344  19.070  0.00  0.00    +0.000 N 
ATOM      6  C   UNL     1       7.994   6.088  19.014  0.00  0.00    +0.000 A 
ATOM      7  O   UNL     1       8.271   5.229  19.846  0.00  0.00    +0.000 OA
ATOM      8  C   UNL     1       7.056   5.823  17.899  0.00  0.00    +0.000 A 
ATOM      9  H   UNL     1       9.202   7.497  19.802  0.00  0.00    +0.000 HD
ENDROOT
BRANCH   4  10
ATOM     10  C   UNL     1       8.693   9.706  18.410  0.00  0.00    +0.000 A 
ATOM     11  C   UNL     1       9.573  10.039  19.441  0.00  0.00    +0.000 A 
ATOM     12  C   UNL     1       9.958  11.372  19.611  0.00  0.00    +0.000 A 
ATOM     13  C   UNL     1       9.460  12.324  18.737  0.00  0.00    +0.000 A 
ATOM     14  N   UNL     1       8.622  12.038  17.721  0.00  0.00    +0.000 NA
ATOM     15  C   UNL     1       8.250  10.737  17.586  0.00  0.00    +0.000 A 
ENDBRANCH   4  10
BRANCH   8  16
ATOM     16  C   UNL     1       6.602   4.399  17.731  0.00  0.00    +0.000 C 
BRANCH  16  17
ATOM     17  C   UNL     1       5.086   4.240  17.731  0.00  0.00    +0.000 C 
ATOM     18  O   UNL     1       4.524   3.495  16.931  0.00  0.00    +0.000 OA
ATOM     19  N   UNL     1       4.403   4.953  18.687  0.00  0.00    +0.000 N 
ATOM     20  H   UNL     1       4.922   5.527  19.347  0.00  0.00    +0.000 HD
BRANCH  19  21
ATOM     21  C   UNL     1       2.957   4.886  18.799  0.00  0.00    +0.000 C 
ATOM     22  C   UNL     1       2.491   4.223  20.116  0.00  0.00    +0.000 C 
ATOM     23  C   UNL     1       1.957   5.314  21.063  0.00  0.00    +0.000 C 
ATOM     24  C   UNL     1       1.919   6.529  20.200  0.00  0.00    +0.000 A 
ATOM     25  C   UNL     1       1.506   7.800  20.545  0.00  0.00    +0.000 A 
ATOM     26  F   UNL     1       1.115   8.072  21.797  0.00  0.00    +0.000 F 
ATOM     27  C   UNL     1       1.519   8.812  19.589  0.00  0.00    +0.000 A 
ATOM     28  C   UNL     1       1.920   8.530  18.274  0.00  0.00    +0.000 A 
ATOM     29  C   UNL     1       2.360   7.250  17.931  0.00  0.00    +0.000 A 
ATOM     30  C   UNL     1       2.386   6.267  18.913  0.00  0.00    +0.000 A 
ENDBRANCH  19  21
ENDBRANCH  16  17
ENDBRANCH   8  16
TORSDOF 4
ENDMDL
MODEL 2
REMARK VINA RESULT:      -8.3      0.964      1.602
REMARK  Name = 
REMARK  5 active torsions:
REMARK  status: ('A' for Active; 'I' for Inactive)
REMARK    1  A    between atoms: C_1  and  C_2
REMARK    2  A    between atoms: C_4  and  C_5
REMARK    3  A    between atoms: C_14  and  C_15
REMARK    4  A    between atoms: C_15  and  C_16
REMARK    5  A    between atoms: N_18  and  C_19
REMARK                            x       y       z     vdW  Elec       q    Type
REMARK                         _______ _______ _______ _____ _____    ______ ____
ROOT
ATOM      1  C   UNL     1       8.350   5.207  20.058  0.00  0.00    +0.000 C 
ATOM      2  C   UNL     1       7.981   6.103  18.905  0.00  0.00    +0.000 A 
ATOM      3  N   UNL     1       8.404   7.405  19.072  0.00  0.00    +0.000 NA
ATOM      4  C   UNL     1       8.115   8.280  18.171  0.00  0.00    +0.000 A 
ATOM      5  N   UNL     1       7.396   7.954  17.050  0.00  0.00    +0.000 N 
ATOM      6  C   UNL     1       7.012   6.671  16.780  0.00  0.00    +0.000 A 
ATOM      7  O   UNL     1       6.452   6.369  15.731  0.00  0.00    +0.000 OA
ATOM      8  C   UNL     1       7.315   5.663  17.822  0.00  0.00    +0.000 A 
ATOM      9  H   UNL     1       7.140   8.638  16.357  0.00  0.00    +0.000 HD
ENDROOT
BRANCH   4  10
ATOM     10  C   UNL     1       8.589   9.680  18.330  0.00  0.00    +0.000 A 
ATOM     11  C   UNL     1       9.472  10.086  19.332  0.00  0.00    +0.000 A 
ATOM     12  C   UNL     1       9.783  11.442  19.465  0.00  0.00    +0.000 A 
ATOM     13  C   UNL     1       9.210  12.345  18.583  0.00  0.00    +0.000 A 
ATOM     14  N   UNL     1       8.367  11.988  17.594  0.00  0.00    +0.000 NA
ATOM     15  C   UNL     1       8.068  10.665  17.496  0.00  0.00    +0.000 A 
ENDBRANCH   4  10
BRANCH   8  16
ATOM     16  C   UNL     1       6.742   4.288  17.611  0.00  0.00    +0.000 C 
BRANCH  16  17
ATOM     17  C   UNL     1       5.221   4.274  17.501  0.00  0.00    +0.000 C 
ATOM     18  O   UNL     1       4.661   3.905  16.471  0.00  0.00    +0.000 OA
ATOM     19  N   UNL     1       4.531   4.667  18.622  0.00  0.00    +0.000 N 
ATOM     20  H   UNL     1       5.045   4.929  19.459  0.00  0.00    +0.000 HD
BRANCH  19  21
ATOM     21  C   UNL     1       3.079   4.694  18.652  0.00  0.00    +0.000 C 
ATOM     22  C   UNL     1       2.498   4.050  19.933  0.00  0.00    +0.000 C 
ATOM     23  C   UNL     1       1.983   5.166  20.862  0.00  0.00    +0.000 C 
ATOM     24  C   UNL     1       2.071   6.387  20.013  0.00  0.00    +0.000 A 
ATOM     25  C   UNL     1       1.722   7.680  20.350  0.00  0.00    +0.000 A 
ATOM     26  F   UNL     1       1.279   7.966  21.581  0.00  0.00    +0.000 F 
ATOM     27  C   UNL     1       1.854   8.697  19.408  0.00  0.00    +0.000 A 
ATOM     28  C   UNL     1       2.309   8.401  18.115  0.00  0.00    +0.000 A 
ATOM     29  C   UNL     1       2.685   7.098  17.781  0.00  0.00    +0.000 A 
ATOM     30  C   UNL     1       2.592   6.108  18.751  0.00  0.00    +0.000 A 
ENDBRANCH  19  21
ENDBRANCH  16  17
ENDBRANCH   8  16
TORSDOF 4
ENDMDL
MODEL 3
REMARK VINA RESULT:      -8.2      1.332      1.877
REMARK  Name = 
REMARK  5 active torsions:
REMARK  status: ('A' for Active; 'I' for Inactive)
REMARK    1  A    between atoms: C_1  and  C_2
REMARK    2  A    between atoms: C_4  and  C_5
REMARK    3  A    between atoms: C_14  and  C_15
REMARK    4  A    between atoms: C_15  and  C_16
REMARK    5  A    between atoms: N_18  and  C_19
REMARK                            x       y       z     vdW  Elec       q    Type
REMARK                         _______ _______ _______ _____ _____    ______ ____
ROOT
ATOM      1  C   UNL     1       5.752   6.738  15.877  0.00  0.00    +0.000 C 
ATOM      2  C   UNL     1       6.708   6.833  17.037  0.00  0.00    +0.000 A 
ATOM      3  N   UNL     1       7.209   8.104  17.224  0.00  0.00    +0.000 NA
ATOM      4  C   UNL     1       8.070   8.308  18.162  0.00  0.00    +0.000 A 
ATOM      5  N   UNL     1       8.503   7.295  18.979  0.00  0.00    +0.000 N 
ATOM      6  C   UNL     1       7.993   6.030  18.902  0.00  0.00    +0.000 A 
ATOM      7  O   UNL     1       8.314   5.152  19.696  0.00  0.00    +0.000 OA
ATOM      8  C   UNL     1       7.024   5.779  17.810  0.00  0.00    +0.000 A 
ATOM      9  H   UNL     1       9.197   7.440  19.693  0.00  0.00    +0.000 HD
ENDROOT
BRANCH   4  10
ATOM     10  C   UNL     1       8.597   9.679  18.388  0.00  0.00    +0.000 A 
ATOM     11  C   UNL     1       9.412  10.022  19.468  0.00  0.00    +0.000 A 
ATOM     12  C   UNL     1       9.778  11.359  19.654  0.00  0.00    +0.000 A 
ATOM     13  C   UNL     1       9.327  12.304  18.746  0.00  0.00    +0.000 A 
ATOM     14  N   UNL     1       8.551  12.007  17.684  0.00  0.00    +0.000 NA
ATOM     15  C   UNL     1       8.197  10.703  17.534  0.00  0.00    +0.000 A 
ENDBRANCH   4  10
BRANCH   8  16
ATOM     16  C   UNL     1       6.594   4.351  17.612  0.00  0.00    +0.000 C 
BRANCH  16  17
ATOM     17  C   UNL     1       5.149   4.090  18.021  0.00  0.00    +0.000 C 
ATOM     18  O   UNL     1       4.822   4.036  19.204  0.00  0.00    +0.000 OA
ATOM     19  N   UNL     1       4.246   3.949  16.994  0.00  0.00    +0.000 N 
ATOM     20  H   UNL     1       4.565   4.038  16.033  0.00  0.00    +0.000 HD
BRANCH  19  21
ATOM     21  C   UNL     1       2.837   3.702  17.247  0.00  0.00    +0.000 C 
ATOM     22  C   UNL     1       2.563   2.260  17.734  0.00  0.00    +0.000 C 
ATOM     23  C   UNL     1       2.256   2.293  19.243  0.00  0.00    +0.000 C 
ATOM     24  C   UNL     1       2.140   3.749  19.537  0.00  0.00    +0.000 A 
ATOM     25  C   UNL     1       1.861   4.348  20.750  0.00  0.00    +0.000 A 
ATOM     26  F   UNL     1       1.700   3.607  21.854  0.00  0.00    +0.000 F 
ATOM     27  C   UNL     1       1.769   5.735  20.828  0.00  0.00    +0.000 A 
ATOM     28  C   UNL     1       1.928   6.515  19.673  0.00  0.00    +0.000 A 
ATOM     29  C   UNL     1       2.233   5.912  18.451  0.00  0.00    +0.000 A 
ATOM     30  C   UNL     1       2.370   4.529  18.406  0.00  0.00    +0.000 A 
ENDBRANCH  19  21
ENDBRANCH  16  17
ENDBRANCH   8  16
TORSDOF 4
ENDMDL
MODEL 4
REMARK VINA RESULT:      -7.7      3.659      6.429
REMARK  Name = 
REMARK  5 active torsions:
REMARK  status: ('A' for Active; 'I' for Inactive)
REMARK    1  A    between atoms: C_1  and  C_2
REMARK    2  A    between atoms: C_4  and  C_5
REMARK    3  A    between atoms: C_14  and  C_15
REMARK    4  A    between atoms: C_15  and  C_16
REMARK    5  A    between atoms: N_18  and  C_19
REMARK                            x       y       z     vdW  Elec       q    Type
REMARK                         _______ _______ _______ _____ _____    ______ ____
ROOT
ATOM      1  C   UNL     1       4.613   7.276  15.965  0.00  0.00    +0.000 C 
ATOM      2  C   UNL     1       5.522   6.091  15.765  0.00  0.00    +0.000 A 
ATOM      3  N   UNL     1       5.283   5.417  14.586  0.00  0.00    +0.000 NA
ATOM      4  C   UNL     1       5.970   4.360  14.317  0.00  0.00    +0.000 A 
ATOM      5  N   UNL     1       6.930   3.883  15.172  0.00  0.00    +0.000 N 
ATOM      6  C   UNL     1       7.273   4.541  16.319  0.00  0.00    +0.000 A 
ATOM      7  O   UNL     1       8.197   4.162  17.033  0.00  0.00    +0.000 OA
ATOM      8  C   UNL     1       6.472   5.742  16.651  0.00  0.00    +0.000 A 
ATOM      9  H   UNL     1       7.448   3.041  14.984  0.00  0.00    +0.000 HD
ENDROOT
BRANCH   4  10
ATOM     10  C   UNL     1       5.738   3.641  13.037  0.00  0.00    +0.000 A 
ATOM     11  C   UNL     1       4.513   3.635  12.367  0.00  0.00    +0.000 A 
ATOM     12  C   UNL     1       4.362   2.849  11.220  0.00  0.00    +0.000 A 
ATOM     13  C   UNL     1       5.444   2.107  10.776  0.00  0.00    +0.000 A 
ATOM     14  N   UNL     1       6.646   2.100  11.387  0.00  0.00    +0.000 NA
ATOM     15  C   UNL     1       6.763   2.860  12.509  0.00  0.00    +0.000 A 
ENDBRANCH   4  10
BRANCH   8  16
ATOM     16  C   UNL     1       6.727   6.367  17.995  0.00  0.00    +0.000 C 
BRANCH  16  17
ATOM     17  C   UNL     1       6.045   5.636  19.146  0.00  0.00    +0.000 C 
ATOM     18  O   UNL     1       6.696   5.161  20.074  0.00  0.00    +0.000 OA
ATOM     19  N   UNL     1       4.673   5.569  19.090  0.00  0.00    +0.000 N 
ATOM     20  H   UNL     1       4.182   6.010  18.317  0.00  0.00    +0.000 HD
BRANCH  19  21
ATOM     21  C   UNL     1       3.900   4.906  20.126  0.00  0.00    +0.000 C 
ATOM     22  C   UNL     1       2.585   5.649  20.454  0.00  0.00    +0.000 C 
ATOM     23  C   UNL     1       1.404   4.864  19.849  0.00  0.00    +0.000 C 
ATOM     24  C   UNL     1       2.036   3.595  19.391  0.00  0.00    +0.000 A 
ATOM     25  C   UNL     1       1.425   2.519  18.778  0.00  0.00    +0.000 A 
ATOM     26  F   UNL     1       0.118   2.553  18.488  0.00  0.00    +0.000 F 
ATOM     27  C   UNL     1       2.181   1.400  18.438  0.00  0.00    +0.000 A 
ATOM     28  C   UNL     1       3.548   1.356  18.747  0.00  0.00    +0.000 A 
ATOM     29  C   UNL     1       4.171   2.454  19.346  0.00  0.00    +0.000 A 
ATOM     30  C   UNL     1       3.409   3.580  19.631  0.00  0.00    +0.000 A 
ENDBRANCH  19  21
ENDBRANCH  16  17
ENDBRANCH   8  16
TORSDOF 4
ENDMDL
MODEL 5
REMARK VINA RESULT:      -7.7      4.702      8.420
REMARK  Name = 
REMARK  5 active torsions:
REMARK  status: ('A' for Active; 'I' for Inactive)
REMARK    1  A    between atoms: C_1  and  C_2
REMARK    2  A    between atoms: C_4  and  C_5
REMARK    3  A    between atoms: C_14  and  C_15
REMARK    4  A    between atoms: C_15  and  C_16
REMARK    5  A    between atoms: N_18  and  C_19
REMARK                            x       y       z     vdW  Elec       q    Type
REMARK                         _______ _______ _______ _____ _____    ______ ____
ROOT
ATOM      1  C   UNL     1      -0.408   9.395  21.773  0.00  0.00    +0.000 C 
ATOM      2  C   UNL     1      -0.213   9.528  20.285  0.00  0.00    +0.000 A 
ATOM      3  N   UNL     1      -1.343   9.966  19.627  0.00  0.00    +0.000 NA
ATOM      4  C   UNL     1      -1.316  10.083  18.343  0.00  0.00    +0.000 A 
ATOM      5  N   UNL     1      -0.195   9.782  17.613  0.00  0.00    +0.000 N 
ATOM      6  C   UNL     1       0.981   9.418  18.203  0.00  0.00    +0.000 A 
ATOM      7  O   UNL     1       2.007   9.242  17.552  0.00  0.00    +0.000 OA
ATOM      8  C   UNL     1       0.954   9.254  19.675  0.00  0.00    +0.000 A 
ATOM      9  H   UNL     1      -0.176   9.842  16.608  0.00  0.00    +0.000 HD
ENDROOT
BRANCH   4  10
ATOM     10  C   UNL     1      -2.520  10.579  17.627  0.00  0.00    +0.000 A 
ATOM     11  C   UNL     1      -2.746  10.373  16.264  0.00  0.00    +0.000 A 
ATOM     12  C   UNL     1      -3.858  10.962  15.656  0.00  0.00    +0.000 A 
ATOM     13  C   UNL     1      -4.714  11.726  16.434  0.00  0.00    +0.000 A 
ATOM     14  N   UNL     1      -4.537  11.933  17.754  0.00  0.00    +0.000 NA
ATOM     15  C   UNL     1      -3.440  11.363  18.318  0.00  0.00    +0.000 A 
ENDBRANCH   4  10
BRANCH   8  16
ATOM     16  C   UNL     1       2.194   8.686  20.309  0.00  0.00    +0.000 C 
BRANCH  16  17
ATOM     17  C   UNL     1       2.262   7.164  20.253  0.00  0.00    +0.000 C 
ATOM     18  O   UNL     1       1.441   6.468  20.845  0.00  0.00    +0.000 OA
ATOM     19  N   UNL     1       3.271   6.633  19.486  0.00  0.00    +0.000 N 
ATOM     20  H   UNL     1       3.902   7.256  18.989  0.00  0.00    +0.000 HD
BRANCH  19  21
ATOM     21  C   UNL     1       3.444   5.198  19.344  0.00  0.00    +0.000 C 
ATOM     22  C   UNL     1       2.364   4.553  18.446  0.00  0.00    +0.000 C 
ATOM     23  C   UNL     1       2.992   4.202  17.083  0.00  0.00    +0.000 C 
ATOM     24  C   UNL     1       4.446   4.441  17.304  0.00  0.00    +0.000 A 
ATOM     25  C   UNL     1       5.478   4.271  16.403  0.00  0.00    +0.000 A 
ATOM     26  F   UNL     1       5.227   3.886  15.145  0.00  0.00    +0.000 F 
ATOM     27  C   UNL     1       6.789   4.525  16.801  0.00  0.00    +0.000 A 
ATOM     28  C   UNL     1       7.057   4.921  18.120  0.00  0.00    +0.000 A 
ATOM     29  C   UNL     1       6.011   5.115  19.025  0.00  0.00    +0.000 A 
ATOM     30  C   UNL     1       4.708   4.904  18.593  0.00  0.00    +0.000 A 
ENDBRANCH  19  21
ENDBRANCH  16  17
ENDBRANCH   8  16
TORSDOF 4
ENDMDL
MODEL 6
REMARK VINA RESULT:      -7.7      4.573      6.562
REMARK  Name = 
REMARK  5 active torsions:
REMARK  status: ('A' for Active; 'I' for Inactive)
REMARK    1  A    between atoms: C_1  and  C_2
REMARK    2  A    between atoms: C_4  and  C_5
REMARK    3  A    between atoms: C_14  and  C_15
REMARK    4  A    between atoms: C_15  and  C_16
REMARK    5  A    between atoms: N_18  and  C_19
REMARK                            x       y       z     vdW  Elec       q    Type
REMARK                         _______ _______ _______ _____ _____    ______ ____
ROOT
ATOM      1  C   UNL     1       0.113  11.665  21.622  0.00  0.00    +0.000 C 
ATOM      2  C   UNL     1       0.892  11.671  20.333  0.00  0.00    +0.000 A 
ATOM      3  N   UNL     1       1.448  12.898  20.041  0.00  0.00    +0.000 NA
ATOM      4  C   UNL     1       2.108  13.044  18.943  0.00  0.00    +0.000 A 
ATOM      5  N   UNL     1       2.271  12.012  18.055  0.00  0.00    +0.000 N 
ATOM      6  C   UNL     1       1.815  10.751  18.314  0.00  0.00    +0.000 A 
ATOM      7  O   UNL     1       2.046   9.810  17.561  0.00  0.00    +0.000 OA
ATOM      8  C   UNL     1       1.033  10.579  19.560  0.00  0.00    +0.000 A 
ATOM      9  H   UNL     1       2.758  12.126  17.182  0.00  0.00    +0.000 HD
ENDROOT
BRANCH   4  10
ATOM     10  C   UNL     1       2.732  14.356  18.631  0.00  0.00    +0.000 A 
ATOM     11  C   UNL     1       2.011  15.548  18.528  0.00  0.00    +0.000 A 
ATOM     12  C   UNL     1       2.670  16.716  18.132  0.00  0.00    +0.000 A 
ATOM     13  C   UNL     1       4.029  16.655  17.866  0.00  0.00    +0.000 A 
ATOM     14  N   UNL     1       4.759  15.527  17.971  0.00  0.00    +0.000 NA
ATOM     15  C   UNL     1       4.093  14.402  18.342  0.00  0.00    +0.000 A 
ENDBRANCH   4  10
BRANCH   8  16
ATOM     16  C   UNL     1       0.382   9.238  19.763  0.00  0.00    +0.000 C 
BRANCH  16  17
ATOM     17  C   UNL     1       1.307   8.203  20.392  0.00  0.00    +0.000 C 
ATOM     18  O   UNL     1       1.542   8.209  21.598  0.00  0.00    +0.000 OA
ATOM     19  N   UNL     1       1.829   7.261  19.539  0.00  0.00    +0.000 N 
ATOM     20  H   UNL     1       1.573   7.281  18.555  0.00  0.00    +0.000 HD
BRANCH  19  21
ATOM     21  C   UNL     1       2.720   6.215  20.011  0.00  0.00    +0.000 C 
ATOM     22  C   UNL     1       1.962   5.045  20.681  0.00  0.00    +0.000 C 
ATOM     23  C   UNL     1       1.959   3.838  19.722  0.00  0.00    +0.000 C 
ATOM     24  C   UNL     1       2.891   4.260  18.638  0.00  0.00    +0.000 A 
ATOM     25  C   UNL     1       3.264   3.545  17.518  0.00  0.00    +0.000 A 
ATOM     26  F   UNL     1       2.743   2.334  17.278  0.00  0.00    +0.000 F 
ATOM     27  C   UNL     1       4.172   4.097  16.619  0.00  0.00    +0.000 A 
ATOM     28  C   UNL     1       4.728   5.361  16.870  0.00  0.00    +0.000 A 
ATOM     29  C   UNL     1       4.333   6.094  17.991  0.00  0.00    +0.000 A 
ATOM     30  C   UNL     1       3.388   5.545  18.848  0.00  0.00    +0.000 A 
ENDBRANCH  19  21
ENDBRANCH  16  17
ENDBRANCH   8  16
TORSDOF 4
ENDMDL
MODEL 7
REMARK VINA RESULT:      -7.6      5.595      8.897
REMARK  Name = 
REMARK  5 active torsions:
REMARK  status: ('A' for Active; 'I' for Inactive)
REMARK    1  A    between atoms: C_1  and  C_2
REMARK    2  A    between atoms: C_4  and  C_5
REMARK    3  A    between atoms: C_14  and  C_15
REMARK    4  A    between atoms: C_15  and  C_16
REMARK    5  A    between atoms: N_18  and  C_19
REMARK                            x       y       z     vdW  Elec       q    Type
REMARK                         _______ _______ _______ _____ _____    ______ ____
ROOT
ATOM      1  C   UNL     1       0.104   9.240  22.107  0.00  0.00    +0.000 C 
ATOM      2  C   UNL     1       0.801   8.892  20.818  0.00  0.00    +0.000 A 
ATOM      3  N   UNL     1       1.398   7.649  20.842  0.00  0.00    +0.000 NA
ATOM      4  C   UNL     1       2.062   7.250  19.811  0.00  0.00    +0.000 A 
ATOM      5  N   UNL     1       2.193   8.029  18.690  0.00  0.00    +0.000 N 
ATOM      6  C   UNL     1       1.566   9.236  18.566  0.00  0.00    +0.000 A 
ATOM      7  O   UNL     1       1.610   9.886  17.525  0.00  0.00    +0.000 OA
ATOM      8  C   UNL     1       0.824   9.716  19.755  0.00  0.00    +0.000 A 
ATOM      9  H   UNL     1       2.735   7.738  17.894  0.00  0.00    +0.000 HD
ENDROOT
BRANCH   4  10
ATOM     10  C   UNL     1       2.686   5.902  19.818  0.00  0.00    +0.000 A 
ATOM     11  C   UNL     1       2.119   4.792  20.447  0.00  0.00    +0.000 A 
ATOM     12  C   UNL     1       2.828   3.588  20.486  0.00  0.00    +0.000 A 
ATOM     13  C   UNL     1       4.074   3.531  19.883  0.00  0.00    +0.000 A 
ATOM     14  N   UNL     1       4.647   4.576  19.254  0.00  0.00    +0.000 NA
ATOM     15  C   UNL     1       3.944   5.740  19.243  0.00  0.00    +0.000 A 
ENDBRANCH   4  10
BRANCH   8  16
ATOM     16  C   UNL     1       0.281  11.116  19.685  0.00  0.00    +0.000 C 
BRANCH  16  17
ATOM     17  C   UNL     1       1.278  12.178  20.133  0.00  0.00    +0.000 C 
ATOM     18  O   UNL     1       1.687  12.218  21.292  0.00  0.00    +0.000 OA
ATOM     19  N   UNL     1       1.703  13.055  19.165  0.00  0.00    +0.000 N 
ATOM     20  H   UNL     1       1.359  12.955  18.213  0.00  0.00    +0.000 HD
BRANCH  19  21
ATOM     21  C   UNL     1       2.657  14.111  19.458  0.00  0.00    +0.000 C 
ATOM     22  C   UNL     1       3.880  14.089  18.513  0.00  0.00    +0.000 C 
ATOM     23  C   UNL     1       3.753  15.247  17.505  0.00  0.00    +0.000 C 
ATOM     24  C   UNL     1       2.597  16.030  18.027  0.00  0.00    +0.000 A 
ATOM     25  C   UNL     1       2.054  17.187  17.505  0.00  0.00    +0.000 A 
ATOM     26  F   UNL     1       2.538  17.717  16.374  0.00  0.00    +0.000 F 
ATOM     27  C   UNL     1       0.980  17.796  18.149  0.00  0.00    +0.000 A 
ATOM     28  C   UNL     1       0.475  17.250  19.339  0.00  0.00    +0.000 A 
ATOM     29  C   UNL     1       1.008  16.067  19.854  0.00  0.00    +0.000 A 
ATOM     30  C   UNL     1       2.047  15.449  19.168  0.00  0.00    +0.000 A 
ENDBRANCH  19  21
ENDBRANCH  16  17
ENDBRANCH   8  16
TORSDOF 4
ENDMDL
MODEL 8
REMARK VINA RESULT:      -7.6      5.466      8.676
REMARK  Name = 
REMARK  5 active torsions:
REMARK  status: ('A' for Active; 'I' for Inactive)
REMARK    1  A    between atoms: C_1  and  C_2
REMARK    2  A    between atoms: C_4  and  C_5
REMARK    3  A    between atoms: C_14  and  C_15
REMARK    4  A    between atoms: C_15  and  C_16
REMARK    5  A    between atoms: N_18  and  C_19
REMARK                            x       y       z     vdW  Elec       q    Type
REMARK                         _______ _______ _______ _____ _____    ______ ____
ROOT
ATOM      1  C   UNL     1       0.243   8.812  21.790  0.00  0.00    +0.000 C 
ATOM      2  C   UNL     1       0.999   8.619  20.502  0.00  0.00    +0.000 A 
ATOM      3  N   UNL     1       1.667   7.414  20.440  0.00  0.00    +0.000 NA
ATOM      4  C   UNL     1       2.384   7.146  19.403  0.00  0.00    +0.000 A 
ATOM      5  N   UNL     1       2.505   8.028  18.359  0.00  0.00    +0.000 N 
ATOM      6  C   UNL     1       1.812   9.204  18.318  0.00  0.00    +0.000 A 
ATOM      7  O   UNL     1       1.849   9.944  17.339  0.00  0.00    +0.000 OA
ATOM      8  C   UNL     1       1.006   9.534  19.516  0.00  0.00    +0.000 A 
ATOM      9  H   UNL     1       3.087   7.839  17.560  0.00  0.00    +0.000 HD
ENDROOT
BRANCH   4  10
ATOM     10  C   UNL     1       3.087   5.840  19.315  0.00  0.00    +0.000 A 
ATOM     11  C   UNL     1       4.477   5.710  19.325  0.00  0.00    +0.000 A 
ATOM     12  C   UNL     1       5.050   4.448  19.137  0.00  0.00    +0.000 A 
ATOM     13  C   UNL     1       4.213   3.358  18.959  0.00  0.00    +0.000 A 
ATOM     14  N   UNL     1       2.868   3.443  18.959  0.00  0.00    +0.000 NA
ATOM     15  C   UNL     1       2.335   4.683  19.128  0.00  0.00    +0.000 A 
ENDBRANCH   4  10
BRANCH   8  16
ATOM     16  C   UNL     1       0.384  10.903  19.548  0.00  0.00    +0.000 C 
BRANCH  16  17
ATOM     17  C   UNL     1       1.339  11.994  20.020  0.00  0.00    +0.000 C 
ATOM     18  O   UNL     1       1.628  12.117  21.208  0.00  0.00    +0.000 OA
ATOM     19  N   UNL     1       1.868  12.798  19.039  0.00  0.00    +0.000 N 
ATOM     20  H   UNL     1       1.622  12.629  18.067  0.00  0.00    +0.000 HD
BRANCH  19  21
ATOM     21  C   UNL     1       2.795  13.871  19.353  0.00  0.00    +0.000 C 
ATOM     22  C   UNL     1       3.911  14.023  18.293  0.00  0.00    +0.000 C 
ATOM     23  C   UNL     1       3.623  15.272  17.439  0.00  0.00    +0.000 C 
ATOM     24  C   UNL     1       2.492  15.925  18.158  0.00  0.00    +0.000 A 
ATOM     25  C   UNL     1       1.842  17.097  17.825  0.00  0.00    +0.000 A 
ATOM     26  F   UNL     1       2.178  17.771  16.718  0.00  0.00    +0.000 F 
ATOM     27  C   UNL     1       0.813  17.568  18.637  0.00  0.00    +0.000 A 
ATOM     28  C   UNL     1       0.464  16.870  19.803  0.00  0.00    +0.000 A 
ATOM     29  C   UNL     1       1.105  15.672  20.127  0.00  0.00    +0.000 A 
ATOM     30  C   UNL     1       2.095  15.194  19.276  0.00  0.00    +0.000 A 
ENDBRANCH  19  21
ENDBRANCH  16  17
ENDBRANCH   8  16
TORSDOF 4
ENDMDL
MODEL 9
REMARK VINA RESULT:      -7.6      4.051      6.864
REMARK  Name = 
REMARK  5 active torsions:
REMARK  status: ('A' for Active; 'I' for Inactive)
REMARK    1  A    between atoms: C_1  and  C_2
REMARK    2  A    between atoms: C_4  and  C_5
REMARK    3  A    between atoms: C_14  and  C_15
REMARK    4  A    between atoms: C_15  and  C_16
REMARK    5  A    between atoms: N_18  and  C_19
REMARK                            x       y       z     vdW  Elec       q    Type
REMARK                         _______ _______ _______ _____ _____    ______ ____
ROOT
ATOM      1  C   UNL     1       2.307   4.684  21.070  0.00  0.00    +0.000 C 
ATOM      2  C   UNL     1       2.572   5.678  19.970  0.00  0.00    +0.000 A 
ATOM      3  N   UNL     1       3.579   5.285  19.114  0.00  0.00    +0.000 NA
ATOM      4  C   UNL     1       3.928   6.070  18.152  0.00  0.00    +0.000 A 
ATOM      5  N   UNL     1       3.326   7.287  17.957  0.00  0.00    +0.000 N 
ATOM      6  C   UNL     1       2.272   7.706  18.716  0.00  0.00    +0.000 A 
ATOM      7  O   UNL     1       1.676   8.752  18.477  0.00  0.00    +0.000 OA
ATOM      8  C   UNL     1       1.880   6.825  19.841  0.00  0.00    +0.000 A 
ATOM      9  H   UNL     1       3.614   7.918  17.228  0.00  0.00    +0.000 HD
ENDROOT
BRANCH   4  10
ATOM     10  C   UNL     1       4.995   5.645  17.210  0.00  0.00    +0.000 A 
ATOM     11  C   UNL     1       4.958   4.448  16.492  0.00  0.00    +0.000 A 
ATOM     12  C   UNL     1       6.055   4.085  15.705  0.00  0.00    +0.000 A 
ATOM     13  C   UNL     1       7.146   4.938  15.651  0.00  0.00    +0.000 A 
ATOM     14  N   UNL     1       7.211   6.108  16.318  0.00  0.00    +0.000 NA
ATOM     15  C   UNL     1       6.138   6.430  17.089  0.00  0.00    +0.000 A 
ENDBRANCH   4  10
BRANCH   8  16
ATOM     16  C   UNL     1       0.838   7.363  20.782  0.00  0.00    +0.000 C 
BRANCH  16  17
ATOM     17  C   UNL     1       1.159   8.756  21.312  0.00  0.00    +0.000 C 
ATOM     18  O   UNL     1       2.042   8.931  22.148  0.00  0.00    +0.000 OA
ATOM     19  N   UNL     1       0.424   9.788  20.779  0.00  0.00    +0.000 N 
ATOM     20  H   UNL     1      -0.271   9.590  20.064  0.00  0.00    +0.000 HD
BRANCH  19  21
ATOM     21  C   UNL     1       0.634  11.165  21.193  0.00  0.00    +0.000 C 
ATOM     22  C   UNL     1       0.885  12.114  19.998  0.00  0.00    +0.000 C 
ATOM     23  C   UNL     1      -0.379  12.963  19.761  0.00  0.00    +0.000 C 
ATOM     24  C   UNL     1      -1.230  12.648  20.943  0.00  0.00    +0.000 A 
ATOM     25  C   UNL     1      -2.481  13.149  21.243  0.00  0.00    +0.000 A 
ATOM     26  F   UNL     1      -3.094  13.994  20.404  0.00  0.00    +0.000 F 
ATOM     27  C   UNL     1      -3.119  12.753  22.416  0.00  0.00    +0.000 A 
ATOM     28  C   UNL     1      -2.477  11.875  23.301  0.00  0.00    +0.000 A 
ATOM     29  C   UNL     1      -1.221  11.350  22.988  0.00  0.00    +0.000 A 
ATOM     30  C   UNL     1      -0.625  11.720  21.788  0.00  0.00    +0.000 A 
ENDBRANCH  19  21
ENDBRANCH  16  17
ENDBRANCH   8  16
TORSDOF 4
ENDMDL
