MODEL 1
REMARK VINA RESULT:      -8.0      0.000      0.000
REMARK  Name = 
REMARK  1 active torsions:
REMARK  status: ('A' for Active; 'I' for Inactive)
REMARK    1  A    between atoms: C_8  and  C_9
REMARK                            x       y       z     vdW  Elec       q    Type
REMARK                         _______ _______ _______ _____ _____    ______ ____
ROOT
ATOM      1  C   UNL     1      -2.931  11.516  17.555  0.00  0.00    +0.000 C 
ATOM      2  O   UNL     1      -2.521  11.501  16.392  0.00  0.00    +0.000 OA
ATOM      3  N   UNL     1      -4.310  11.549  17.871  0.00  0.00    +0.000 N 
ATOM      4  C   UNL     1      -5.255  11.526  16.767  0.00  0.00    +0.000 C 
ATOM      5  C   UNL     1      -6.369  12.516  17.022  0.00  0.00    +0.000 C 
ATOM      6  C   UNL     1      -7.160  12.216  18.293  0.00  0.00    +0.000 C 
ATOM      7  C   UNL     1      -6.428  11.351  19.377  0.00  0.00    +0.000 C 
ATOM      8  C   UNL     1      -6.905   9.868  19.226  0.00  0.00    +0.000 C 
ATOM      9  C   UNL     1      -7.880   9.291  20.242  0.00  0.00    +0.000 C 
ATOM     10  C   UNL     1      -7.917   9.914  21.625  0.00  0.00    +0.000 C 
ATOM     11  C   UNL     1      -7.499  11.343  21.729  0.00  0.00    +0.000 A 
ATOM     12  C   UNL     1      -7.821  12.026  22.920  0.00  0.00    +0.000 A 
ATOM     13  C   UNL     1      -7.429  13.345  23.136  0.00  0.00    +0.000 A 
ATOM     14  C   UNL     1      -6.690  14.002  22.167  0.00  0.00    +0.000 A 
ATOM     15  C   UNL     1      -6.359  13.335  20.987  0.00  0.00    +0.000 A 
ATOM     16  C   UNL     1      -6.762  11.997  20.736  0.00  0.00    +0.000 A 
ATOM     17  C   UNL     1      -4.860  11.328  19.213  0.00  0.00    +0.000 C 
ENDROOT
BRANCH   1  25
ATOM     18  O   UNL     1       0.953   9.607  23.781  0.00  0.00    +0.000 OA
ATOM     19  C   UNL     1       0.926   9.633  22.543  0.00  0.00    +0.000 C 
ATOM     20  C   UNL     1       1.453   8.443  21.779  0.00  0.00    +0.000 C 
ATOM     21  C   UNL     1       0.890   8.115  20.413  0.00  0.00    +0.000 C 
ATOM     22  C   UNL     1       1.093   9.244  19.437  0.00  0.00    +0.000 C 
ATOM     23  C   UNL     1       0.007  10.272  19.601  0.00  0.00    +0.000 A 
ATOM     24  C   UNL     1      -0.909  10.466  18.546  0.00  0.00    +0.000 A 
ATOM     25  C   UNL     1      -1.912  11.444  18.633  0.00  0.00    +0.000 A 
ATOM     26  C   UNL     1      -1.888  12.340  19.693  0.00  0.00    +0.000 A 
ATOM     27  C   UNL     1      -1.019  12.121  20.761  0.00  0.00    +0.000 A 
ATOM     28  C   UNL     1      -0.126  11.044  20.750  0.00  0.00    +0.000 A 
ATOM     29  N   UNL     1       0.517  10.799  21.978  0.00  0.00    +0.000 N 
ATOM     30  H   UNL     1       0.312  11.464  22.715  0.00  0.00    +0.000 HD
ENDBRANCH   1  25
TORSDOF 1
ENDMDL
MODEL 2
REMARK VINA RESULT:      -7.7      4.954      8.079
REMARK  Name = 
REMARK  1 active torsions:
REMARK  status: ('A' for Active; 'I' for Inactive)
REMARK    1  A    between atoms: C_8  and  C_9
REMARK                            x       y       z     vdW  Elec       q    Type
REMARK                         _______ _______ _______ _____ _____    ______ ____
ROOT
ATOM      1  C   UNL     1      -0.523  11.535  19.868  0.00  0.00    +0.000 C 
ATOM      2  O   UNL     1      -1.728  11.326  19.717  0.00  0.00    +0.000 OA
ATOM      3  N   UNL     1       0.026  12.838  19.853  0.00  0.00    +0.000 N 
ATOM      4  C   UNL     1      -0.891  13.955  19.688  0.00  0.00    +0.000 C 
ATOM      5  C   UNL     1      -0.307  14.962  18.723  0.00  0.00    +0.000 C 
ATOM      6  C   UNL     1       1.024  15.544  19.194  0.00  0.00    +0.000 C 
ATOM      7  C   UNL     1       1.829  14.683  20.229  0.00  0.00    +0.000 C 
ATOM      8  C   UNL     1       1.549  15.249  21.661  0.00  0.00    +0.000 C 
ATOM      9  C   UNL     1       2.623  16.067  22.364  0.00  0.00    +0.000 C 
ATOM     10  C   UNL     1       4.067  15.843  21.956  0.00  0.00    +0.000 C 
ATOM     11  C   UNL     1       4.304  15.347  20.568  0.00  0.00    +0.000 A 
ATOM     12  C   UNL     1       5.618  15.433  20.066  0.00  0.00    +0.000 A 
ATOM     13  C   UNL     1       5.953  14.949  18.804  0.00  0.00    +0.000 A 
ATOM     14  C   UNL     1       4.977  14.351  18.024  0.00  0.00    +0.000 A 
ATOM     15  C   UNL     1       3.674  14.254  18.513  0.00  0.00    +0.000 A 
ATOM     16  C   UNL     1       3.305  14.756  19.789  0.00  0.00    +0.000 A 
ATOM     17  C   UNL     1       1.397  13.167  20.261  0.00  0.00    +0.000 C 
ENDROOT
BRANCH   1  25
ATOM     18  O   UNL     1       2.189   4.472  20.380  0.00  0.00    +0.000 OA
ATOM     19  C   UNL     1       2.288   5.584  19.845  0.00  0.00    +0.000 C 
ATOM     20  C   UNL     1       2.592   5.656  18.367  0.00  0.00    +0.000 C 
ATOM     21  C   UNL     1       2.101   6.834  17.554  0.00  0.00    +0.000 C 
ATOM     22  C   UNL     1       2.656   8.138  18.064  0.00  0.00    +0.000 C 
ATOM     23  C   UNL     1       1.831   8.636  19.219  0.00  0.00    +0.000 A 
ATOM     24  C   UNL     1       1.092   9.827  19.062  0.00  0.00    +0.000 A 
ATOM     25  C   UNL     1       0.342  10.355  20.125  0.00  0.00    +0.000 A 
ATOM     26  C   UNL     1       0.474   9.792  21.387  0.00  0.00    +0.000 A 
ATOM     27  C   UNL     1       1.161   8.588  21.536  0.00  0.00    +0.000 A 
ATOM     28  C   UNL     1       1.773   7.971  20.439  0.00  0.00    +0.000 A 
ATOM     29  N   UNL     1       2.220   6.657  20.675  0.00  0.00    +0.000 N 
ATOM     30  H   UNL     1       2.107   6.325  21.627  0.00  0.00    +0.000 HD
ENDBRANCH   1  25
TORSDOF 1
ENDMDL
MODEL 3
REMARK VINA RESULT:      -7.5     10.691     13.379
REMARK  Name = 
REMARK  1 active torsions:
REMARK  status: ('A' for Active; 'I' for Inactive)
REMARK    1  A    between atoms: C_8  and  C_9
REMARK                            x       y       z     vdW  Elec       q    Type
REMARK                         _______ _______ _______ _____ _____    ______ ____
ROOT
ATOM      1  C   UNL     1       5.668  15.077  21.455  0.00  0.00    +0.000 C 
ATOM      2  O   UNL     1       4.530  15.511  21.648  0.00  0.00    +0.000 OA
ATOM      3  N   UNL     1       6.247  15.019  20.166  0.00  0.00    +0.000 N 
ATOM      4  C   UNL     1       5.464  15.529  19.051  0.00  0.00    +0.000 C 
ATOM      5  C   UNL     1       5.583  14.595  17.868  0.00  0.00    +0.000 C 
ATOM      6  C   UNL     1       7.017  14.435  17.370  0.00  0.00    +0.000 C 
ATOM      7  C   UNL     1       8.150  14.765  18.403  0.00  0.00    +0.000 C 
ATOM      8  C   UNL     1       8.656  16.221  18.129  0.00  0.00    +0.000 C 
ATOM      9  C   UNL     1      10.001  16.427  17.447  0.00  0.00    +0.000 C 
ATOM     10  C   UNL     1      11.036  15.324  17.568  0.00  0.00    +0.000 C 
ATOM     11  C   UNL     1      10.520  13.940  17.783  0.00  0.00    +0.000 A 
ATOM     12  C   UNL     1      11.422  12.875  17.583  0.00  0.00    +0.000 A 
ATOM     13  C   UNL     1      11.053  11.552  17.809  0.00  0.00    +0.000 A 
ATOM     14  C   UNL     1       9.774  11.269  18.259  0.00  0.00    +0.000 A 
ATOM     15  C   UNL     1       8.874  12.315  18.467  0.00  0.00    +0.000 A 
ATOM     16  C   UNL     1       9.221  13.670  18.226  0.00  0.00    +0.000 A 
ATOM     17  C   UNL     1       7.664  14.743  19.903  0.00  0.00    +0.000 C 
ENDROOT
BRANCH   1  25
ATOM     18  O   UNL     1       7.744  13.279  28.523  0.00  0.00    +0.000 OA
ATOM     19  C   UNL     1       7.557  12.882  27.365  0.00  0.00    +0.000 C 
ATOM     20  C   UNL     1       6.901  11.539  27.153  0.00  0.00    +0.000 C 
ATOM     21  C   UNL     1       6.081  11.289  25.907  0.00  0.00    +0.000 C 
ATOM     22  C   UNL     1       6.902  11.451  24.654  0.00  0.00    +0.000 C 
ATOM     23  C   UNL     1       6.979  12.903  24.270  0.00  0.00    +0.000 A 
ATOM     24  C   UNL     1       6.362  13.323  23.073  0.00  0.00    +0.000 A 
ATOM     25  C   UNL     1       6.445  14.659  22.650  0.00  0.00    +0.000 A 
ATOM     26  C   UNL     1       7.287  15.529  23.329  0.00  0.00    +0.000 A 
ATOM     27  C   UNL     1       7.857  15.134  24.538  0.00  0.00    +0.000 A 
ATOM     28  C   UNL     1       7.640  13.848  25.047  0.00  0.00    +0.000 A 
ATOM     29  N   UNL     1       8.067  13.660  26.375  0.00  0.00    +0.000 N 
ATOM     30  H   UNL     1       8.539  14.454  26.796  0.00  0.00    +0.000 HD
ENDBRANCH   1  25
TORSDOF 1
ENDMDL
MODEL 4
REMARK VINA RESULT:      -7.5      3.026      5.448
REMARK  Name = 
REMARK  1 active torsions:
REMARK  status: ('A' for Active; 'I' for Inactive)
REMARK    1  A    between atoms: C_8  and  C_9
REMARK                            x       y       z     vdW  Elec       q    Type
REMARK                         _______ _______ _______ _____ _____    ______ ____
ROOT
ATOM      1  C   UNL     1      -4.230  12.533  24.145  0.00  0.00    +0.000 C 
ATOM      2  O   UNL     1      -4.298  12.288  25.352  0.00  0.00    +0.000 OA
ATOM      3  N   UNL     1      -5.377  12.807  23.363  0.00  0.00    +0.000 N 
ATOM      4  C   UNL     1      -6.664  12.831  24.039  0.00  0.00    +0.000 C 
ATOM      5  C   UNL     1      -7.700  12.117  23.199  0.00  0.00    +0.000 C 
ATOM      6  C   UNL     1      -7.904  12.756  21.828  0.00  0.00    +0.000 C 
ATOM      7  C   UNL     1      -6.719  13.630  21.287  0.00  0.00    +0.000 C 
ATOM      8  C   UNL     1      -7.047  15.133  21.576  0.00  0.00    +0.000 C 
ATOM      9  C   UNL     1      -7.486  16.035  20.430  0.00  0.00    +0.000 C 
ATOM     10  C   UNL     1      -7.060  15.656  19.024  0.00  0.00    +0.000 C 
ATOM     11  C   UNL     1      -6.800  14.208  18.769  0.00  0.00    +0.000 A 
ATOM     12  C   UNL     1      -6.716  13.793  17.424  0.00  0.00    +0.000 A 
ATOM     13  C   UNL     1      -6.424  12.476  17.081  0.00  0.00    +0.000 A 
ATOM     14  C   UNL     1      -6.192  11.548  18.082  0.00  0.00    +0.000 A 
ATOM     15  C   UNL     1      -6.265  11.947  19.417  0.00  0.00    +0.000 A 
ATOM     16  C   UNL     1      -6.579  13.281  19.792  0.00  0.00    +0.000 A 
ATOM     17  C   UNL     1      -5.342  13.335  21.995  0.00  0.00    +0.000 C 
ENDROOT
BRANCH   1  25
ATOM     18  O   UNL     1       1.549  13.272  19.293  0.00  0.00    +0.000 OA
ATOM     19  C   UNL     1       0.975  13.716  20.296  0.00  0.00    +0.000 C 
ATOM     20  C   UNL     1       0.842  15.212  20.456  0.00  0.00    +0.000 C 
ATOM     21  C   UNL     1      -0.330  15.785  21.223  0.00  0.00    +0.000 C 
ATOM     22  C   UNL     1      -0.359  15.302  22.649  0.00  0.00    +0.000 C 
ATOM     23  C   UNL     1      -1.015  13.951  22.725  0.00  0.00    +0.000 A 
ATOM     24  C   UNL     1      -2.246  13.831  23.404  0.00  0.00    +0.000 A 
ATOM     25  C   UNL     1      -2.875  12.583  23.540  0.00  0.00    +0.000 A 
ATOM     26  C   UNL     1      -2.192  11.439  23.153  0.00  0.00    +0.000 A 
ATOM     27  C   UNL     1      -1.002  11.556  22.437  0.00  0.00    +0.000 A 
ATOM     28  C   UNL     1      -0.454  12.813  22.156  0.00  0.00    +0.000 A 
ATOM     29  N   UNL     1       0.607  12.801  21.230  0.00  0.00    +0.000 N 
ATOM     30  H   UNL     1       0.898  11.881  20.916  0.00  0.00    +0.000 HD
ENDBRANCH   1  25
TORSDOF 1
ENDMDL
MODEL 5
REMARK VINA RESULT:      -7.4      2.379      3.279
REMARK  Name = 
REMARK  1 active torsions:
REMARK  status: ('A' for Active; 'I' for Inactive)
REMARK    1  A    between atoms: C_8  and  C_9
REMARK                            x       y       z     vdW  Elec       q    Type
REMARK                         _______ _______ _______ _____ _____    ______ ____
ROOT
ATOM      1  C   UNL     1      -4.826  11.503  17.465  0.00  0.00    +0.000 C 
ATOM      2  O   UNL     1      -5.105  11.131  16.324  0.00  0.00    +0.000 OA
ATOM      3  N   UNL     1      -5.793  12.047  18.342  0.00  0.00    +0.000 N 
ATOM      4  C   UNL     1      -7.165  12.125  17.868  0.00  0.00    +0.000 C 
ATOM      5  C   UNL     1      -7.769  13.457  18.255  0.00  0.00    +0.000 C 
ATOM      6  C   UNL     1      -7.805  13.683  19.765  0.00  0.00    +0.000 C 
ATOM      7  C   UNL     1      -6.784  12.849  20.615  0.00  0.00    +0.000 C 
ATOM      8  C   UNL     1      -7.533  11.606  21.201  0.00  0.00    +0.000 C 
ATOM      9  C   UNL     1      -7.908  11.587  22.676  0.00  0.00    +0.000 C 
ATOM     10  C   UNL     1      -7.090  12.441  23.628  0.00  0.00    +0.000 C 
ATOM     11  C   UNL     1      -6.426  13.645  23.048  0.00  0.00    +0.000 A 
ATOM     12  C   UNL     1      -5.935  14.611  23.951  0.00  0.00    +0.000 A 
ATOM     13  C   UNL     1      -5.253  15.743  23.512  0.00  0.00    +0.000 A 
ATOM     14  C   UNL     1      -5.033  15.922  22.157  0.00  0.00    +0.000 A 
ATOM     15  C   UNL     1      -5.508  14.970  21.254  0.00  0.00    +0.000 A 
ATOM     16  C   UNL     1      -6.222  13.817  21.675  0.00  0.00    +0.000 A 
ATOM     17  C   UNL     1      -5.578  12.281  19.774  0.00  0.00    +0.000 C 
ENDROOT
BRANCH   1  25
ATOM     18  O   UNL     1       2.717  11.874  18.155  0.00  0.00    +0.000 OA
ATOM     19  C   UNL     1       1.615  12.127  18.662  0.00  0.00    +0.000 C 
ATOM     20  C   UNL     1       1.427  13.447  19.372  0.00  0.00    +0.000 C 
ATOM     21  C   UNL     1       0.057  14.085  19.423  0.00  0.00    +0.000 C 
ATOM     22  C   UNL     1      -0.950  13.200  20.110  0.00  0.00    +0.000 C 
ATOM     23  C   UNL     1      -1.496  12.187  19.142  0.00  0.00    +0.000 A 
ATOM     24  C   UNL     1      -2.858  12.257  18.782  0.00  0.00    +0.000 A 
ATOM     25  C   UNL     1      -3.424  11.308  17.916  0.00  0.00    +0.000 A 
ATOM     26  C   UNL     1      -2.675  10.196  17.554  0.00  0.00    +0.000 A 
ATOM     27  C   UNL     1      -1.318  10.149  17.864  0.00  0.00    +0.000 A 
ATOM     28  C   UNL     1      -0.711  11.180  18.590  0.00  0.00    +0.000 A 
ATOM     29  N   UNL     1       0.696  11.128  18.625  0.00  0.00    +0.000 N 
ATOM     30  H   UNL     1       1.111  10.320  18.177  0.00  0.00    +0.000 HD
ENDBRANCH   1  25
TORSDOF 1
ENDMDL
MODEL 6
REMARK VINA RESULT:      -7.4      4.763      8.599
REMARK  Name = 
REMARK  1 active torsions:
REMARK  status: ('A' for Active; 'I' for Inactive)
REMARK    1  A    between atoms: C_8  and  C_9
REMARK                            x       y       z     vdW  Elec       q    Type
REMARK                         _______ _______ _______ _____ _____    ______ ____
ROOT
ATOM      1  C   UNL     1      -0.553  14.852  22.630  0.00  0.00    +0.000 C 
ATOM      2  O   UNL     1      -0.638  14.707  23.852  0.00  0.00    +0.000 OA
ATOM      3  N   UNL     1       0.345  15.770  22.038  0.00  0.00    +0.000 N 
ATOM      4  C   UNL     1       1.212  16.532  22.922  0.00  0.00    +0.000 C 
ATOM      5  C   UNL     1       1.274  17.973  22.468  0.00  0.00    +0.000 C 
ATOM      6  C   UNL     1       1.827  18.134  21.054  0.00  0.00    +0.000 C 
ATOM      7  C   UNL     1       1.725  16.876  20.123  0.00  0.00    +0.000 C 
ATOM      8  C   UNL     1       3.108  16.143  20.135  0.00  0.00    +0.000 C 
ATOM      9  C   UNL     1       4.025  16.259  18.925  0.00  0.00    +0.000 C 
ATOM     10  C   UNL     1       3.391  16.564  17.580  0.00  0.00    +0.000 C 
ATOM     11  C   UNL     1       2.095  17.304  17.601  0.00  0.00    +0.000 A 
ATOM     12  C   UNL     1       1.653  17.869  16.387  0.00  0.00    +0.000 A 
ATOM     13  C   UNL     1       0.433  18.533  16.290  0.00  0.00    +0.000 A 
ATOM     14  C   UNL     1      -0.381  18.628  17.407  0.00  0.00    +0.000 A 
ATOM     15  C   UNL     1       0.042  18.067  18.612  0.00  0.00    +0.000 A 
ATOM     16  C   UNL     1       1.290  17.402  18.741  0.00  0.00    +0.000 A 
ATOM     17  C   UNL     1       0.662  15.817  20.606  0.00  0.00    +0.000 C 
ENDROOT
BRANCH   1  25
ATOM     18  O   UNL     1      -3.884  11.443  16.733  0.00  0.00    +0.000 OA
ATOM     19  C   UNL     1      -3.127  11.325  17.706  0.00  0.00    +0.000 C 
ATOM     20  C   UNL     1      -1.879  10.488  17.560  0.00  0.00    +0.000 C 
ATOM     21  C   UNL     1      -0.656  10.808  18.390  0.00  0.00    +0.000 C 
ATOM     22  C   UNL     1      -0.939  10.715  19.867  0.00  0.00    +0.000 C 
ATOM     23  C   UNL     1      -1.564  11.993  20.356  0.00  0.00    +0.000 A 
ATOM     24  C   UNL     1      -0.843  12.796  21.265  0.00  0.00    +0.000 A 
ATOM     25  C   UNL     1      -1.402  13.975  21.784  0.00  0.00    +0.000 A 
ATOM     26  C   UNL     1      -2.738  14.254  21.533  0.00  0.00    +0.000 A 
ATOM     27  C   UNL     1      -3.437  13.493  20.597  0.00  0.00    +0.000 A 
ATOM     28  C   UNL     1      -2.827  12.411  19.952  0.00  0.00    +0.000 A 
ATOM     29  N   UNL     1      -3.554  11.884  18.868  0.00  0.00    +0.000 N 
ATOM     30  H   UNL     1      -4.465  12.303  18.713  0.00  0.00    +0.000 HD
ENDBRANCH   1  25
TORSDOF 1
ENDMDL
MODEL 7
REMARK VINA RESULT:      -7.4      7.662     12.456
REMARK  Name = 
REMARK  1 active torsions:
REMARK  status: ('A' for Active; 'I' for Inactive)
REMARK    1  A    between atoms: C_8  and  C_9
REMARK                            x       y       z     vdW  Elec       q    Type
REMARK                         _______ _______ _______ _____ _____    ______ ____
ROOT
ATOM      1  C   UNL     1       5.540  16.976  19.630  0.00  0.00    +0.000 C 
ATOM      2  O   UNL     1       5.297  18.182  19.702  0.00  0.00    +0.000 OA
ATOM      3  N   UNL     1       6.787  16.431  20.017  0.00  0.00    +0.000 N 
ATOM      4  C   UNL     1       7.786  17.344  20.549  0.00  0.00    +0.000 C 
ATOM      5  C   UNL     1       9.144  17.016  19.970  0.00  0.00    +0.000 C 
ATOM      6  C   UNL     1       9.612  15.601  20.301  0.00  0.00    +0.000 C 
ATOM      7  C   UNL     1       8.489  14.568  20.667  0.00  0.00    +0.000 C 
ATOM      8  C   UNL     1       8.410  14.461  22.226  0.00  0.00    +0.000 C 
ATOM      9  C   UNL     1       8.977  13.231  22.920  0.00  0.00    +0.000 C 
ATOM     10  C   UNL     1       9.070  11.944  22.121  0.00  0.00    +0.000 C 
ATOM     11  C   UNL     1       9.192  12.080  20.640  0.00  0.00    +0.000 A 
ATOM     12  C   UNL     1       9.593  10.939  19.916  0.00  0.00    +0.000 A 
ATOM     13  C   UNL     1       9.685  10.949  18.527  0.00  0.00    +0.000 A 
ATOM     14  C   UNL     1       9.358  12.100  17.831  0.00  0.00    +0.000 A 
ATOM     15  C   UNL     1       8.953  13.235  18.535  0.00  0.00    +0.000 A 
ATOM     16  C   UNL     1       8.869  13.255  19.953  0.00  0.00    +0.000 A 
ATOM     17  C   UNL     1       7.053  14.998  20.180  0.00  0.00    +0.000 C 
ENDROOT
BRANCH   1  25
ATOM     18  O   UNL     1       0.930  11.052  18.553  0.00  0.00    +0.000 OA
ATOM     19  C   UNL     1       1.057  12.200  19.003  0.00  0.00    +0.000 C 
ATOM     20  C   UNL     1       0.407  12.540  20.323  0.00  0.00    +0.000 C 
ATOM     21  C   UNL     1       1.015  13.605  21.209  0.00  0.00    +0.000 C 
ATOM     22  C   UNL     1       1.071  14.943  20.520  0.00  0.00    +0.000 C 
ATOM     23  C   UNL     1       2.291  15.024  19.644  0.00  0.00    +0.000 A 
ATOM     24  C   UNL     1       3.305  15.946  19.976  0.00  0.00    +0.000 A 
ATOM     25  C   UNL     1       4.442  16.090  19.165  0.00  0.00    +0.000 A 
ATOM     26  C   UNL     1       4.480  15.443  17.938  0.00  0.00    +0.000 A 
ATOM     27  C   UNL     1       3.507  14.494  17.629  0.00  0.00    +0.000 A 
ATOM     28  C   UNL     1       2.456  14.229  18.515  0.00  0.00    +0.000 A 
ATOM     29  N   UNL     1       1.689  13.092  18.197  0.00  0.00    +0.000 N 
ATOM     30  H   UNL     1       1.940  12.628  17.331  0.00  0.00    +0.000 HD
ENDBRANCH   1  25
TORSDOF 1
ENDMDL
MODEL 8
REMARK VINA RESULT:      -7.3      2.737      5.058
REMARK  Name = 
REMARK  1 active torsions:
REMARK  status: ('A' for Active; 'I' for Inactive)
REMARK    1  A    between atoms: C_8  and  C_9
REMARK                            x       y       z     vdW  Elec       q    Type
REMARK                         _______ _______ _______ _____ _____    ______ ____
ROOT
ATOM      1  C   UNL     1      -3.289  14.064  23.923  0.00  0.00    +0.000 C 
ATOM      2  O   UNL     1      -3.102  14.551  25.040  0.00  0.00    +0.000 OA
ATOM      3  N   UNL     1      -4.497  14.248  23.210  0.00  0.00    +0.000 N 
ATOM      4  C   UNL     1      -5.523  15.074  23.825  0.00  0.00    +0.000 C 
ATOM      5  C   UNL     1      -6.879  14.430  23.645  0.00  0.00    +0.000 C 
ATOM      6  C   UNL     1      -7.269  14.250  22.180  0.00  0.00    +0.000 C 
ATOM      7  C   UNL     1      -6.088  14.221  21.147  0.00  0.00    +0.000 C 
ATOM      8  C   UNL     1      -5.960  15.645  20.508  0.00  0.00    +0.000 C 
ATOM      9  C   UNL     1      -6.449  15.870  19.084  0.00  0.00    +0.000 C 
ATOM     10  C   UNL     1      -6.502  14.674  18.153  0.00  0.00    +0.000 C 
ATOM     11  C   UNL     1      -6.671  13.334  18.790  0.00  0.00    +0.000 A 
ATOM     12  C   UNL     1      -7.036  12.261  17.952  0.00  0.00    +0.000 A 
ATOM     13  C   UNL     1      -7.166  10.963  18.440  0.00  0.00    +0.000 A 
ATOM     14  C   UNL     1      -6.915  10.711  19.778  0.00  0.00    +0.000 A 
ATOM     15  C   UNL     1      -6.546  11.763  20.616  0.00  0.00    +0.000 A 
ATOM     16  C   UNL     1      -6.424  13.098  20.146  0.00  0.00    +0.000 A 
ATOM     17  C   UNL     1      -4.688  13.903  21.797  0.00  0.00    +0.000 C 
ENDROOT
BRANCH   1  25
ATOM     18  O   UNL     1       1.252  10.431  19.057  0.00  0.00    +0.000 OA
ATOM     19  C   UNL     1       1.098  11.415  19.794  0.00  0.00    +0.000 C 
ATOM     20  C   UNL     1       1.564  12.767  19.311  0.00  0.00    +0.000 C 
ATOM     21  C   UNL     1       0.869  14.021  19.794  0.00  0.00    +0.000 C 
ATOM     22  C   UNL     1       0.949  14.165  21.291  0.00  0.00    +0.000 C 
ATOM     23  C   UNL     1      -0.132  13.353  21.949  0.00  0.00    +0.000 A 
ATOM     24  C   UNL     1      -1.156  14.026  22.649  0.00  0.00    +0.000 A 
ATOM     25  C   UNL     1      -2.162  13.310  23.316  0.00  0.00    +0.000 A 
ATOM     26  C   UNL     1      -2.045  11.931  23.430  0.00  0.00    +0.000 A 
ATOM     27  C   UNL     1      -1.067  11.260  22.700  0.00  0.00    +0.000 A 
ATOM     28  C   UNL     1      -0.160  11.964  21.899  0.00  0.00    +0.000 A 
ATOM     29  N   UNL     1       0.611  11.161  21.036  0.00  0.00    +0.000 N 
ATOM     30  H   UNL     1       0.471  10.162  21.133  0.00  0.00    +0.000 HD
ENDBRANCH   1  25
TORSDOF 1
ENDMDL
MODEL 9
REMARK VINA RESULT:      -7.2      6.430     11.335
REMARK  Name = 
REMARK  1 active torsions:
REMARK  status: ('A' for Active; 'I' for Inactive)
REMARK    1  A    between atoms: C_8  and  C_9
REMARK                            x       y       z     vdW  Elec       q    Type
REMARK                         _______ _______ _______ _____ _____    ______ ____
ROOT
ATOM      1  C   UNL     1       3.337  15.680  21.224  0.00  0.00    +0.000 C 
ATOM      2  O   UNL     1       2.590  16.629  21.468  0.00  0.00    +0.000 OA
ATOM      3  N   UNL     1       4.597  15.528  21.850  0.00  0.00    +0.000 N 
ATOM      4  C   UNL     1       4.983  16.522  22.839  0.00  0.00    +0.000 C 
ATOM      5  C   UNL     1       6.433  16.904  22.646  0.00  0.00    +0.000 C 
ATOM      6  C   UNL     1       7.391  15.725  22.801  0.00  0.00    +0.000 C 
ATOM      7  C   UNL     1       6.775  14.299  22.584  0.00  0.00    +0.000 C 
ATOM      8  C   UNL     1       6.450  13.686  23.987  0.00  0.00    +0.000 C 
ATOM      9  C   UNL     1       7.347  12.591  24.548  0.00  0.00    +0.000 C 
ATOM     10  C   UNL     1       8.136  11.745  23.566  0.00  0.00    +0.000 C 
ATOM     11  C   UNL     1       8.470  12.375  22.255  0.00  0.00    +0.000 A 
ATOM     12  C   UNL     1       9.453  11.745  21.466  0.00  0.00    +0.000 A 
ATOM     13  C   UNL     1       9.798  12.223  20.205  0.00  0.00    +0.000 A 
ATOM     14  C   UNL     1       9.148  13.336  19.698  0.00  0.00    +0.000 A 
ATOM     15  C   UNL     1       8.167  13.965  20.467  0.00  0.00    +0.000 A 
ATOM     16  C   UNL     1       7.812  13.507  21.763  0.00  0.00    +0.000 A 
ATOM     17  C   UNL     1       5.417  14.313  21.784  0.00  0.00    +0.000 C 
ENDROOT
BRANCH   1  25
ATOM     18  O   UNL     1       2.210   9.210  17.432  0.00  0.00    +0.000 OA
ATOM     19  C   UNL     1       1.735  10.059  18.199  0.00  0.00    +0.000 C 
ATOM     20  C   UNL     1       0.882   9.598  19.357  0.00  0.00    +0.000 C 
ATOM     21  C   UNL     1       0.827  10.419  20.626  0.00  0.00    +0.000 C 
ATOM     22  C   UNL     1       0.306  11.809  20.372  0.00  0.00    +0.000 C 
ATOM     23  C   UNL     1       1.417  12.698  19.886  0.00  0.00    +0.000 A 
ATOM     24  C   UNL     1       1.837  13.769  20.703  0.00  0.00    +0.000 A 
ATOM     25  C   UNL     1       2.840  14.653  20.274  0.00  0.00    +0.000 A 
ATOM     26  C   UNL     1       3.294  14.571  18.964  0.00  0.00    +0.000 A 
ATOM     27  C   UNL     1       2.920  13.487  18.172  0.00  0.00    +0.000 A 
ATOM     28  C   UNL     1       2.044  12.510  18.659  0.00  0.00    +0.000 A 
ATOM     29  N   UNL     1       1.941  11.357  17.857  0.00  0.00    +0.000 N 
ATOM     30  H   UNL     1       2.461  11.386  16.987  0.00  0.00    +0.000 HD
ENDBRANCH   1  25
TORSDOF 1
ENDMDL
