MODEL 1
REMARK VINA RESULT:      -9.8      0.000      0.000
REMARK  Name = 
REMARK  1 active torsions:
REMARK  status: ('A' for Active; 'I' for Inactive)
REMARK    1  A    between atoms: C_4  and  C_5
REMARK                            x       y       z     vdW  Elec       q    Type
REMARK                         _______ _______ _______ _____ _____    ______ ____
ROOT
ATOM      1  C   UNL     1       2.291   5.274  19.433  0.00  0.00    +0.000 C 
ATOM      2  O   UNL     1       1.709   4.792  20.403  0.00  0.00    +0.000 OA
ATOM      3  N   UNL     1       2.370   6.604  19.125  0.00  0.00    +0.000 N 
ATOM      4  C   UNL     1       1.798   7.640  19.819  0.00  0.00    +0.000 A 
ATOM      5  N   UNL     1       1.317   7.777  21.034  0.00  0.00    +0.000 NA
ATOM      6  C   UNL     1       0.769   9.067  21.178  0.00  0.00    +0.000 A 
ATOM      7  C   UNL     1       0.160   9.652  22.324  0.00  0.00    +0.000 A 
ATOM      8  C   UNL     1      -0.444  10.923  22.227  0.00  0.00    +0.000 A 
ATOM      9  C   UNL     1      -0.465  11.601  21.005  0.00  0.00    +0.000 A 
ATOM     10  C   UNL     1       0.215  11.096  19.903  0.00  0.00    +0.000 A 
ATOM     11  C   UNL     1       0.822   9.840  20.016  0.00  0.00    +0.000 A 
ATOM     12  S   UNL     1       1.718   9.013  18.814  0.00  0.00    +0.000 S 
ATOM     13  O   UNL     1      -1.139  12.774  20.794  0.00  0.00    +0.000 OA
ATOM     14  C   UNL     1      -2.109  12.994  21.822  0.00  0.00    +0.000 C 
ATOM     15  C   UNL     1      -1.447  12.814  23.175  0.00  0.00    +0.000 C 
ATOM     16  O   UNL     1      -1.028  11.447  23.358  0.00  0.00    +0.000 OA
ATOM     17  H   UNL     1       2.693   6.874  18.202  0.00  0.00    +0.000 HD
ENDROOT
BRANCH   1  21
ATOM     18  O   UNL     1       4.609   1.992  20.682  0.00  0.00    +0.000 OA
ATOM     19  C   UNL     1       4.498   2.772  19.741  0.00  0.00    +0.000 C 
ATOM     20  C   UNL     1       3.209   2.937  18.971  0.00  0.00    +0.000 C 
ATOM     21  C   UNL     1       3.003   4.348  18.419  0.00  0.00    +0.000 C 
ATOM     22  C   UNL     1       4.287   4.903  17.831  0.00  0.00    +0.000 A 
ATOM     23  C   UNL     1       4.266   5.870  16.813  0.00  0.00    +0.000 A 
ATOM     24  C   UNL     1       5.460   6.342  16.259  0.00  0.00    +0.000 A 
ATOM     25  C   UNL     1       6.677   5.860  16.727  0.00  0.00    +0.000 A 
ATOM     26  F   UNL     1       7.817   6.309  16.187  0.00  0.00    +0.000 F 
ATOM     27  C   UNL     1       6.727   4.913  17.741  0.00  0.00    +0.000 A 
ATOM     28  C   UNL     1       5.532   4.431  18.279  0.00  0.00    +0.000 A 
ATOM     29  N   UNL     1       5.583   3.470  19.288  0.00  0.00    +0.000 N 
ATOM     30  H   UNL     1       6.473   3.205  19.697  0.00  0.00    +0.000 HD
ENDBRANCH   1  21
TORSDOF 1
ENDMDL
MODEL 2
REMARK VINA RESULT:      -9.4      2.129      2.759
REMARK  Name = 
REMARK  1 active torsions:
REMARK  status: ('A' for Active; 'I' for Inactive)
REMARK    1  A    between atoms: C_4  and  C_5
REMARK                            x       y       z     vdW  Elec       q    Type
REMARK                         _______ _______ _______ _____ _____    ______ ____
ROOT
ATOM      1  C   UNL     1       3.955   6.343  17.917  0.00  0.00    +0.000 C 
ATOM      2  O   UNL     1       4.207   7.296  17.181  0.00  0.00    +0.000 OA
ATOM      3  N   UNL     1       3.032   6.331  18.925  0.00  0.00    +0.000 N 
ATOM      4  C   UNL     1       2.239   7.379  19.321  0.00  0.00    +0.000 A 
ATOM      5  N   UNL     1       1.868   8.511  18.767  0.00  0.00    +0.000 NA
ATOM      6  C   UNL     1       1.100   9.253  19.685  0.00  0.00    +0.000 A 
ATOM      7  C   UNL     1       0.481  10.522  19.507  0.00  0.00    +0.000 A 
ATOM      8  C   UNL     1      -0.146  11.158  20.600  0.00  0.00    +0.000 A 
ATOM      9  C   UNL     1      -0.142  10.557  21.861  0.00  0.00    +0.000 A 
ATOM     10  C   UNL     1       0.362   9.273  22.032  0.00  0.00    +0.000 A 
ATOM     11  C   UNL     1       0.968   8.647  20.937  0.00  0.00    +0.000 A 
ATOM     12  S   UNL     1       1.652   7.078  20.892  0.00  0.00    +0.000 S 
ATOM     13  O   UNL     1      -0.612  11.161  22.997  0.00  0.00    +0.000 OA
ATOM     14  C   UNL     1      -0.724  12.575  22.810  0.00  0.00    +0.000 C 
ATOM     15  C   UNL     1      -1.480  12.846  21.523  0.00  0.00    +0.000 C 
ATOM     16  O   UNL     1      -0.725  12.389  20.384  0.00  0.00    +0.000 OA
ATOM     17  H   UNL     1       3.050   5.571  19.597  0.00  0.00    +0.000 HD
ENDROOT
BRANCH   1  21
ATOM     18  O   UNL     1       7.746   5.760  19.645  0.00  0.00    +0.000 OA
ATOM     19  C   UNL     1       7.057   5.360  18.712  0.00  0.00    +0.000 C 
ATOM     20  C   UNL     1       5.688   4.756  18.916  0.00  0.00    +0.000 C 
ATOM     21  C   UNL     1       4.727   5.013  17.754  0.00  0.00    +0.000 C 
ATOM     22  C   UNL     1       5.420   4.830  16.416  0.00  0.00    +0.000 A 
ATOM     23  C   UNL     1       4.702   4.463  15.267  0.00  0.00    +0.000 A 
ATOM     24  C   UNL     1       5.364   4.264  14.051  0.00  0.00    +0.000 A 
ATOM     25  C   UNL     1       6.741   4.442  13.977  0.00  0.00    +0.000 A 
ATOM     26  F   UNL     1       7.372   4.241  12.812  0.00  0.00    +0.000 F 
ATOM     27  C   UNL     1       7.473   4.818  15.095  0.00  0.00    +0.000 A 
ATOM     28  C   UNL     1       6.811   4.998  16.310  0.00  0.00    +0.000 A 
ATOM     29  N   UNL     1       7.549   5.362  17.437  0.00  0.00    +0.000 N 
ATOM     30  H   UNL     1       8.533   5.595  17.349  0.00  0.00    +0.000 HD
ENDBRANCH   1  21
TORSDOF 1
ENDMDL
MODEL 3
REMARK VINA RESULT:      -9.0      2.793      4.063
REMARK  Name = 
REMARK  1 active torsions:
REMARK  status: ('A' for Active; 'I' for Inactive)
REMARK    1  A    between atoms: C_4  and  C_5
REMARK                            x       y       z     vdW  Elec       q    Type
REMARK                         _______ _______ _______ _____ _____    ______ ____
ROOT
ATOM      1  C   UNL     1       2.196   7.552  19.503  0.00  0.00    +0.000 C 
ATOM      2  O   UNL     1       2.276   8.204  18.463  0.00  0.00    +0.000 OA
ATOM      3  N   UNL     1       1.426   7.867  20.588  0.00  0.00    +0.000 N 
ATOM      4  C   UNL     1       0.625   8.972  20.731  0.00  0.00    +0.000 A 
ATOM      5  N   UNL     1       0.102   9.842  19.896  0.00  0.00    +0.000 NA
ATOM      6  C   UNL     1      -0.580  10.838  20.623  0.00  0.00    +0.000 A 
ATOM      7  C   UNL     1      -1.305  11.959  20.131  0.00  0.00    +0.000 A 
ATOM      8  C   UNL     1      -1.816  12.916  21.033  0.00  0.00    +0.000 A 
ATOM      9  C   UNL     1      -1.593  12.779  22.406  0.00  0.00    +0.000 A 
ATOM     10  C   UNL     1      -0.982  11.639  22.914  0.00  0.00    +0.000 A 
ATOM     11  C   UNL     1      -0.493  10.690  22.009  0.00  0.00    +0.000 A 
ATOM     12  S   UNL     1       0.286   9.211  22.383  0.00  0.00    +0.000 S 
ATOM     13  O   UNL     1      -1.941  13.724  23.334  0.00  0.00    +0.000 OA
ATOM     14  C   UNL     1      -2.176  14.988  22.708  0.00  0.00    +0.000 C 
ATOM     15  C   UNL     1      -3.122  14.792  21.537  0.00  0.00    +0.000 C 
ATOM     16  O   UNL     1      -2.503  13.990  20.513  0.00  0.00    +0.000 OA
ATOM     17  H   UNL     1       1.591   7.380  21.463  0.00  0.00    +0.000 HD
ENDROOT
BRANCH   1  21
ATOM     18  O   UNL     1       4.929   6.279  16.568  0.00  0.00    +0.000 OA
ATOM     19  C   UNL     1       4.233   5.832  17.475  0.00  0.00    +0.000 C 
ATOM     20  C   UNL     1       4.347   6.317  18.901  0.00  0.00    +0.000 C 
ATOM     21  C   UNL     1       3.029   6.261  19.673  0.00  0.00    +0.000 C 
ATOM     22  C   UNL     1       2.281   4.971  19.393  0.00  0.00    +0.000 A 
ATOM     23  C   UNL     1       1.390   4.425  20.331  0.00  0.00    +0.000 A 
ATOM     24  C   UNL     1       0.738   3.216  20.070  0.00  0.00    +0.000 A 
ATOM     25  C   UNL     1       0.964   2.555  18.868  0.00  0.00    +0.000 A 
ATOM     26  F   UNL     1       0.344   1.392  18.626  0.00  0.00    +0.000 F 
ATOM     27  C   UNL     1       1.831   3.078  17.918  0.00  0.00    +0.000 A 
ATOM     28  C   UNL     1       2.493   4.276  18.190  0.00  0.00    +0.000 A 
ATOM     29  N   UNL     1       3.374   4.795  17.242  0.00  0.00    +0.000 N 
ATOM     30  H   UNL     1       3.450   4.363  16.326  0.00  0.00    +0.000 HD
ENDBRANCH   1  21
TORSDOF 1
ENDMDL
MODEL 4
REMARK VINA RESULT:      -8.6      1.521      1.763
REMARK  Name = 
REMARK  1 active torsions:
REMARK  status: ('A' for Active; 'I' for Inactive)
REMARK    1  A    between atoms: C_4  and  C_5
REMARK                            x       y       z     vdW  Elec       q    Type
REMARK                         _______ _______ _______ _____ _____    ______ ____
ROOT
ATOM      1  C   UNL     1       2.172   6.916  19.034  0.00  0.00    +0.000 C 
ATOM      2  O   UNL     1       2.176   6.507  20.194  0.00  0.00    +0.000 OA
ATOM      3  N   UNL     1       1.705   8.131  18.615  0.00  0.00    +0.000 N 
ATOM      4  C   UNL     1       1.133   9.103  19.398  0.00  0.00    +0.000 A 
ATOM      5  N   UNL     1       1.120   9.354  20.687  0.00  0.00    +0.000 NA
ATOM      6  C   UNL     1       0.285  10.460  20.941  0.00  0.00    +0.000 A 
ATOM      7  C   UNL     1      -0.007  11.087  22.185  0.00  0.00    +0.000 A 
ATOM      8  C   UNL     1      -0.974  12.113  22.244  0.00  0.00    +0.000 A 
ATOM      9  C   UNL     1      -1.660  12.501  21.090  0.00  0.00    +0.000 A 
ATOM     10  C   UNL     1      -1.315  11.977  19.850  0.00  0.00    +0.000 A 
ATOM     11  C   UNL     1      -0.344  10.970  19.803  0.00  0.00    +0.000 A 
ATOM     12  S   UNL     1       0.255  10.177  18.409  0.00  0.00    +0.000 S 
ATOM     13  O   UNL     1      -2.699  13.394  21.083  0.00  0.00    +0.000 OA
ATOM     14  C   UNL     1      -3.235  13.558  22.399  0.00  0.00    +0.000 C 
ATOM     15  C   UNL     1      -2.098  13.833  23.367  0.00  0.00    +0.000 C 
ATOM     16  O   UNL     1      -1.231  12.686  23.470  0.00  0.00    +0.000 OA
ATOM     17  H   UNL     1       1.558   8.283  17.623  0.00  0.00    +0.000 HD
ENDROOT
BRANCH   1  21
ATOM     18  O   UNL     1       1.657   2.741  19.071  0.00  0.00    +0.000 OA
ATOM     19  C   UNL     1       2.404   3.601  18.615  0.00  0.00    +0.000 C 
ATOM     20  C   UNL     1       1.905   4.730  17.744  0.00  0.00    +0.000 C 
ATOM     21  C   UNL     1       2.711   6.021  17.895  0.00  0.00    +0.000 C 
ATOM     22  C   UNL     1       4.200   5.736  17.948  0.00  0.00    +0.000 A 
ATOM     23  C   UNL     1       5.141   6.693  17.535  0.00  0.00    +0.000 A 
ATOM     24  C   UNL     1       6.508   6.399  17.558  0.00  0.00    +0.000 A 
ATOM     25  C   UNL     1       6.940   5.155  18.004  0.00  0.00    +0.000 A 
ATOM     26  F   UNL     1       8.250   4.875  18.016  0.00  0.00    +0.000 F 
ATOM     27  C   UNL     1       6.031   4.196  18.431  0.00  0.00    +0.000 A 
ATOM     28  C   UNL     1       4.667   4.487  18.390  0.00  0.00    +0.000 A 
ATOM     29  N   UNL     1       3.754   3.518  18.806  0.00  0.00    +0.000 N 
ATOM     30  H   UNL     1       4.083   2.656  19.231  0.00  0.00    +0.000 HD
ENDBRANCH   1  21
TORSDOF 1
ENDMDL
MODEL 5
REMARK VINA RESULT:      -8.6      6.406      9.485
REMARK  Name = 
REMARK  1 active torsions:
REMARK  status: ('A' for Active; 'I' for Inactive)
REMARK    1  A    between atoms: C_4  and  C_5
REMARK                            x       y       z     vdW  Elec       q    Type
REMARK                         _______ _______ _______ _____ _____    ______ ____
ROOT
ATOM      1  C   UNL     1       8.872  10.005  18.442  0.00  0.00    +0.000 C 
ATOM      2  O   UNL     1       8.021  10.566  17.753  0.00  0.00    +0.000 OA
ATOM      3  N   UNL     1       8.903   8.673  18.750  0.00  0.00    +0.000 N 
ATOM      4  C   UNL     1       7.983   7.724  18.376  0.00  0.00    +0.000 A 
ATOM      5  N   UNL     1       7.055   7.661  17.449  0.00  0.00    +0.000 NA
ATOM      6  C   UNL     1       6.341   6.454  17.583  0.00  0.00    +0.000 A 
ATOM      7  C   UNL     1       5.267   5.962  16.788  0.00  0.00    +0.000 A 
ATOM      8  C   UNL     1       4.599   4.778  17.165  0.00  0.00    +0.000 A 
ATOM      9  C   UNL     1       4.973   4.098  18.327  0.00  0.00    +0.000 A 
ATOM     10  C   UNL     1       6.085   4.501  19.057  0.00  0.00    +0.000 A 
ATOM     11  C   UNL     1       6.748   5.670  18.665  0.00  0.00    +0.000 A 
ATOM     12  S   UNL     1       8.135   6.364  19.391  0.00  0.00    +0.000 S 
ATOM     13  O   UNL     1       4.298   3.019  18.832  0.00  0.00    +0.000 OA
ATOM     14  C   UNL     1       2.985   2.935  18.270  0.00  0.00    +0.000 C 
ATOM     15  C   UNL     1       3.084   3.040  16.760  0.00  0.00    +0.000 C 
ATOM     16  O   UNL     1       3.561   4.343  16.371  0.00  0.00    +0.000 OA
ATOM     17  H   UNL     1       9.523   8.356  19.487  0.00  0.00    +0.000 HD
ENDROOT
BRANCH   1  21
ATOM     18  O   UNL     1       8.340  12.299  21.928  0.00  0.00    +0.000 OA
ATOM     19  C   UNL     1       9.047  12.245  20.926  0.00  0.00    +0.000 C 
ATOM     20  C   UNL     1       9.855  11.020  20.568  0.00  0.00    +0.000 C 
ATOM     21  C   UNL     1      10.029  10.822  19.061  0.00  0.00    +0.000 C 
ATOM     22  C   UNL     1      10.335  12.135  18.365  0.00  0.00    +0.000 A 
ATOM     23  C   UNL     1      11.059  12.172  17.162  0.00  0.00    +0.000 A 
ATOM     24  C   UNL     1      11.362  13.395  16.554  0.00  0.00    +0.000 A 
ATOM     25  C   UNL     1      10.935  14.581  17.139  0.00  0.00    +0.000 A 
ATOM     26  F   UNL     1      11.236  15.750  16.558  0.00  0.00    +0.000 F 
ATOM     27  C   UNL     1      10.207  14.573  18.321  0.00  0.00    +0.000 A 
ATOM     28  C   UNL     1       9.922  13.351  18.934  0.00  0.00    +0.000 A 
ATOM     29  N   UNL     1       9.203  13.344  20.129  0.00  0.00    +0.000 N 
ATOM     30  H   UNL     1       8.803  14.205  20.489  0.00  0.00    +0.000 HD
ENDBRANCH   1  21
TORSDOF 1
ENDMDL
MODEL 6
REMARK VINA RESULT:      -8.6      1.921      2.758
REMARK  Name = 
REMARK  1 active torsions:
REMARK  status: ('A' for Active; 'I' for Inactive)
REMARK    1  A    between atoms: C_4  and  C_5
REMARK                            x       y       z     vdW  Elec       q    Type
REMARK                         _______ _______ _______ _____ _____    ______ ____
ROOT
ATOM      1  C   UNL     1       2.351   8.041  18.036  0.00  0.00    +0.000 C 
ATOM      2  O   UNL     1       2.791   8.985  17.382  0.00  0.00    +0.000 OA
ATOM      3  N   UNL     1       1.448   8.126  19.059  0.00  0.00    +0.000 N 
ATOM      4  C   UNL     1       0.887   9.274  19.562  0.00  0.00    +0.000 A 
ATOM      5  N   UNL     1       0.754  10.503  19.117  0.00  0.00    +0.000 NA
ATOM      6  C   UNL     1       0.156  11.300  20.113  0.00  0.00    +0.000 A 
ATOM      7  C   UNL     1      -0.190  12.679  20.060  0.00  0.00    +0.000 A 
ATOM      8  C   UNL     1      -0.671  13.328  21.217  0.00  0.00    +0.000 A 
ATOM      9  C   UNL     1      -0.786  12.628  22.421  0.00  0.00    +0.000 A 
ATOM     10  C   UNL     1      -0.555  11.258  22.468  0.00  0.00    +0.000 A 
ATOM     11  C   UNL     1      -0.093  10.623  21.310  0.00  0.00    +0.000 A 
ATOM     12  S   UNL     1       0.256   8.958  21.113  0.00  0.00    +0.000 S 
ATOM     13  O   UNL     1      -1.119  13.209  23.615  0.00  0.00    +0.000 OA
ATOM     14  C   UNL     1      -0.940  14.628  23.555  0.00  0.00    +0.000 C 
ATOM     15  C   UNL     1      -1.629  15.162  22.313  0.00  0.00    +0.000 C 
ATOM     16  O   UNL     1      -0.986  14.666  21.122  0.00  0.00    +0.000 OA
ATOM     17  H   UNL     1       1.312   7.321  19.661  0.00  0.00    +0.000 HD
ENDROOT
BRANCH   1  21
ATOM     18  O   UNL     1       1.636   4.874  20.713  0.00  0.00    +0.000 OA
ATOM     19  C   UNL     1       2.419   5.212  19.829  0.00  0.00    +0.000 C 
ATOM     20  C   UNL     1       1.965   5.548  18.429  0.00  0.00    +0.000 C 
ATOM     21  C   UNL     1       2.834   6.602  17.741  0.00  0.00    +0.000 C 
ATOM     22  C   UNL     1       4.309   6.352  17.997  0.00  0.00    +0.000 A 
ATOM     23  C   UNL     1       5.290   6.783  17.090  0.00  0.00    +0.000 A 
ATOM     24  C   UNL     1       6.642   6.512  17.326  0.00  0.00    +0.000 A 
ATOM     25  C   UNL     1       7.018   5.821  18.472  0.00  0.00    +0.000 A 
ATOM     26  F   UNL     1       8.312   5.555  18.689  0.00  0.00    +0.000 F 
ATOM     27  C   UNL     1       6.069   5.394  19.392  0.00  0.00    +0.000 A 
ATOM     28  C   UNL     1       4.720   5.652  19.144  0.00  0.00    +0.000 A 
ATOM     29  N   UNL     1       3.766   5.211  20.060  0.00  0.00    +0.000 N 
ATOM     30  H   UNL     1       4.057   4.805  20.944  0.00  0.00    +0.000 HD
ENDBRANCH   1  21
TORSDOF 1
ENDMDL
MODEL 7
REMARK VINA RESULT:      -8.6      3.220      8.533
REMARK  Name = 
REMARK  1 active torsions:
REMARK  status: ('A' for Active; 'I' for Inactive)
REMARK    1  A    between atoms: C_4  and  C_5
REMARK                            x       y       z     vdW  Elec       q    Type
REMARK                         _______ _______ _______ _____ _____    ______ ____
ROOT
ATOM      1  C   UNL     1       0.722  10.961  21.073  0.00  0.00    +0.000 C 
ATOM      2  O   UNL     1       0.744  10.538  22.228  0.00  0.00    +0.000 OA
ATOM      3  N   UNL     1       0.983  10.231  19.947  0.00  0.00    +0.000 N 
ATOM      4  C   UNL     1       1.342   8.907  19.895  0.00  0.00    +0.000 A 
ATOM      5  N   UNL     1       1.259   7.899  20.734  0.00  0.00    +0.000 NA
ATOM      6  C   UNL     1       1.875   6.766  20.167  0.00  0.00    +0.000 A 
ATOM      7  C   UNL     1       2.002   5.457  20.710  0.00  0.00    +0.000 A 
ATOM      8  C   UNL     1       2.769   4.486  20.032  0.00  0.00    +0.000 A 
ATOM      9  C   UNL     1       3.422   4.811  18.840  0.00  0.00    +0.000 A 
ATOM     10  C   UNL     1       3.224   6.048  18.239  0.00  0.00    +0.000 A 
ATOM     11  C   UNL     1       2.449   6.998  18.914  0.00  0.00    +0.000 A 
ATOM     12  S   UNL     1       2.055   8.577  18.384  0.00  0.00    +0.000 S 
ATOM     13  O   UNL     1       4.286   3.972  18.189  0.00  0.00    +0.000 OA
ATOM     14  C   UNL     1       4.732   2.928  19.060  0.00  0.00    +0.000 C 
ATOM     15  C   UNL     1       3.527   2.292  19.728  0.00  0.00    +0.000 C 
ATOM     16  O   UNL     1       2.872   3.235  20.599  0.00  0.00    +0.000 OA
ATOM     17  H   UNL     1       1.140  10.720  19.072  0.00  0.00    +0.000 HD
ENDROOT
BRANCH   1  21
ATOM     18  O   UNL     1      -1.744  12.130  17.871  0.00  0.00    +0.000 OA
ATOM     19  C   UNL     1      -0.840  12.562  18.579  0.00  0.00    +0.000 C 
ATOM     20  C   UNL     1      -0.946  12.622  20.084  0.00  0.00    +0.000 C 
ATOM     21  C   UNL     1       0.395  12.447  20.799  0.00  0.00    +0.000 C 
ATOM     22  C   UNL     1       1.494  13.232  20.107  0.00  0.00    +0.000 A 
ATOM     23  C   UNL     1       2.618  13.691  20.812  0.00  0.00    +0.000 A 
ATOM     24  C   UNL     1       3.603  14.443  20.164  0.00  0.00    +0.000 A 
ATOM     25  C   UNL     1       3.475  14.729  18.810  0.00  0.00    +0.000 A 
ATOM     26  F   UNL     1       4.416  15.458  18.196  0.00  0.00    +0.000 F 
ATOM     27  C   UNL     1       2.380  14.276  18.086  0.00  0.00    +0.000 A 
ATOM     28  C   UNL     1       1.391  13.541  18.740  0.00  0.00    +0.000 A 
ATOM     29  N   UNL     1       0.284  13.098  18.015  0.00  0.00    +0.000 N 
ATOM     30  H   UNL     1       0.253  13.218  17.008  0.00  0.00    +0.000 HD
ENDBRANCH   1  21
TORSDOF 1
ENDMDL
MODEL 8
REMARK VINA RESULT:      -8.5      3.369      8.956
REMARK  Name = 
REMARK  1 active torsions:
REMARK  status: ('A' for Active; 'I' for Inactive)
REMARK    1  A    between atoms: C_4  and  C_5
REMARK                            x       y       z     vdW  Elec       q    Type
REMARK                         _______ _______ _______ _____ _____    ______ ____
ROOT
ATOM      1  C   UNL     1       0.093  11.040  21.627  0.00  0.00    +0.000 C 
ATOM      2  O   UNL     1       0.321  10.471  22.694  0.00  0.00    +0.000 OA
ATOM      3  N   UNL     1       0.369  10.549  20.381  0.00  0.00    +0.000 N 
ATOM      4  C   UNL     1       0.973   9.351  20.089  0.00  0.00    +0.000 A 
ATOM      5  N   UNL     1       1.180   8.240  20.758  0.00  0.00    +0.000 NA
ATOM      6  C   UNL     1       1.941   7.353  19.970  0.00  0.00    +0.000 A 
ATOM      7  C   UNL     1       2.380   6.037  20.284  0.00  0.00    +0.000 A 
ATOM      8  C   UNL     1       3.244   5.355  19.402  0.00  0.00    +0.000 A 
ATOM      9  C   UNL     1       3.689   5.976  18.232  0.00  0.00    +0.000 A 
ATOM     10  C   UNL     1       3.188   7.217  17.855  0.00  0.00    +0.000 A 
ATOM     11  C   UNL     1       2.320   7.876  18.732  0.00  0.00    +0.000 A 
ATOM     12  S   UNL     1       1.570   9.397  18.494  0.00  0.00    +0.000 S 
ATOM     13  O   UNL     1       4.625   5.439  17.390  0.00  0.00    +0.000 OA
ATOM     14  C   UNL     1       5.358   4.398  18.044  0.00  0.00    +0.000 C 
ATOM     15  C   UNL     1       4.380   3.435  18.691  0.00  0.00    +0.000 C 
ATOM     16  O   UNL     1       3.651   4.086  19.750  0.00  0.00    +0.000 OA
ATOM     17  H   UNL     1       0.332  11.179  19.588  0.00  0.00    +0.000 HD
ENDROOT
BRANCH   1  21
ATOM     18  O   UNL     1      -3.325  11.910  19.333  0.00  0.00    +0.000 OA
ATOM     19  C   UNL     1      -2.348  12.463  19.827  0.00  0.00    +0.000 C 
ATOM     20  C   UNL     1      -2.042  12.403  21.305  0.00  0.00    +0.000 C 
ATOM     21  C   UNL     1      -0.546  12.448  21.622  0.00  0.00    +0.000 C 
ATOM     22  C   UNL     1       0.167  13.477  20.765  0.00  0.00    +0.000 A 
ATOM     23  C   UNL     1       1.347  14.100  21.202  0.00  0.00    +0.000 A 
ATOM     24  C   UNL     1       1.970  15.072  20.413  0.00  0.00    +0.000 A 
ATOM     25  C   UNL     1       1.425  15.415  19.181  0.00  0.00    +0.000 A 
ATOM     26  F   UNL     1       2.021  16.353  18.433  0.00  0.00    +0.000 F 
ATOM     27  C   UNL     1       0.267  14.805  18.718  0.00  0.00    +0.000 A 
ATOM     28  C   UNL     1      -0.362  13.848  19.517  0.00  0.00    +0.000 A 
ATOM     29  N   UNL     1      -1.533  13.246  19.058  0.00  0.00    +0.000 N 
ATOM     30  H   UNL     1      -1.862  13.423  18.114  0.00  0.00    +0.000 HD
ENDBRANCH   1  21
TORSDOF 1
ENDMDL
MODEL 9
REMARK VINA RESULT:      -8.3      3.869      9.755
REMARK  Name = 
REMARK  1 active torsions:
REMARK  status: ('A' for Active; 'I' for Inactive)
REMARK    1  A    between atoms: C_4  and  C_5
REMARK                            x       y       z     vdW  Elec       q    Type
REMARK                         _______ _______ _______ _____ _____    ______ ____
ROOT
ATOM      1  C   UNL     1      -0.107  11.267  20.705  0.00  0.00    +0.000 C 
ATOM      2  O   UNL     1       0.056  10.820  21.840  0.00  0.00    +0.000 OA
ATOM      3  N   UNL     1       0.307  10.677  19.544  0.00  0.00    +0.000 N 
ATOM      4  C   UNL     1       0.999   9.497  19.426  0.00  0.00    +0.000 A 
ATOM      5  N   UNL     1       1.205   8.470  20.220  0.00  0.00    +0.000 NA
ATOM      6  C   UNL     1       2.081   7.562  19.593  0.00  0.00    +0.000 A 
ATOM      7  C   UNL     1       2.562   6.313  20.075  0.00  0.00    +0.000 A 
ATOM      8  C   UNL     1       3.538   5.605  19.342  0.00  0.00    +0.000 A 
ATOM      9  C   UNL     1       4.051   6.137  18.156  0.00  0.00    +0.000 A 
ATOM     10  C   UNL     1       3.520   7.301  17.614  0.00  0.00    +0.000 A 
ATOM     11  C   UNL     1       2.541   7.986  18.344  0.00  0.00    +0.000 A 
ATOM     12  S   UNL     1       1.734   9.427  17.891  0.00  0.00    +0.000 S 
ATOM     13  O   UNL     1       5.087   5.581  17.455  0.00  0.00    +0.000 OA
ATOM     14  C   UNL     1       5.814   4.657  18.271  0.00  0.00    +0.000 C 
ATOM     15  C   UNL     1       4.836   3.701  18.928  0.00  0.00    +0.000 C 
ATOM     16  O   UNL     1       3.980   4.404  19.851  0.00  0.00    +0.000 OA
ATOM     17  H   UNL     1       0.307  11.224  18.690  0.00  0.00    +0.000 HD
ENDROOT
BRANCH   1  21
ATOM     18  O   UNL     1      -0.684  13.957  23.889  0.00  0.00    +0.000 OA
ATOM     19  C   UNL     1      -1.169  13.654  22.803  0.00  0.00    +0.000 C 
ATOM     20  C   UNL     1      -0.367  13.672  21.524  0.00  0.00    +0.000 C 
ATOM     21  C   UNL     1      -0.818  12.625  20.504  0.00  0.00    +0.000 C 
ATOM     22  C   UNL     1      -2.332  12.554  20.422  0.00  0.00    +0.000 A 
ATOM     23  C   UNL     1      -2.980  12.130  19.251  0.00  0.00    +0.000 A 
ATOM     24  C   UNL     1      -4.377  12.105  19.184  0.00  0.00    +0.000 A 
ATOM     25  C   UNL     1      -5.129  12.491  20.287  0.00  0.00    +0.000 A 
ATOM     26  F   UNL     1      -6.466  12.475  20.214  0.00  0.00    +0.000 F 
ATOM     27  C   UNL     1      -4.513  12.903  21.462  0.00  0.00    +0.000 A 
ATOM     28  C   UNL     1      -3.119  12.943  21.519  0.00  0.00    +0.000 A 
ATOM     29  N   UNL     1      -2.501  13.370  22.694  0.00  0.00    +0.000 N 
ATOM     30  H   UNL     1      -3.054  13.545  23.527  0.00  0.00    +0.000 HD
ENDBRANCH   1  21
TORSDOF 1
ENDMDL
