MODEL 1
REMARK VINA RESULT:      -8.8      0.000      0.000
REMARK  Name = 
REMARK  3 active torsions:
REMARK  status: ('A' for Active; 'I' for Inactive)
REMARK    1  A    between atoms: C_2  and  C_3
REMARK    2  A    between atoms: C_7  and  S_8
REMARK    3  A    between atoms: S_8  and  N_11
REMARK                            x       y       z     vdW  Elec       q    Type
REMARK                         _______ _______ _______ _____ _____    ______ ____
ROOT
ATOM      1  C   UNL     1      -1.278  11.637  19.166  0.00  0.00    +0.000 A 
ATOM      2  C   UNL     1      -0.482  12.787  19.187  0.00  0.00    +0.000 A 
ATOM      3  C   UNL     1       0.829  12.730  19.665  0.00  0.00    +0.000 A 
ATOM      4  C   UNL     1       1.333  11.529  20.169  0.00  0.00    +0.000 A 
ATOM      5  C   UNL     1       0.536  10.381  20.128  0.00  0.00    +0.000 A 
ATOM      6  C   UNL     1      -0.747  10.421  19.580  0.00  0.00    +0.000 A 
ENDROOT
BRANCH   1   8
ATOM      7  O   UNL     1      -3.174  11.237  17.993  0.00  0.00    +0.000 OA
ATOM      8  C   UNL     1      -2.737  11.800  19.000  0.00  0.00    +0.000 C 
ATOM      9  N   UNL     1      -3.497  12.513  19.943  0.00  0.00    +0.000 N 
ATOM     10  C   UNL     1      -2.936  13.164  21.137  0.00  0.00    +0.000 C 
ATOM     11  C   UNL     1      -3.548  12.671  22.428  0.00  0.00    +0.000 C 
ATOM     12  C   UNL     1      -5.052  12.828  22.412  0.00  0.00    +0.000 C 
ATOM     13  C   UNL     1      -5.670  12.456  21.093  0.00  0.00    +0.000 A 
ATOM     14  C   UNL     1      -7.035  12.119  21.077  0.00  0.00    +0.000 A 
ATOM     15  C   UNL     1      -7.675  11.782  19.887  0.00  0.00    +0.000 A 
ATOM     16  C   UNL     1      -6.981  11.859  18.690  0.00  0.00    +0.000 A 
ATOM     17  C   UNL     1      -5.628  12.198  18.695  0.00  0.00    +0.000 A 
ATOM     18  C   UNL     1      -4.934  12.426  19.895  0.00  0.00    +0.000 A 
ENDBRANCH   1   8
BRANCH   5  19
ATOM     19  S   UNL     1       0.939   8.945  21.095  0.00  0.00    +0.000 S 
ATOM     20  O   UNL     1       1.681   9.394  22.246  0.00  0.00    +0.000 OA
ATOM     21  O   UNL     1      -0.272   8.149  21.224  0.00  0.00    +0.000 OA
BRANCH  19  22
ATOM     22  N   UNL     1       1.984   8.119  20.037  0.00  0.00    +0.000 N 
ATOM     23  C   UNL     1       1.939   8.487  18.568  0.00  0.00    +0.000 C 
ATOM     24  C   UNL     1       2.920   7.494  17.959  0.00  0.00    +0.000 C 
ATOM     25  C   UNL     1       2.439   6.296  18.716  0.00  0.00    +0.000 A 
ATOM     26  C   UNL     1       2.269   5.016  18.242  0.00  0.00    +0.000 A 
ATOM     27  C   UNL     1       1.671   4.097  19.099  0.00  0.00    +0.000 A 
ATOM     28  C   UNL     1       1.355   4.447  20.428  0.00  0.00    +0.000 A 
ATOM     29  C   UNL     1       1.537   5.753  20.898  0.00  0.00    +0.000 A 
ATOM     30  C   UNL     1       1.983   6.683  19.987  0.00  0.00    +0.000 A 
ENDBRANCH  19  22
ENDBRANCH   5  19
TORSDOF 3
ENDMDL
MODEL 2
REMARK VINA RESULT:      -8.6      1.291      2.274
REMARK  Name = 
REMARK  3 active torsions:
REMARK  status: ('A' for Active; 'I' for Inactive)
REMARK    1  A    between atoms: C_2  and  C_3
REMARK    2  A    between atoms: C_7  and  S_8
REMARK    3  A    between atoms: S_8  and  N_11
REMARK                            x       y       z     vdW  Elec       q    Type
REMARK                         _______ _______ _______ _____ _____    ______ ____
ROOT
ATOM      1  C   UNL     1      -1.289  12.092  19.954  0.00  0.00    +0.000 A 
ATOM      2  C   UNL     1      -0.464  13.207  20.136  0.00  0.00    +0.000 A 
ATOM      3  C   UNL     1       0.862  13.046  20.540  0.00  0.00    +0.000 A 
ATOM      4  C   UNL     1       1.356  11.768  20.812  0.00  0.00    +0.000 A 
ATOM      5  C   UNL     1       0.529  10.659  20.612  0.00  0.00    +0.000 A 
ATOM      6  C   UNL     1      -0.773  10.815  20.134  0.00  0.00    +0.000 A 
ENDROOT
BRANCH   1   8
ATOM      7  O   UNL     1      -3.163  13.099  20.731  0.00  0.00    +0.000 OA
ATOM      8  C   UNL     1      -2.749  12.307  19.881  0.00  0.00    +0.000 C 
ATOM      9  N   UNL     1      -3.527  11.664  18.902  0.00  0.00    +0.000 N 
ATOM     10  C   UNL     1      -2.991  10.730  17.901  0.00  0.00    +0.000 C 
ATOM     11  C   UNL     1      -3.266  11.159  16.478  0.00  0.00    +0.000 C 
ATOM     12  C   UNL     1      -4.746  11.368  16.250  0.00  0.00    +0.000 C 
ATOM     13  C   UNL     1      -5.427  12.066  17.394  0.00  0.00    +0.000 A 
ATOM     14  C   UNL     1      -6.646  12.717  17.137  0.00  0.00    +0.000 A 
ATOM     15  C   UNL     1      -7.339  13.368  18.155  0.00  0.00    +0.000 A 
ATOM     16  C   UNL     1      -6.864  13.305  19.455  0.00  0.00    +0.000 A 
ATOM     17  C   UNL     1      -5.658  12.657  19.721  0.00  0.00    +0.000 A 
ATOM     18  C   UNL     1      -4.884  12.097  18.691  0.00  0.00    +0.000 A 
ENDBRANCH   1   8
BRANCH   5  19
ATOM     19  S   UNL     1       0.934   9.072  21.304  0.00  0.00    +0.000 S 
ATOM     20  O   UNL     1       1.727   9.307  22.485  0.00  0.00    +0.000 OA
ATOM     21  O   UNL     1      -0.289   8.286  21.344  0.00  0.00    +0.000 OA
BRANCH  19  22
ATOM     22  N   UNL     1       1.922   8.422  20.081  0.00  0.00    +0.000 N 
ATOM     23  C   UNL     1       1.674   8.875  18.657  0.00  0.00    +0.000 C 
ATOM     24  C   UNL     1       2.665   8.025  17.874  0.00  0.00    +0.000 C 
ATOM     25  C   UNL     1       2.386   6.740  18.588  0.00  0.00    +0.000 A 
ATOM     26  C   UNL     1       2.280   5.481  18.043  0.00  0.00    +0.000 A 
ATOM     27  C   UNL     1       1.872   4.455  18.890  0.00  0.00    +0.000 A 
ATOM     28  C   UNL     1       1.680   4.689  20.267  0.00  0.00    +0.000 A 
ATOM     29  C   UNL     1       1.795   5.974  20.810  0.00  0.00    +0.000 A 
ATOM     30  C   UNL     1       2.045   6.999  19.926  0.00  0.00    +0.000 A 
ENDBRANCH  19  22
ENDBRANCH   5  19
TORSDOF 3
ENDMDL
MODEL 3
REMARK VINA RESULT:      -8.6      3.982      5.968
REMARK  Name = 
REMARK  3 active torsions:
REMARK  status: ('A' for Active; 'I' for Inactive)
REMARK    1  A    between atoms: C_2  and  C_3
REMARK    2  A    between atoms: C_7  and  S_8
REMARK    3  A    between atoms: S_8  and  N_11
REMARK                            x       y       z     vdW  Elec       q    Type
REMARK                         _______ _______ _______ _____ _____    ______ ____
ROOT
ATOM      1  C   UNL     1       2.594   7.337  18.689  0.00  0.00    +0.000 A 
ATOM      2  C   UNL     1       3.021   8.261  17.730  0.00  0.00    +0.000 A 
ATOM      3  C   UNL     1       4.126   7.982  16.924  0.00  0.00    +0.000 A 
ATOM      4  C   UNL     1       4.839   6.795  17.108  0.00  0.00    +0.000 A 
ATOM      5  C   UNL     1       4.394   5.871  18.057  0.00  0.00    +0.000 A 
ATOM      6  C   UNL     1       3.245   6.116  18.810  0.00  0.00    +0.000 A 
ENDROOT
BRANCH   1   8
ATOM      7  O   UNL     1       1.702   7.097  20.756  0.00  0.00    +0.000 OA
ATOM      8  C   UNL     1       1.671   7.802  19.745  0.00  0.00    +0.000 C 
ATOM      9  N   UNL     1       0.885   8.953  19.564  0.00  0.00    +0.000 N 
ATOM     10  C   UNL     1       0.885   9.771  18.342  0.00  0.00    +0.000 C 
ATOM     11  C   UNL     1       1.251  11.216  18.592  0.00  0.00    +0.000 C 
ATOM     12  C   UNL     1       0.341  11.836  19.629  0.00  0.00    +0.000 C 
ATOM     13  C   UNL     1       0.054  10.919  20.785  0.00  0.00    +0.000 A 
ATOM     14  C   UNL     1      -0.373  11.497  21.993  0.00  0.00    +0.000 A 
ATOM     15  C   UNL     1      -0.674  10.705  23.099  0.00  0.00    +0.000 A 
ATOM     16  C   UNL     1      -0.632   9.325  22.984  0.00  0.00    +0.000 A 
ATOM     17  C   UNL     1      -0.215   8.741  21.787  0.00  0.00    +0.000 A 
ATOM     18  C   UNL     1       0.207   9.524  20.699  0.00  0.00    +0.000 A 
ENDBRANCH   1   8
BRANCH   5  19
ATOM     19  S   UNL     1       5.447   4.556  18.625  0.00  0.00    +0.000 S 
ATOM     20  O   UNL     1       6.467   4.358  17.625  0.00  0.00    +0.000 OA
ATOM     21  O   UNL     1       5.776   4.827  20.015  0.00  0.00    +0.000 OA
BRANCH  19  22
ATOM     22  N   UNL     1       4.371   3.239  18.601  0.00  0.00    +0.000 N 
ATOM     23  C   UNL     1       3.556   3.015  17.345  0.00  0.00    +0.000 C 
ATOM     24  C   UNL     1       2.675   1.837  17.740  0.00  0.00    +0.000 C 
ATOM     25  C   UNL     1       2.315   2.345  19.100  0.00  0.00    +0.000 A 
ATOM     26  C   UNL     1       1.088   2.288  19.722  0.00  0.00    +0.000 A 
ATOM     27  C   UNL     1       0.960   2.958  20.935  0.00  0.00    +0.000 A 
ATOM     28  C   UNL     1       2.074   3.575  21.541  0.00  0.00    +0.000 A 
ATOM     29  C   UNL     1       3.318   3.622  20.900  0.00  0.00    +0.000 A 
ATOM     30  C   UNL     1       3.381   3.090  19.632  0.00  0.00    +0.000 A 
ENDBRANCH  19  22
ENDBRANCH   5  19
TORSDOF 3
ENDMDL
MODEL 4
REMARK VINA RESULT:      -8.3      2.623      9.382
REMARK  Name = 
REMARK  3 active torsions:
REMARK  status: ('A' for Active; 'I' for Inactive)
REMARK    1  A    between atoms: C_2  and  C_3
REMARK    2  A    between atoms: C_7  and  S_8
REMARK    3  A    between atoms: S_8  and  N_11
REMARK                            x       y       z     vdW  Elec       q    Type
REMARK                         _______ _______ _______ _____ _____    ______ ____
ROOT
ATOM      1  C   UNL     1       2.176   7.635  18.985  0.00  0.00    +0.000 A 
ATOM      2  C   UNL     1       2.023   6.945  20.192  0.00  0.00    +0.000 A 
ATOM      3  C   UNL     1       1.361   7.541  21.267  0.00  0.00    +0.000 A 
ATOM      4  C   UNL     1       0.890   8.852  21.153  0.00  0.00    +0.000 A 
ATOM      5  C   UNL     1       1.033   9.526  19.938  0.00  0.00    +0.000 A 
ATOM      6  C   UNL     1       1.627   8.902  18.839  0.00  0.00    +0.000 A 
ENDROOT
BRANCH   1   8
ATOM      7  O   UNL     1       4.026   7.972  17.723  0.00  0.00    +0.000 OA
ATOM      8  C   UNL     1       3.170   7.133  18.015  0.00  0.00    +0.000 C 
ATOM      9  N   UNL     1       3.108   5.814  17.532  0.00  0.00    +0.000 N 
ATOM     10  C   UNL     1       2.073   4.841  17.911  0.00  0.00    +0.000 C 
ATOM     11  C   UNL     1       2.637   3.580  18.525  0.00  0.00    +0.000 C 
ATOM     12  C   UNL     1       3.643   2.930  17.603  0.00  0.00    +0.000 C 
ATOM     13  C   UNL     1       4.558   3.919  16.937  0.00  0.00    +0.000 A 
ATOM     14  C   UNL     1       5.787   3.450  16.441  0.00  0.00    +0.000 A 
ATOM     15  C   UNL     1       6.675   4.308  15.797  0.00  0.00    +0.000 A 
ATOM     16  C   UNL     1       6.308   5.625  15.567  0.00  0.00    +0.000 A 
ATOM     17  C   UNL     1       5.088   6.099  16.049  0.00  0.00    +0.000 A 
ATOM     18  C   UNL     1       4.232   5.280  16.805  0.00  0.00    +0.000 A 
ENDBRANCH   1   8
BRANCH   5  19
ATOM     19  S   UNL     1       0.834  11.290  19.834  0.00  0.00    +0.000 S 
ATOM     20  O   UNL     1       1.376  11.856  21.044  0.00  0.00    +0.000 OA
ATOM     21  O   UNL     1       1.292  11.706  18.518  0.00  0.00    +0.000 OA
BRANCH  19  22
ATOM     22  N   UNL     1      -0.861  11.432  19.855  0.00  0.00    +0.000 N 
ATOM     23  C   UNL     1      -1.506  12.350  18.838  0.00  0.00    +0.000 C 
ATOM     24  C   UNL     1      -2.976  12.280  19.230  0.00  0.00    +0.000 C 
ATOM     25  C   UNL     1      -2.763  12.398  20.706  0.00  0.00    +0.000 A 
ATOM     26  C   UNL     1      -3.505  13.127  21.607  0.00  0.00    +0.000 A 
ATOM     27  C   UNL     1      -3.027  13.199  22.912  0.00  0.00    +0.000 A 
ATOM     28  C   UNL     1      -1.889  12.466  23.306  0.00  0.00    +0.000 A 
ATOM     29  C   UNL     1      -1.144  11.725  22.379  0.00  0.00    +0.000 A 
ATOM     30  C   UNL     1      -1.545  11.795  21.065  0.00  0.00    +0.000 A 
ENDBRANCH  19  22
ENDBRANCH   5  19
TORSDOF 3
ENDMDL
MODEL 5
REMARK VINA RESULT:      -8.3      2.395      8.505
REMARK  Name = 
REMARK  3 active torsions:
REMARK  status: ('A' for Active; 'I' for Inactive)
REMARK    1  A    between atoms: C_2  and  C_3
REMARK    2  A    between atoms: C_7  and  S_8
REMARK    3  A    between atoms: S_8  and  N_11
REMARK                            x       y       z     vdW  Elec       q    Type
REMARK                         _______ _______ _______ _____ _____    ______ ____
ROOT
ATOM      1  C   UNL     1       1.358   8.539  19.866  0.00  0.00    +0.000 A 
ATOM      2  C   UNL     1       1.226   8.201  21.216  0.00  0.00    +0.000 A 
ATOM      3  C   UNL     1       0.674   9.110  22.121  0.00  0.00    +0.000 A 
ATOM      4  C   UNL     1       0.297  10.382  21.685  0.00  0.00    +0.000 A 
ATOM      5  C   UNL     1       0.418  10.705  20.331  0.00  0.00    +0.000 A 
ATOM      6  C   UNL     1       0.898   9.769  19.413  0.00  0.00    +0.000 A 
ENDROOT
BRANCH   1   8
ATOM      7  O   UNL     1       2.953   8.392  18.265  0.00  0.00    +0.000 OA
ATOM      8  C   UNL     1       2.253   7.719  19.025  0.00  0.00    +0.000 C 
ATOM      9  N   UNL     1       2.277   6.318  19.145  0.00  0.00    +0.000 N 
ATOM     10  C   UNL     1       1.429   5.552  20.071  0.00  0.00    +0.000 C 
ATOM     11  C   UNL     1       2.220   4.698  21.035  0.00  0.00    +0.000 C 
ATOM     12  C   UNL     1       3.152   3.764  20.296  0.00  0.00    +0.000 C 
ATOM     13  C   UNL     1       3.838   4.418  19.129  0.00  0.00    +0.000 A 
ATOM     14  C   UNL     1       5.029   3.839  18.656  0.00  0.00    +0.000 A 
ATOM     15  C   UNL     1       5.706   4.382  17.567  0.00  0.00    +0.000 A 
ATOM     16  C   UNL     1       5.158   5.459  16.887  0.00  0.00    +0.000 A 
ATOM     17  C   UNL     1       3.974   6.037  17.345  0.00  0.00    +0.000 A 
ATOM     18  C   UNL     1       3.338   5.578  18.511  0.00  0.00    +0.000 A 
ENDBRANCH   1   8
BRANCH   5  19
ATOM     19  S   UNL     1       0.345  12.393  19.776  0.00  0.00    +0.000 S 
ATOM     20  O   UNL     1       0.691  13.230  20.897  0.00  0.00    +0.000 OA
ATOM     21  O   UNL     1       1.059  12.469  18.511  0.00  0.00    +0.000 OA
BRANCH  19  22
ATOM     22  N   UNL     1      -1.314  12.557  19.439  0.00  0.00    +0.000 N 
ATOM     23  C   UNL     1      -2.286  12.423  20.593  0.00  0.00    +0.000 C 
ATOM     24  C   UNL     1      -3.633  12.536  19.891  0.00  0.00    +0.000 C 
ATOM     25  C   UNL     1      -3.299  11.639  18.741  0.00  0.00    +0.000 A 
ATOM     26  C   UNL     1      -4.106  10.692  18.152  0.00  0.00    +0.000 A 
ATOM     27  C   UNL     1      -3.525   9.877  17.185  0.00  0.00    +0.000 A 
ATOM     28  C   UNL     1      -2.197  10.091  16.762  0.00  0.00    +0.000 A 
ATOM     29  C   UNL     1      -1.388  11.061  17.368  0.00  0.00    +0.000 A 
ATOM     30  C   UNL     1      -1.934  11.748  18.427  0.00  0.00    +0.000 A 
ENDBRANCH  19  22
ENDBRANCH   5  19
TORSDOF 3
ENDMDL
MODEL 6
REMARK VINA RESULT:      -8.2      2.273      8.895
REMARK  Name = 
REMARK  3 active torsions:
REMARK  status: ('A' for Active; 'I' for Inactive)
REMARK    1  A    between atoms: C_2  and  C_3
REMARK    2  A    between atoms: C_7  and  S_8
REMARK    3  A    between atoms: S_8  and  N_11
REMARK                            x       y       z     vdW  Elec       q    Type
REMARK                         _______ _______ _______ _____ _____    ______ ____
ROOT
ATOM      1  C   UNL     1       1.261   8.550  19.806  0.00  0.00    +0.000 A 
ATOM      2  C   UNL     1       1.459   8.385  21.181  0.00  0.00    +0.000 A 
ATOM      3  C   UNL     1       0.769   9.184  22.094  0.00  0.00    +0.000 A 
ATOM      4  C   UNL     1      -0.086  10.187  21.633  0.00  0.00    +0.000 A 
ATOM      5  C   UNL     1      -0.290  10.333  20.258  0.00  0.00    +0.000 A 
ATOM      6  C   UNL     1       0.341   9.484  19.347  0.00  0.00    +0.000 A 
ENDROOT
BRANCH   1   8
ATOM      7  O   UNL     1       2.840   8.796  18.202  0.00  0.00    +0.000 OA
ATOM      8  C   UNL     1       2.248   7.955  18.882  0.00  0.00    +0.000 C 
ATOM      9  N   UNL     1       2.463   6.566  18.849  0.00  0.00    +0.000 N 
ATOM     10  C   UNL     1       1.739   5.596  19.684  0.00  0.00    +0.000 C 
ATOM     11  C   UNL     1       2.650   4.758  20.550  0.00  0.00    +0.000 C 
ATOM     12  C   UNL     1       3.690   4.045  19.715  0.00  0.00    +0.000 C 
ATOM     13  C   UNL     1       4.266   4.909  18.628  0.00  0.00    +0.000 A 
ATOM     14  C   UNL     1       5.518   4.552  18.097  0.00  0.00    +0.000 A 
ATOM     15  C   UNL     1       6.101   5.297  17.075  0.00  0.00    +0.000 A 
ATOM     16  C   UNL     1       5.404   6.356  16.516  0.00  0.00    +0.000 A 
ATOM     17  C   UNL     1       4.158   6.715  17.032  0.00  0.00    +0.000 A 
ATOM     18  C   UNL     1       3.606   6.050  18.140  0.00  0.00    +0.000 A 
ENDBRANCH   1   8
BRANCH   5  19
ATOM     19  S   UNL     1      -1.025  11.807  19.587  0.00  0.00    +0.000 S 
ATOM     20  O   UNL     1      -1.591  12.546  20.688  0.00  0.00    +0.000 OA
ATOM     21  O   UNL     1      -0.060  12.403  18.677  0.00  0.00    +0.000 OA
BRANCH  19  22
ATOM     22  N   UNL     1      -2.280  11.149  18.645  0.00  0.00    +0.000 N 
ATOM     23  C   UNL     1      -2.090  11.111  17.143  0.00  0.00    +0.000 C 
ATOM     24  C   UNL     1      -3.426  10.557  16.665  0.00  0.00    +0.000 C 
ATOM     25  C   UNL     1      -4.285  11.400  17.554  0.00  0.00    +0.000 A 
ATOM     26  C   UNL     1      -5.471  12.020  17.234  0.00  0.00    +0.000 A 
ATOM     27  C   UNL     1      -6.018  12.872  18.188  0.00  0.00    +0.000 A 
ATOM     28  C   UNL     1      -5.430  13.003  19.463  0.00  0.00    +0.000 A 
ATOM     29  C   UNL     1      -4.224  12.363  19.777  0.00  0.00    +0.000 A 
ATOM     30  C   UNL     1      -3.620  11.652  18.766  0.00  0.00    +0.000 A 
ENDBRANCH  19  22
ENDBRANCH   5  19
TORSDOF 3
ENDMDL
MODEL 7
REMARK VINA RESULT:      -8.1      2.097      8.664
REMARK  Name = 
REMARK  3 active torsions:
REMARK  status: ('A' for Active; 'I' for Inactive)
REMARK    1  A    between atoms: C_2  and  C_3
REMARK    2  A    between atoms: C_7  and  S_8
REMARK    3  A    between atoms: S_8  and  N_11
REMARK                            x       y       z     vdW  Elec       q    Type
REMARK                         _______ _______ _______ _____ _____    ______ ____
ROOT
ATOM      1  C   UNL     1       1.504   8.629  20.023  0.00  0.00    +0.000 A 
ATOM      2  C   UNL     1       1.486   9.021  18.681  0.00  0.00    +0.000 A 
ATOM      3  C   UNL     1       1.116  10.320  18.329  0.00  0.00    +0.000 A 
ATOM      4  C   UNL     1       0.714  11.220  19.319  0.00  0.00    +0.000 A 
ATOM      5  C   UNL     1       0.751  10.825  20.658  0.00  0.00    +0.000 A 
ATOM      6  C   UNL     1       1.194   9.550  21.016  0.00  0.00    +0.000 A 
ENDROOT
BRANCH   1   8
ATOM      7  O   UNL     1       0.661   6.830  21.110  0.00  0.00    +0.000 OA
ATOM      8  C   UNL     1       1.547   7.185  20.329  0.00  0.00    +0.000 C 
ATOM      9  N   UNL     1       2.508   6.348  19.737  0.00  0.00    +0.000 N 
ATOM     10  C   UNL     1       3.546   6.810  18.802  0.00  0.00    +0.000 C 
ATOM     11  C   UNL     1       3.496   6.111  17.463  0.00  0.00    +0.000 C 
ATOM     12  C   UNL     1       3.583   4.611  17.629  0.00  0.00    +0.000 C 
ATOM     13  C   UNL     1       2.764   4.097  18.780  0.00  0.00    +0.000 A 
ATOM     14  C   UNL     1       2.391   2.741  18.769  0.00  0.00    +0.000 A 
ATOM     15  C   UNL     1       1.647   2.194  19.812  0.00  0.00    +0.000 A 
ATOM     16  C   UNL     1       1.340   2.974  20.916  0.00  0.00    +0.000 A 
ATOM     17  C   UNL     1       1.711   4.319  20.939  0.00  0.00    +0.000 A 
ATOM     18  C   UNL     1       2.357   4.919  19.845  0.00  0.00    +0.000 A 
ENDBRANCH   1   8
BRANCH   5  19
ATOM     19  S   UNL     1      -0.108  11.745  21.914  0.00  0.00    +0.000 S 
ATOM     20  O   UNL     1      -0.133  10.931  23.103  0.00  0.00    +0.000 OA
ATOM     21  O   UNL     1       0.436  13.094  21.918  0.00  0.00    +0.000 OA
BRANCH  19  22
ATOM     22  N   UNL     1      -1.672  11.825  21.252  0.00  0.00    +0.000 N 
ATOM     23  C   UNL     1      -1.883  12.714  20.044  0.00  0.00    +0.000 C 
ATOM     24  C   UNL     1      -3.385  12.592  19.815  0.00  0.00    +0.000 C 
ATOM     25  C   UNL     1      -3.785  12.726  21.250  0.00  0.00    +0.000 A 
ATOM     26  C   UNL     1      -4.849  13.432  21.764  0.00  0.00    +0.000 A 
ATOM     27  C   UNL     1      -4.937  13.527  23.150  0.00  0.00    +0.000 A 
ATOM     28  C   UNL     1      -4.030  12.838  23.981  0.00  0.00    +0.000 A 
ATOM     29  C   UNL     1      -2.953  12.120  23.445  0.00  0.00    +0.000 A 
ATOM     30  C   UNL     1      -2.795  12.170  22.079  0.00  0.00    +0.000 A 
ENDBRANCH  19  22
ENDBRANCH   5  19
TORSDOF 3
ENDMDL
MODEL 8
REMARK VINA RESULT:      -8.1      2.366      8.978
REMARK  Name = 
REMARK  3 active torsions:
REMARK  status: ('A' for Active; 'I' for Inactive)
REMARK    1  A    between atoms: C_2  and  C_3
REMARK    2  A    between atoms: C_7  and  S_8
REMARK    3  A    between atoms: S_8  and  N_11
REMARK                            x       y       z     vdW  Elec       q    Type
REMARK                         _______ _______ _______ _____ _____    ______ ____
ROOT
ATOM      1  C   UNL     1       2.310   7.664  19.254  0.00  0.00    +0.000 A 
ATOM      2  C   UNL     1       2.433   8.233  17.982  0.00  0.00    +0.000 A 
ATOM      3  C   UNL     1       1.910   9.501  17.723  0.00  0.00    +0.000 A 
ATOM      4  C   UNL     1       1.217  10.185  18.724  0.00  0.00    +0.000 A 
ATOM      5  C   UNL     1       1.113   9.615  19.995  0.00  0.00    +0.000 A 
ATOM      6  C   UNL     1       1.703   8.381  20.277  0.00  0.00    +0.000 A 
ENDROOT
BRANCH   1   8
ATOM      7  O   UNL     1       1.689   5.648  20.079  0.00  0.00    +0.000 OA
ATOM      8  C   UNL     1       2.547   6.212  19.395  0.00  0.00    +0.000 C 
ATOM      9  N   UNL     1       3.641   5.592  18.768  0.00  0.00    +0.000 N 
ATOM     10  C   UNL     1       4.639   6.302  17.953  0.00  0.00    +0.000 C 
ATOM     11  C   UNL     1       4.745   5.770  16.542  0.00  0.00    +0.000 C 
ATOM     12  C   UNL     1       5.038   4.287  16.542  0.00  0.00    +0.000 C 
ATOM     13  C   UNL     1       4.255   3.530  17.577  0.00  0.00    +0.000 A 
ATOM     14  C   UNL     1       4.079   2.148  17.391  0.00  0.00    +0.000 A 
ATOM     15  C   UNL     1       3.379   1.382  18.320  0.00  0.00    +0.000 A 
ATOM     16  C   UNL     1       2.919   1.973  19.486  0.00  0.00    +0.000 A 
ATOM     17  C   UNL     1       3.093   3.344  19.684  0.00  0.00    +0.000 A 
ATOM     18  C   UNL     1       3.691   4.154  18.704  0.00  0.00    +0.000 A 
ENDBRANCH   1   8
BRANCH   5  19
ATOM     19  S   UNL     1      -0.069  10.215  21.180  0.00  0.00    +0.000 S 
ATOM     20  O   UNL     1      -0.973   9.131  21.474  0.00  0.00    +0.000 OA
ATOM     21  O   UNL     1       0.670  10.904  22.227  0.00  0.00    +0.000 OA
BRANCH  19  22
ATOM     22  N   UNL     1      -0.882  11.396  20.265  0.00  0.00    +0.000 N 
ATOM     23  C   UNL     1      -1.720  12.414  21.009  0.00  0.00    +0.000 C 
ATOM     24  C   UNL     1      -2.340  13.213  19.870  0.00  0.00    +0.000 C 
ATOM     25  C   UNL     1      -2.700  12.038  19.017  0.00  0.00    +0.000 A 
ATOM     26  C   UNL     1      -3.852  11.849  18.288  0.00  0.00    +0.000 A 
ATOM     27  C   UNL     1      -4.023  10.608  17.683  0.00  0.00    +0.000 A 
ATOM     28  C   UNL     1      -3.006   9.632  17.734  0.00  0.00    +0.000 A 
ATOM     29  C   UNL     1      -1.837   9.838  18.476  0.00  0.00    +0.000 A 
ATOM     30  C   UNL     1      -1.758  11.010  19.194  0.00  0.00    +0.000 A 
ENDBRANCH  19  22
ENDBRANCH   5  19
TORSDOF 3
ENDMDL
MODEL 9
REMARK VINA RESULT:      -8.1      4.122      6.781
REMARK  Name = 
REMARK  3 active torsions:
REMARK  status: ('A' for Active; 'I' for Inactive)
REMARK    1  A    between atoms: C_2  and  C_3
REMARK    2  A    between atoms: C_7  and  S_8
REMARK    3  A    between atoms: S_8  and  N_11
REMARK                            x       y       z     vdW  Elec       q    Type
REMARK                         _______ _______ _______ _____ _____    ______ ____
ROOT
ATOM      1  C   UNL     1       2.525   7.150  18.342  0.00  0.00    +0.000 A 
ATOM      2  C   UNL     1       1.655   6.093  18.628  0.00  0.00    +0.000 A 
ATOM      3  C   UNL     1       1.971   4.792  18.233  0.00  0.00    +0.000 A 
ATOM      4  C   UNL     1       3.139   4.551  17.506  0.00  0.00    +0.000 A 
ATOM      5  C   UNL     1       4.010   5.611  17.240  0.00  0.00    +0.000 A 
ATOM      6  C   UNL     1       3.731   6.898  17.701  0.00  0.00    +0.000 A 
ENDROOT
BRANCH   1   8
ATOM      7  O   UNL     1       2.011   9.131  17.371  0.00  0.00    +0.000 OA
ATOM      8  C   UNL     1       2.007   8.530  18.448  0.00  0.00    +0.000 C 
ATOM      9  N   UNL     1       1.545   9.037  19.675  0.00  0.00    +0.000 N 
ATOM     10  C   UNL     1       1.550   8.282  20.937  0.00  0.00    +0.000 C 
ATOM     11  C   UNL     1       0.178   8.153  21.560  0.00  0.00    +0.000 C 
ATOM     12  C   UNL     1      -0.453   9.511  21.772  0.00  0.00    +0.000 C 
ATOM     13  C   UNL     1      -0.232  10.450  20.620  0.00  0.00    +0.000 A 
ATOM     14  C   UNL     1      -1.115  11.535  20.476  0.00  0.00    +0.000 A 
ATOM     15  C   UNL     1      -0.958  12.454  19.442  0.00  0.00    +0.000 A 
ATOM     16  C   UNL     1       0.130  12.347  18.590  0.00  0.00    +0.000 A 
ATOM     17  C   UNL     1       1.015  11.277  18.727  0.00  0.00    +0.000 A 
ATOM     18  C   UNL     1       0.807  10.274  19.689  0.00  0.00    +0.000 A 
ENDBRANCH   1   8
BRANCH   5  19
ATOM     19  S   UNL     1       5.281   5.470  16.004  0.00  0.00    +0.000 S 
ATOM     20  O   UNL     1       5.096   4.206  15.338  0.00  0.00    +0.000 OA
ATOM     21  O   UNL     1       5.320   6.726  15.272  0.00  0.00    +0.000 OA
BRANCH  19  22
ATOM     22  N   UNL     1       6.676   5.399  16.974  0.00  0.00    +0.000 N 
ATOM     23  C   UNL     1       6.577   4.679  18.303  0.00  0.00    +0.000 C 
ATOM     24  C   UNL     1       7.962   4.908  18.895  0.00  0.00    +0.000 C 
ATOM     25  C   UNL     1       8.061   6.357  18.535  0.00  0.00    +0.000 A 
ATOM     26  C   UNL     1       8.571   7.380  19.302  0.00  0.00    +0.000 A 
ATOM     27  C   UNL     1       8.426   8.673  18.810  0.00  0.00    +0.000 A 
ATOM     28  C   UNL     1       7.874   8.904  17.532  0.00  0.00    +0.000 A 
ATOM     29  C   UNL     1       7.362   7.852  16.761  0.00  0.00    +0.000 A 
ATOM     30  C   UNL     1       7.374   6.601  17.334  0.00  0.00    +0.000 A 
ENDBRANCH  19  22
ENDBRANCH   5  19
TORSDOF 3
ENDMDL
