MODEL 1
REMARK VINA RESULT:      -8.7      0.000      0.000
REMARK  Name = 
REMARK  4 active torsions:
REMARK  status: ('A' for Active; 'I' for Inactive)
REMARK    1  A    between atoms: C_1  and  C_2
REMARK    2  A    between atoms: C_3  and  C_4
REMARK    3  A    between atoms: C_4  and  N_5
REMARK    4  A    between atoms: C_6  and  C_8
REMARK                            x       y       z     vdW  Elec       q    Type
REMARK                         _______ _______ _______ _____ _____    ______ ____
ROOT
ATOM      1  N   UNL     1       4.019   5.403  20.032  0.00  0.00    +0.000 N 
ATOM      2  C   UNL     1       4.668   4.327  19.457  0.00  0.00    +0.000 C 
ATOM      3  O   UNL     1       4.190   3.216  19.285  0.00  0.00    +0.000 OA
ATOM      4  H   UNL     1       4.511   6.287  19.929  0.00  0.00    +0.000 HD
ENDROOT
BRANCH   2   5
ATOM      5  C   UNL     1       5.975   4.702  18.765  0.00  0.00    +0.000 A 
ATOM      6  N   UNL     1       6.837   5.326  19.522  0.00  0.00    +0.000 NA
ATOM      7  N   UNL     1       7.722   6.153  18.883  0.00  0.00    +0.000 N 
ATOM      8  C   UNL     1       7.439   6.675  17.629  0.00  0.00    +0.000 A 
ATOM      9  O   UNL     1       7.798   7.789  17.271  0.00  0.00    +0.000 OA
ATOM     10  C   UNL     1       6.720   5.754  16.730  0.00  0.00    +0.000 A 
ATOM     11  C   UNL     1       6.752   5.933  15.346  0.00  0.00    +0.000 A 
ATOM     12  C   UNL     1       6.232   4.937  14.521  0.00  0.00    +0.000 A 
ATOM     13  C   UNL     1       5.691   3.773  15.083  0.00  0.00    +0.000 A 
ATOM     14  C   UNL     1       5.596   3.635  16.476  0.00  0.00    +0.000 A 
ATOM     15  C   UNL     1       6.088   4.658  17.295  0.00  0.00    +0.000 A 
ATOM     16  H   UNL     1       8.237   6.778  19.500  0.00  0.00    +0.000 HD
ENDBRANCH   2   5
BRANCH   1  17
ATOM     17  C   UNL     1       2.579   5.486  19.931  0.00  0.00    +0.000 C 
BRANCH  17  20
ATOM     18  C   UNL     1       3.261   7.409  17.364  0.00  0.00    +0.000 C 
ATOM     19  C   UNL     1       2.451   7.722  18.565  0.00  0.00    +0.000 A 
ATOM     20  C   UNL     1       2.171   6.878  19.630  0.00  0.00    +0.000 A 
ATOM     21  O   UNL     1       1.415   7.522  20.564  0.00  0.00    +0.000 OA
ATOM     22  C   UNL     1       1.211   8.789  20.115  0.00  0.00    +0.000 A 
ATOM     23  C   UNL     1       0.502   9.788  20.786  0.00  0.00    +0.000 A 
ATOM     24  C   UNL     1       0.414  11.030  20.153  0.00  0.00    +0.000 A 
ATOM     25  C   UNL     1       1.014  11.231  18.902  0.00  0.00    +0.000 A 
ATOM     26  F   UNL     1       0.890  12.423  18.309  0.00  0.00    +0.000 F 
ATOM     27  C   UNL     1       1.715  10.219  18.248  0.00  0.00    +0.000 A 
ATOM     28  C   UNL     1       1.818   8.964  18.876  0.00  0.00    +0.000 A 
ENDBRANCH  17  20
ENDBRANCH   1  17
TORSDOF 3
ENDMDL
MODEL 2
REMARK VINA RESULT:      -8.7      0.887      1.116
REMARK  Name = 
REMARK  4 active torsions:
REMARK  status: ('A' for Active; 'I' for Inactive)
REMARK    1  A    between atoms: C_1  and  C_2
REMARK    2  A    between atoms: C_3  and  C_4
REMARK    3  A    between atoms: C_4  and  N_5
REMARK    4  A    between atoms: C_6  and  C_8
REMARK                            x       y       z     vdW  Elec       q    Type
REMARK                         _______ _______ _______ _____ _____    ______ ____
ROOT
ATOM      1  N   UNL     1       3.822   5.772  19.800  0.00  0.00    +0.000 N 
ATOM      2  C   UNL     1       4.543   4.616  19.572  0.00  0.00    +0.000 C 
ATOM      3  O   UNL     1       4.121   3.476  19.694  0.00  0.00    +0.000 OA
ATOM      4  H   UNL     1       4.282   6.620  19.477  0.00  0.00    +0.000 HD
ENDROOT
BRANCH   2   5
ATOM      5  C   UNL     1       5.868   4.857  18.854  0.00  0.00    +0.000 A 
ATOM      6  N   UNL     1       6.786   5.438  19.579  0.00  0.00    +0.000 NA
ATOM      7  N   UNL     1       7.728   6.164  18.900  0.00  0.00    +0.000 N 
ATOM      8  C   UNL     1       7.474   6.659  17.630  0.00  0.00    +0.000 A 
ATOM      9  O   UNL     1       7.918   7.725  17.225  0.00  0.00    +0.000 OA
ATOM     10  C   UNL     1       6.673   5.765  16.773  0.00  0.00    +0.000 A 
ATOM     11  C   UNL     1       6.704   5.887  15.383  0.00  0.00    +0.000 A 
ATOM     12  C   UNL     1       6.095   4.906  14.602  0.00  0.00    +0.000 A 
ATOM     13  C   UNL     1       5.468   3.813  15.214  0.00  0.00    +0.000 A 
ATOM     14  C   UNL     1       5.378   3.736  16.612  0.00  0.00    +0.000 A 
ATOM     15  C   UNL     1       5.961   4.747  17.386  0.00  0.00    +0.000 A 
ATOM     16  H   UNL     1       8.299   6.769  19.488  0.00  0.00    +0.000 HD
ENDBRANCH   2   5
BRANCH   1  17
ATOM     17  C   UNL     1       2.387   5.747  19.624  0.00  0.00    +0.000 C 
BRANCH  17  20
ATOM     18  C   UNL     1       2.333   8.489  17.828  0.00  0.00    +0.000 C 
ATOM     19  C   UNL     1       1.788   8.263  19.186  0.00  0.00    +0.000 A 
ATOM     20  C   UNL     1       1.816   7.082  19.915  0.00  0.00    +0.000 A 
ATOM     21  O   UNL     1       1.238   7.260  21.137  0.00  0.00    +0.000 OA
ATOM     22  C   UNL     1       0.842   8.559  21.211  0.00  0.00    +0.000 A 
ATOM     23  C   UNL     1       0.224   9.162  22.309  0.00  0.00    +0.000 A 
ATOM     24  C   UNL     1      -0.098  10.516  22.184  0.00  0.00    +0.000 A 
ATOM     25  C   UNL     1       0.193  11.206  20.999  0.00  0.00    +0.000 A 
ATOM     26  F   UNL     1      -0.150  12.494  20.900  0.00  0.00    +0.000 F 
ATOM     27  C   UNL     1       0.809  10.585  19.914  0.00  0.00    +0.000 A 
ATOM     28  C   UNL     1       1.145   9.222  20.026  0.00  0.00    +0.000 A 
ENDBRANCH  17  20
ENDBRANCH   1  17
TORSDOF 3
ENDMDL
MODEL 3
REMARK VINA RESULT:      -8.5      4.082      7.271
REMARK  Name = 
REMARK  4 active torsions:
REMARK  status: ('A' for Active; 'I' for Inactive)
REMARK    1  A    between atoms: C_1  and  C_2
REMARK    2  A    between atoms: C_3  and  C_4
REMARK    3  A    between atoms: C_4  and  N_5
REMARK    4  A    between atoms: C_6  and  C_8
REMARK                            x       y       z     vdW  Elec       q    Type
REMARK                         _______ _______ _______ _____ _____    ______ ____
ROOT
ATOM      1  N   UNL     1       6.120   5.650  18.576  0.00  0.00    +0.000 N 
ATOM      2  C   UNL     1       4.951   5.640  19.313  0.00  0.00    +0.000 C 
ATOM      3  O   UNL     1       4.178   6.579  19.436  0.00  0.00    +0.000 OA
ATOM      4  H   UNL     1       6.537   4.730  18.448  0.00  0.00    +0.000 HD
ENDROOT
BRANCH   2   5
ATOM      5  C   UNL     1       4.519   4.244  19.753  0.00  0.00    +0.000 A 
ATOM      6  N   UNL     1       5.463   3.342  19.721  0.00  0.00    +0.000 NA
ATOM      7  N   UNL     1       5.060   2.045  19.549  0.00  0.00    +0.000 N 
ATOM      8  C   UNL     1       3.836   1.745  18.970  0.00  0.00    +0.000 A 
ATOM      9  O   UNL     1       3.653   0.765  18.261  0.00  0.00    +0.000 OA
ATOM     10  C   UNL     1       2.745   2.670  19.330  0.00  0.00    +0.000 A 
ATOM     11  C   UNL     1       1.410   2.283  19.214  0.00  0.00    +0.000 A 
ATOM     12  C   UNL     1       0.417   3.104  19.746  0.00  0.00    +0.000 A 
ATOM     13  C   UNL     1       0.766   4.297  20.392  0.00  0.00    +0.000 A 
ATOM     14  C   UNL     1       2.104   4.714  20.439  0.00  0.00    +0.000 A 
ATOM     15  C   UNL     1       3.090   3.900  19.868  0.00  0.00    +0.000 A 
ATOM     16  H   UNL     1       5.812   1.397  19.321  0.00  0.00    +0.000 HD
ENDBRANCH   2   5
BRANCH   1  17
ATOM     17  C   UNL     1       6.222   6.535  17.438  0.00  0.00    +0.000 C 
BRANCH  17  20
ATOM     18  C   UNL     1       3.982   4.374  16.406  0.00  0.00    +0.000 C 
ATOM     19  C   UNL     1       5.214   4.829  15.720  0.00  0.00    +0.000 A 
ATOM     20  C   UNL     1       6.137   5.757  16.181  0.00  0.00    +0.000 A 
ATOM     21  O   UNL     1       7.156   5.903  15.288  0.00  0.00    +0.000 OA
ATOM     22  C   UNL     1       6.906   5.061  14.249  0.00  0.00    +0.000 A 
ATOM     23  C   UNL     1       7.721   4.885  13.127  0.00  0.00    +0.000 A 
ATOM     24  C   UNL     1       7.284   3.963  12.173  0.00  0.00    +0.000 A 
ATOM     25  C   UNL     1       6.081   3.268  12.357  0.00  0.00    +0.000 A 
ATOM     26  F   UNL     1       5.678   2.411  11.414  0.00  0.00    +0.000 F 
ATOM     27  C   UNL     1       5.282   3.461  13.483  0.00  0.00    +0.000 A 
ATOM     28  C   UNL     1       5.710   4.382  14.457  0.00  0.00    +0.000 A 
ENDBRANCH  17  20
ENDBRANCH   1  17
TORSDOF 3
ENDMDL
MODEL 4
REMARK VINA RESULT:      -8.4      4.037      8.402
REMARK  Name = 
REMARK  4 active torsions:
REMARK  status: ('A' for Active; 'I' for Inactive)
REMARK    1  A    between atoms: C_1  and  C_2
REMARK    2  A    between atoms: C_3  and  C_4
REMARK    3  A    between atoms: C_4  and  N_5
REMARK    4  A    between atoms: C_6  and  C_8
REMARK                            x       y       z     vdW  Elec       q    Type
REMARK                         _______ _______ _______ _____ _____    ______ ____
ROOT
ATOM      1  N   UNL     1       1.980   8.520  18.767  0.00  0.00    +0.000 N 
ATOM      2  C   UNL     1       1.571   9.836  18.663  0.00  0.00    +0.000 C 
ATOM      3  O   UNL     1       2.175  10.727  18.085  0.00  0.00    +0.000 OA
ATOM      4  H   UNL     1       1.266   7.891  19.128  0.00  0.00    +0.000 HD
ENDROOT
BRANCH   2   5
ATOM      5  C   UNL     1       0.121  10.059  19.086  0.00  0.00    +0.000 A 
ATOM      6  N   UNL     1      -0.674  10.457  18.129  0.00  0.00    +0.000 NA
ATOM      7  N   UNL     1      -1.767  11.187  18.510  0.00  0.00    +0.000 N 
ATOM      8  C   UNL     1      -1.789  11.870  19.717  0.00  0.00    +0.000 A 
ATOM      9  O   UNL     1      -2.362  12.940  19.871  0.00  0.00    +0.000 OA
ATOM     10  C   UNL     1      -1.116  11.172  20.828  0.00  0.00    +0.000 A 
ATOM     11  C   UNL     1      -1.418  11.479  22.155  0.00  0.00    +0.000 A 
ATOM     12  C   UNL     1      -0.913  10.668  23.171  0.00  0.00    +0.000 A 
ATOM     13  C   UNL     1      -0.120   9.558  22.852  0.00  0.00    +0.000 A 
ATOM     14  C   UNL     1       0.239   9.300  21.521  0.00  0.00    +0.000 A 
ATOM     15  C   UNL     1      -0.243  10.143  20.512  0.00  0.00    +0.000 A 
ATOM     16  H   UNL     1      -2.250  11.656  17.745  0.00  0.00    +0.000 HD
ENDBRANCH   2   5
BRANCH   1  17
ATOM     17  C   UNL     1       2.820   7.966  17.730  0.00  0.00    +0.000 C 
BRANCH  17  20
ATOM     18  C   UNL     1       4.962   5.854  16.425  0.00  0.00    +0.000 C 
ATOM     19  C   UNL     1       3.877   5.588  17.398  0.00  0.00    +0.000 A 
ATOM     20  C   UNL     1       2.994   6.511  17.941  0.00  0.00    +0.000 A 
ATOM     21  O   UNL     1       2.117   5.894  18.783  0.00  0.00    +0.000 OA
ATOM     22  C   UNL     1       2.420   4.567  18.781  0.00  0.00    +0.000 A 
ATOM     23  C   UNL     1       1.744   3.576  19.497  0.00  0.00    +0.000 A 
ATOM     24  C   UNL     1       2.212   2.267  19.352  0.00  0.00    +0.000 A 
ATOM     25  C   UNL     1       3.310   1.996  18.525  0.00  0.00    +0.000 A 
ATOM     26  F   UNL     1       3.750   0.738  18.426  0.00  0.00    +0.000 F 
ATOM     27  C   UNL     1       3.971   3.001  17.821  0.00  0.00    +0.000 A 
ATOM     28  C   UNL     1       3.509   4.324  17.952  0.00  0.00    +0.000 A 
ENDBRANCH  17  20
ENDBRANCH   1  17
TORSDOF 3
ENDMDL
MODEL 5
REMARK VINA RESULT:      -8.3      2.641      4.562
REMARK  Name = 
REMARK  4 active torsions:
REMARK  status: ('A' for Active; 'I' for Inactive)
REMARK    1  A    between atoms: C_1  and  C_2
REMARK    2  A    between atoms: C_3  and  C_4
REMARK    3  A    between atoms: C_4  and  N_5
REMARK    4  A    between atoms: C_6  and  C_8
REMARK                            x       y       z     vdW  Elec       q    Type
REMARK                         _______ _______ _______ _____ _____    ______ ____
ROOT
ATOM      1  N   UNL     1       2.479   6.989  17.993  0.00  0.00    +0.000 N 
ATOM      2  C   UNL     1       3.680   6.374  17.696  0.00  0.00    +0.000 C 
ATOM      3  O   UNL     1       4.560   6.836  16.985  0.00  0.00    +0.000 OA
ATOM      4  H   UNL     1       1.953   6.536  18.737  0.00  0.00    +0.000 HD
ENDROOT
BRANCH   2   5
ATOM      5  C   UNL     1       3.976   5.159  18.571  0.00  0.00    +0.000 A 
ATOM      6  N   UNL     1       5.125   4.584  18.339  0.00  0.00    +0.000 NA
ATOM      7  N   UNL     1       5.211   3.252  18.642  0.00  0.00    +0.000 N 
ATOM      8  C   UNL     1       4.076   2.458  18.717  0.00  0.00    +0.000 A 
ATOM      9  O   UNL     1       4.059   1.281  18.385  0.00  0.00    +0.000 OA
ATOM     10  C   UNL     1       2.897   3.130  19.293  0.00  0.00    +0.000 A 
ATOM     11  C   UNL     1       1.848   2.391  19.842  0.00  0.00    +0.000 A 
ATOM     12  C   UNL     1       0.848   3.055  20.551  0.00  0.00    +0.000 A 
ATOM     13  C   UNL     1       0.908   4.446  20.710  0.00  0.00    +0.000 A 
ATOM     14  C   UNL     1       1.926   5.188  20.093  0.00  0.00    +0.000 A 
ATOM     15  C   UNL     1       2.904   4.515  19.352  0.00  0.00    +0.000 A 
ATOM     16  H   UNL     1       6.035   2.786  18.265  0.00  0.00    +0.000 HD
ENDBRANCH   2   5
BRANCH   1  17
ATOM     17  C   UNL     1       2.412   8.433  17.986  0.00  0.00    +0.000 C 
BRANCH  17  20
ATOM     18  C   UNL     1      -0.107  10.531  18.038  0.00  0.00    +0.000 C 
ATOM     19  C   UNL     1       0.512   9.801  19.169  0.00  0.00    +0.000 A 
ATOM     20  C   UNL     1       1.573   8.908  19.109  0.00  0.00    +0.000 A 
ATOM     21  O   UNL     1       1.885   8.453  20.356  0.00  0.00    +0.000 OA
ATOM     22  C   UNL     1       1.036   9.058  21.231  0.00  0.00    +0.000 A 
ATOM     23  C   UNL     1       1.034   8.884  22.617  0.00  0.00    +0.000 A 
ATOM     24  C   UNL     1       0.080   9.605  23.339  0.00  0.00    +0.000 A 
ATOM     25  C   UNL     1      -0.820  10.450  22.675  0.00  0.00    +0.000 A 
ATOM     26  F   UNL     1      -1.738  11.107  23.391  0.00  0.00    +0.000 F 
ATOM     27  C   UNL     1      -0.802  10.607  21.290  0.00  0.00    +0.000 A 
ATOM     28  C   UNL     1       0.157   9.891  20.549  0.00  0.00    +0.000 A 
ENDBRANCH  17  20
ENDBRANCH   1  17
TORSDOF 3
ENDMDL
MODEL 6
REMARK VINA RESULT:      -8.1      4.334      8.288
REMARK  Name = 
REMARK  4 active torsions:
REMARK  status: ('A' for Active; 'I' for Inactive)
REMARK    1  A    between atoms: C_1  and  C_2
REMARK    2  A    between atoms: C_3  and  C_4
REMARK    3  A    between atoms: C_4  and  N_5
REMARK    4  A    between atoms: C_6  and  C_8
REMARK                            x       y       z     vdW  Elec       q    Type
REMARK                         _______ _______ _______ _____ _____    ______ ____
ROOT
ATOM      1  N   UNL     1       1.659   9.137  17.837  0.00  0.00    +0.000 N 
ATOM      2  C   UNL     1       0.980   9.665  18.918  0.00  0.00    +0.000 C 
ATOM      3  O   UNL     1       1.164   9.370  20.090  0.00  0.00    +0.000 OA
ATOM      4  H   UNL     1       1.495   9.630  16.963  0.00  0.00    +0.000 HD
ENDROOT
BRANCH   2   5
ATOM      5  C   UNL     1       0.149  10.898  18.573  0.00  0.00    +0.000 A 
ATOM      6  N   UNL     1       0.664  12.033  18.963  0.00  0.00    +0.000 NA
ATOM      7  N   UNL     1      -0.219  13.053  19.198  0.00  0.00    +0.000 N 
ATOM      8  C   UNL     1      -1.552  12.797  19.483  0.00  0.00    +0.000 A 
ATOM      9  O   UNL     1      -2.217  13.483  20.247  0.00  0.00    +0.000 OA
ATOM     10  C   UNL     1      -2.130  11.663  18.740  0.00  0.00    +0.000 A 
ATOM     11  C   UNL     1      -3.509  11.549  18.564  0.00  0.00    +0.000 A 
ATOM     12  C   UNL     1      -4.005  10.579  17.693  0.00  0.00    +0.000 A 
ATOM     13  C   UNL     1      -3.121   9.739  17.004  0.00  0.00    +0.000 A 
ATOM     14  C   UNL     1      -1.740   9.811  17.243  0.00  0.00    +0.000 A 
ATOM     15  C   UNL     1      -1.256  10.764  18.147  0.00  0.00    +0.000 A 
ATOM     16  H   UNL     1       0.179  13.849  19.694  0.00  0.00    +0.000 HD
ENDBRANCH   2   5
BRANCH   1  17
ATOM     17  C   UNL     1       3.009   8.655  18.027  0.00  0.00    +0.000 C 
BRANCH  17  20
ATOM     18  C   UNL     1       4.978   6.560  16.453  0.00  0.00    +0.000 C 
ATOM     19  C   UNL     1       3.834   6.261  17.345  0.00  0.00    +0.000 A 
ATOM     20  C   UNL     1       3.027   7.175  18.008  0.00  0.00    +0.000 A 
ATOM     21  O   UNL     1       2.059   6.530  18.720  0.00  0.00    +0.000 OA
ATOM     22  C   UNL     1       2.228   5.196  18.513  0.00  0.00    +0.000 A 
ATOM     23  C   UNL     1       1.428   4.182  19.046  0.00  0.00    +0.000 A 
ATOM     24  C   UNL     1       1.767   2.870  18.704  0.00  0.00    +0.000 A 
ATOM     25  C   UNL     1       2.865   2.617  17.871  0.00  0.00    +0.000 A 
ATOM     26  F   UNL     1       3.180   1.350  17.583  0.00  0.00    +0.000 F 
ATOM     27  C   UNL     1       3.651   3.645  17.352  0.00  0.00    +0.000 A 
ATOM     28  C   UNL     1       3.319   4.972  17.682  0.00  0.00    +0.000 A 
ENDBRANCH  17  20
ENDBRANCH   1  17
TORSDOF 3
ENDMDL
MODEL 7
REMARK VINA RESULT:      -8.1      4.411      8.523
REMARK  Name = 
REMARK  4 active torsions:
REMARK  status: ('A' for Active; 'I' for Inactive)
REMARK    1  A    between atoms: C_1  and  C_2
REMARK    2  A    between atoms: C_3  and  C_4
REMARK    3  A    between atoms: C_4  and  N_5
REMARK    4  A    between atoms: C_6  and  C_8
REMARK                            x       y       z     vdW  Elec       q    Type
REMARK                         _______ _______ _______ _____ _____    ______ ____
ROOT
ATOM      1  N   UNL     1       0.823   8.928  19.748  0.00  0.00    +0.000 N 
ATOM      2  C   UNL     1      -0.211   9.459  20.494  0.00  0.00    +0.000 C 
ATOM      3  O   UNL     1      -0.561   9.078  21.601  0.00  0.00    +0.000 OA
ATOM      4  H   UNL     1       1.079   9.486  18.937  0.00  0.00    +0.000 HD
ENDROOT
BRANCH   2   5
ATOM      5  C   UNL     1      -0.731  10.790  19.956  0.00  0.00    +0.000 A 
ATOM      6  N   UNL     1      -0.569  11.807  20.760  0.00  0.00    +0.000 NA
ATOM      7  N   UNL     1      -1.458  12.839  20.621  0.00  0.00    +0.000 N 
ATOM      8  C   UNL     1      -2.704  12.641  20.045  0.00  0.00    +0.000 A 
ATOM      9  O   UNL     1      -3.708  13.244  20.397  0.00  0.00    +0.000 OA
ATOM     10  C   UNL     1      -2.714  11.685  18.922  0.00  0.00    +0.000 A 
ATOM     11  C   UNL     1      -3.737  11.704  17.973  0.00  0.00    +0.000 A 
ATOM     12  C   UNL     1      -3.612  10.925  16.824  0.00  0.00    +0.000 A 
ATOM     13  C   UNL     1      -2.467  10.142  16.630  0.00  0.00    +0.000 A 
ATOM     14  C   UNL     1      -1.477  10.072  17.622  0.00  0.00    +0.000 A 
ATOM     15  C   UNL     1      -1.631  10.830  18.789  0.00  0.00    +0.000 A 
ATOM     16  H   UNL     1      -1.442  13.514  21.384  0.00  0.00    +0.000 HD
ENDBRANCH   2   5
BRANCH   1  17
ATOM     17  C   UNL     1       1.929   8.299  20.435  0.00  0.00    +0.000 C 
BRANCH  17  20
ATOM     18  C   UNL     1       3.465   7.138  17.781  0.00  0.00    +0.000 C 
ATOM     19  C   UNL     1       2.734   6.388  18.829  0.00  0.00    +0.000 A 
ATOM     20  C   UNL     1       2.104   6.911  19.949  0.00  0.00    +0.000 A 
ATOM     21  O   UNL     1       1.515   5.918  20.674  0.00  0.00    +0.000 OA
ATOM     22  C   UNL     1       1.751   4.748  20.021  0.00  0.00    +0.000 A 
ATOM     23  C   UNL     1       1.298   3.487  20.419  0.00  0.00    +0.000 A 
ATOM     24  C   UNL     1       1.645   2.409  19.602  0.00  0.00    +0.000 A 
ATOM     25  C   UNL     1       2.414   2.613  18.448  0.00  0.00    +0.000 A 
ATOM     26  F   UNL     1       2.751   1.558  17.700  0.00  0.00    +0.000 F 
ATOM     27  C   UNL     1       2.857   3.880  18.071  0.00  0.00    +0.000 A 
ATOM     28  C   UNL     1       2.512   4.978  18.881  0.00  0.00    +0.000 A 
ENDBRANCH  17  20
ENDBRANCH   1  17
TORSDOF 3
ENDMDL
MODEL 8
REMARK VINA RESULT:      -8.0      1.778      2.500
REMARK  Name = 
REMARK  4 active torsions:
REMARK  status: ('A' for Active; 'I' for Inactive)
REMARK    1  A    between atoms: C_1  and  C_2
REMARK    2  A    between atoms: C_3  and  C_4
REMARK    3  A    between atoms: C_4  and  N_5
REMARK    4  A    between atoms: C_6  and  C_8
REMARK                            x       y       z     vdW  Elec       q    Type
REMARK                         _______ _______ _______ _____ _____    ______ ____
ROOT
ATOM      1  N   UNL     1       3.027   7.021  18.925  0.00  0.00    +0.000 N 
ATOM      2  C   UNL     1       3.084   5.734  18.424  0.00  0.00    +0.000 C 
ATOM      3  O   UNL     1       2.205   5.179  17.782  0.00  0.00    +0.000 OA
ATOM      4  H   UNL     1       3.915   7.370  19.276  0.00  0.00    +0.000 HD
ENDROOT
BRANCH   2   5
ATOM      5  C   UNL     1       4.481   5.121  18.478  0.00  0.00    +0.000 A 
ATOM      6  N   UNL     1       5.030   5.113  19.663  0.00  0.00    +0.000 NA
ATOM      7  N   UNL     1       6.399   5.119  19.699  0.00  0.00    +0.000 N 
ATOM      8  C   UNL     1       7.143   5.587  18.626  0.00  0.00    +0.000 A 
ATOM      9  O   UNL     1       8.209   6.174  18.755  0.00  0.00    +0.000 OA
ATOM     10  C   UNL     1       6.579   5.264  17.302  0.00  0.00    +0.000 A 
ATOM     11  C   UNL     1       7.384   5.256  16.162  0.00  0.00    +0.000 A 
ATOM     12  C   UNL     1       6.864   4.756  14.969  0.00  0.00    +0.000 A 
ATOM     13  C   UNL     1       5.553   4.265  14.926  0.00  0.00    +0.000 A 
ATOM     14  C   UNL     1       4.727   4.345  16.057  0.00  0.00    +0.000 A 
ATOM     15  C   UNL     1       5.247   4.883  17.241  0.00  0.00    +0.000 A 
ATOM     16  H   UNL     1       6.796   5.321  20.615  0.00  0.00    +0.000 HD
ENDBRANCH   2   5
BRANCH   1  17
ATOM     17  C   UNL     1       2.207   7.999  18.246  0.00  0.00    +0.000 C 
BRANCH  17  20
ATOM     18  C   UNL     1       1.310  11.152  18.201  0.00  0.00    +0.000 C 
ATOM     19  C   UNL     1       1.069  10.137  19.253  0.00  0.00    +0.000 A 
ATOM     20  C   UNL     1       1.453   8.803  19.234  0.00  0.00    +0.000 A 
ATOM     21  O   UNL     1       1.079   8.182  20.388  0.00  0.00    +0.000 OA
ATOM     22  C   UNL     1       0.462   9.112  21.166  0.00  0.00    +0.000 A 
ATOM     23  C   UNL     1      -0.054   8.893  22.445  0.00  0.00    +0.000 A 
ATOM     24  C   UNL     1      -0.647   9.987  23.080  0.00  0.00    +0.000 A 
ATOM     25  C   UNL     1      -0.709  11.231  22.436  0.00  0.00    +0.000 A 
ATOM     26  F   UNL     1      -1.305  12.252  23.059  0.00  0.00    +0.000 F 
ATOM     27  C   UNL     1      -0.190  11.427  21.158  0.00  0.00    +0.000 A 
ATOM     28  C   UNL     1       0.415  10.336  20.506  0.00  0.00    +0.000 A 
ENDBRANCH  17  20
ENDBRANCH   1  17
TORSDOF 3
ENDMDL
MODEL 9
REMARK VINA RESULT:      -8.0      4.298      8.092
REMARK  Name = 
REMARK  4 active torsions:
REMARK  status: ('A' for Active; 'I' for Inactive)
REMARK    1  A    between atoms: C_1  and  C_2
REMARK    2  A    between atoms: C_3  and  C_4
REMARK    3  A    between atoms: C_4  and  N_5
REMARK    4  A    between atoms: C_6  and  C_8
REMARK                            x       y       z     vdW  Elec       q    Type
REMARK                         _______ _______ _______ _____ _____    ______ ____
ROOT
ATOM      1  N   UNL     1       1.021   9.119  20.022  0.00  0.00    +0.000 N 
ATOM      2  C   UNL     1       0.920  10.443  20.404  0.00  0.00    +0.000 C 
ATOM      3  O   UNL     1       0.969  10.860  21.552  0.00  0.00    +0.000 OA
ATOM      4  H   UNL     1       1.137   8.984  19.020  0.00  0.00    +0.000 HD
ENDROOT
BRANCH   2   5
ATOM      5  C   UNL     1       1.033  11.424  19.240  0.00  0.00    +0.000 A 
ATOM      6  N   UNL     1       1.939  11.117  18.351  0.00  0.00    +0.000 NA
ATOM      7  N   UNL     1       2.472  12.158  17.640  0.00  0.00    +0.000 N 
ATOM      8  C   UNL     1       2.440  13.454  18.133  0.00  0.00    +0.000 A 
ATOM      9  O   UNL     1       3.329  14.270  17.931  0.00  0.00    +0.000 OA
ATOM     10  C   UNL     1       1.211  13.798  18.871  0.00  0.00    +0.000 A 
ATOM     11  C   UNL     1       0.823  15.128  19.038  0.00  0.00    +0.000 A 
ATOM     12  C   UNL     1      -0.438  15.406  19.564  0.00  0.00    +0.000 A 
ATOM     13  C   UNL     1      -1.299  14.358  19.913  0.00  0.00    +0.000 A 
ATOM     14  C   UNL     1      -0.872  13.025  19.812  0.00  0.00    +0.000 A 
ATOM     15  C   UNL     1       0.410  12.758  19.317  0.00  0.00    +0.000 A 
ATOM     16  H   UNL     1       3.310  11.923  17.110  0.00  0.00    +0.000 HD
ENDBRANCH   2   5
BRANCH   1  17
ATOM     17  C   UNL     1       1.771   8.206  20.856  0.00  0.00    +0.000 C 
BRANCH  17  20
ATOM     18  C   UNL     1       3.097   7.411  17.965  0.00  0.00    +0.000 C 
ATOM     19  C   UNL     1       2.444   6.526  18.957  0.00  0.00    +0.000 A 
ATOM     20  C   UNL     1       1.903   6.895  20.181  0.00  0.00    +0.000 A 
ATOM     21  O   UNL     1       1.366   5.812  20.812  0.00  0.00    +0.000 OA
ATOM     22  C   UNL     1       1.546   4.739  19.995  0.00  0.00    +0.000 A 
ATOM     23  C   UNL     1       1.119   3.435  20.258  0.00  0.00    +0.000 A 
ATOM     24  C   UNL     1       1.398   2.474  19.282  0.00  0.00    +0.000 A 
ATOM     25  C   UNL     1       2.080   2.832  18.111  0.00  0.00    +0.000 A 
ATOM     26  F   UNL     1       2.355   1.886  17.208  0.00  0.00    +0.000 F 
ATOM     27  C   UNL     1       2.499   4.140  17.870  0.00  0.00    +0.000 A 
ATOM     28  C   UNL     1       2.220   5.121  18.841  0.00  0.00    +0.000 A 
ENDBRANCH  17  20
ENDBRANCH   1  17
TORSDOF 3
ENDMDL
