MODEL 1
REMARK VINA RESULT:      -8.8      0.000      0.000
REMARK  Name = 
REMARK  5 active torsions:
REMARK  status: ('A' for Active; 'I' for Inactive)
REMARK    1  A    between atoms: C_1  and  C_2
REMARK    2  A    between atoms: C_6  and  C_7
REMARK    3  A    between atoms: C_10  and  S_11
REMARK    4  A    between atoms: S_11  and  C_12
REMARK    5  A    between atoms: C_12  and  C_13
REMARK                            x       y       z     vdW  Elec       q    Type
REMARK                         _______ _______ _______ _____ _____    ______ ____
ROOT
ATOM      1  C   UNL     1       4.594   5.028  17.970  0.00  0.00    +0.000 A 
ATOM      2  C   UNL     1       5.373   5.259  19.046  0.00  0.00    +0.000 A 
ATOM      3  C   UNL     1       6.827   5.416  18.991  0.00  0.00    +0.000 A 
ATOM      4  O   UNL     1       7.492   5.484  20.017  0.00  0.00    +0.000 OA
ATOM      5  O   UNL     1       7.371   5.580  17.741  0.00  0.00    +0.000 OA
ATOM      6  C   UNL     1       6.633   5.203  16.604  0.00  0.00    +0.000 A 
ATOM      7  C   UNL     1       7.405   5.138  15.449  0.00  0.00    +0.000 A 
ATOM      8  C   UNL     1       6.815   4.628  14.314  0.00  0.00    +0.000 A 
ATOM      9  C   UNL     1       5.472   4.252  14.310  0.00  0.00    +0.000 A 
ATOM     10  C   UNL     1       4.680   4.387  15.461  0.00  0.00    +0.000 A 
ATOM     11  C   UNL     1       5.267   4.859  16.658  0.00  0.00    +0.000 A 
ATOM     12  C   UNL     1       5.102   3.741  12.941  0.00  0.00    +0.000 C 
ATOM     13  C   UNL     1       6.462   3.615  12.219  0.00  0.00    +0.000 C 
ATOM     14  C   UNL     1       7.511   4.384  13.022  0.00  0.00    +0.000 C 
ENDROOT
BRANCH   1  15
ATOM     15  C   UNL     1       3.099   5.096  18.157  0.00  0.00    +0.000 C 
BRANCH  15  16
ATOM     16  S   UNL     1       2.627   6.025  19.650  0.00  0.00    +0.000 S 
BRANCH  16  20
ATOM     17  C   UNL     1       1.482   9.533  18.582  0.00  0.00    +0.000 A 
ATOM     18  N   UNL     1       2.190   9.208  17.516  0.00  0.00    +0.000 NA
ATOM     19  N   UNL     1       2.714   7.958  17.748  0.00  0.00    +0.000 NA
ATOM     20  C   UNL     1       2.291   7.582  18.937  0.00  0.00    +0.000 A 
ATOM     21  O   UNL     1       1.526   8.547  19.543  0.00  0.00    +0.000 OA
BRANCH  17  27
ATOM     22  C   UNL     1      -1.713  10.079  17.931  0.00  0.00    +0.000 C 
ATOM     23  C   UNL     1      -0.625  10.974  18.376  0.00  0.00    +0.000 A 
ATOM     24  O   UNL     1      -0.965  12.286  18.557  0.00  0.00    +0.000 OA
ATOM     25  C   UNL     1       0.150  12.936  18.982  0.00  0.00    +0.000 A 
ATOM     26  C   UNL     1       1.205  12.062  19.086  0.00  0.00    +0.000 A 
ATOM     27  C   UNL     1       0.710  10.796  18.678  0.00  0.00    +0.000 A 
ENDBRANCH  17  27
ENDBRANCH  16  20
ENDBRANCH  15  16
ENDBRANCH   1  15
TORSDOF 4
ENDMDL
MODEL 2
REMARK VINA RESULT:      -8.6      3.538      8.998
REMARK  Name = 
REMARK  5 active torsions:
REMARK  status: ('A' for Active; 'I' for Inactive)
REMARK    1  A    between atoms: C_1  and  C_2
REMARK    2  A    between atoms: C_6  and  C_7
REMARK    3  A    between atoms: C_10  and  S_11
REMARK    4  A    between atoms: S_11  and  C_12
REMARK    5  A    between atoms: C_12  and  C_13
REMARK                            x       y       z     vdW  Elec       q    Type
REMARK                         _______ _______ _______ _____ _____    ______ ____
ROOT
ATOM      1  C   UNL     1       0.500  10.125  19.630  0.00  0.00    +0.000 A 
ATOM      2  C   UNL     1       0.776  10.934  20.672  0.00  0.00    +0.000 A 
ATOM      3  C   UNL     1      -0.085  12.032  21.114  0.00  0.00    +0.000 A 
ATOM      4  O   UNL     1       0.288  12.817  21.977  0.00  0.00    +0.000 OA
ATOM      5  O   UNL     1      -1.350  12.060  20.580  0.00  0.00    +0.000 OA
ATOM      6  C   UNL     1      -1.626  11.342  19.403  0.00  0.00    +0.000 A 
ATOM      7  C   UNL     1      -2.837  11.698  18.818  0.00  0.00    +0.000 A 
ATOM      8  C   UNL     1      -3.128  11.170  17.580  0.00  0.00    +0.000 A 
ATOM      9  C   UNL     1      -2.267  10.259  16.968  0.00  0.00    +0.000 A 
ATOM     10  C   UNL     1      -1.081   9.850  17.597  0.00  0.00    +0.000 A 
ATOM     11  C   UNL     1      -0.727  10.412  18.845  0.00  0.00    +0.000 A 
ATOM     12  C   UNL     1      -2.842   9.848  15.636  0.00  0.00    +0.000 C 
ATOM     13  C   UNL     1      -4.014  10.834  15.425  0.00  0.00    +0.000 C 
ATOM     14  C   UNL     1      -4.318  11.518  16.758  0.00  0.00    +0.000 C 
ENDROOT
BRANCH   1  15
ATOM     15  C   UNL     1       1.378   8.916  19.427  0.00  0.00    +0.000 C 
BRANCH  15  16
ATOM     16  S   UNL     1       2.347   9.011  17.888  0.00  0.00    +0.000 S 
BRANCH  16  20
ATOM     17  C   UNL     1       3.181   5.265  18.054  0.00  0.00    +0.000 A 
ATOM     18  N   UNL     1       4.349   5.724  17.644  0.00  0.00    +0.000 NA
ATOM     19  N   UNL     1       4.217   7.085  17.498  0.00  0.00    +0.000 NA
ATOM     20  C   UNL     1       2.981   7.385  17.835  0.00  0.00    +0.000 A 
ATOM     21  O   UNL     1       2.251   6.273  18.172  0.00  0.00    +0.000 OA
BRANCH  17  27
ATOM     22  C   UNL     1       1.017   3.932  20.167  0.00  0.00    +0.000 C 
ATOM     23  C   UNL     1       2.041   3.332  19.289  0.00  0.00    +0.000 A 
ATOM     24  O   UNL     1       2.150   1.970  19.337  0.00  0.00    +0.000 OA
ATOM     25  C   UNL     1       3.118   1.611  18.456  0.00  0.00    +0.000 A 
ATOM     26  C   UNL     1       3.634   2.721  17.831  0.00  0.00    +0.000 A 
ATOM     27  C   UNL     1       2.951   3.837  18.382  0.00  0.00    +0.000 A 
ENDBRANCH  17  27
ENDBRANCH  16  20
ENDBRANCH  15  16
ENDBRANCH   1  15
TORSDOF 4
ENDMDL
MODEL 3
REMARK VINA RESULT:      -8.6      1.312      1.488
REMARK  Name = 
REMARK  5 active torsions:
REMARK  status: ('A' for Active; 'I' for Inactive)
REMARK    1  A    between atoms: C_1  and  C_2
REMARK    2  A    between atoms: C_6  and  C_7
REMARK    3  A    between atoms: C_10  and  S_11
REMARK    4  A    between atoms: S_11  and  C_12
REMARK    5  A    between atoms: C_12  and  C_13
REMARK                            x       y       z     vdW  Elec       q    Type
REMARK                         _______ _______ _______ _____ _____    ______ ____
ROOT
ATOM      1  C   UNL     1       5.015   4.654  17.911  0.00  0.00    +0.000 A 
ATOM      2  C   UNL     1       5.838   4.976  18.930  0.00  0.00    +0.000 A 
ATOM      3  C   UNL     1       7.241   5.361  18.765  0.00  0.00    +0.000 A 
ATOM      4  O   UNL     1       7.973   5.505  19.736  0.00  0.00    +0.000 OA
ATOM      5  O   UNL     1       7.643   5.642  17.483  0.00  0.00    +0.000 OA
ATOM      6  C   UNL     1       6.879   5.185  16.395  0.00  0.00    +0.000 A 
ATOM      7  C   UNL     1       7.550   5.274  15.180  0.00  0.00    +0.000 A 
ATOM      8  C   UNL     1       6.951   4.709  14.076  0.00  0.00    +0.000 A 
ATOM      9  C   UNL     1       5.687   4.125  14.165  0.00  0.00    +0.000 A 
ATOM     10  C   UNL     1       4.985   4.103  15.380  0.00  0.00    +0.000 A 
ATOM     11  C   UNL     1       5.592   4.629  16.544  0.00  0.00    +0.000 A 
ATOM     12  C   UNL     1       5.284   3.600  12.811  0.00  0.00    +0.000 C 
ATOM     13  C   UNL     1       6.581   3.709  11.978  0.00  0.00    +0.000 C 
ATOM     14  C   UNL     1       7.563   4.612  12.724  0.00  0.00    +0.000 C 
ENDROOT
BRANCH   1  15
ATOM     15  C   UNL     1       3.549   4.480  18.220  0.00  0.00    +0.000 C 
BRANCH  15  16
ATOM     16  S   UNL     1       3.108   5.112  19.870  0.00  0.00    +0.000 S 
BRANCH  16  20
ATOM     17  C   UNL     1       1.520   8.589  19.481  0.00  0.00    +0.000 A 
ATOM     18  N   UNL     1       2.051   8.462  18.279  0.00  0.00    +0.000 NA
ATOM     19  N   UNL     1       2.704   7.253  18.253  0.00  0.00    +0.000 NA
ATOM     20  C   UNL     1       2.530   6.701  19.435  0.00  0.00    +0.000 A 
ATOM     21  O   UNL     1       1.810   7.506  20.282  0.00  0.00    +0.000 OA
BRANCH  17  27
ATOM     22  C   UNL     1       0.239   9.340  22.435  0.00  0.00    +0.000 C 
ATOM     23  C   UNL     1       0.154  10.006  21.119  0.00  0.00    +0.000 A 
ATOM     24  O   UNL     1      -0.593  11.151  21.074  0.00  0.00    +0.000 OA
ATOM     25  C   UNL     1      -0.534  11.621  19.801  0.00  0.00    +0.000 A 
ATOM     26  C   UNL     1       0.248  10.802  19.022  0.00  0.00    +0.000 A 
ATOM     27  C   UNL     1       0.680   9.748  19.870  0.00  0.00    +0.000 A 
ENDBRANCH  17  27
ENDBRANCH  16  20
ENDBRANCH  15  16
ENDBRANCH   1  15
TORSDOF 4
ENDMDL
MODEL 4
REMARK VINA RESULT:      -8.6      2.013      2.430
REMARK  Name = 
REMARK  5 active torsions:
REMARK  status: ('A' for Active; 'I' for Inactive)
REMARK    1  A    between atoms: C_1  and  C_2
REMARK    2  A    between atoms: C_6  and  C_7
REMARK    3  A    between atoms: C_10  and  S_11
REMARK    4  A    between atoms: S_11  and  C_12
REMARK    5  A    between atoms: C_12  and  C_13
REMARK                            x       y       z     vdW  Elec       q    Type
REMARK                         _______ _______ _______ _____ _____    ______ ____
ROOT
ATOM      1  C   UNL     1       5.310   3.961  17.599  0.00  0.00    +0.000 A 
ATOM      2  C   UNL     1       6.029   4.424  18.641  0.00  0.00    +0.000 A 
ATOM      3  C   UNL     1       7.273   5.184  18.509  0.00  0.00    +0.000 A 
ATOM      4  O   UNL     1       7.953   5.455  19.491  0.00  0.00    +0.000 OA
ATOM      5  O   UNL     1       7.566   5.650  17.251  0.00  0.00    +0.000 OA
ATOM      6  C   UNL     1       6.938   5.077  16.131  0.00  0.00    +0.000 A 
ATOM      7  C   UNL     1       7.542   5.426  14.927  0.00  0.00    +0.000 A 
ATOM      8  C   UNL     1       7.103   4.795  13.785  0.00  0.00    +0.000 A 
ATOM      9  C   UNL     1       6.045   3.887  13.828  0.00  0.00    +0.000 A 
ATOM     10  C   UNL     1       5.393   3.594  15.036  0.00  0.00    +0.000 A 
ATOM     11  C   UNL     1       5.852   4.184  16.235  0.00  0.00    +0.000 A 
ATOM     12  C   UNL     1       5.779   3.365  12.439  0.00  0.00    +0.000 C 
ATOM     13  C   UNL     1       6.987   3.876  11.621  0.00  0.00    +0.000 C 
ATOM     14  C   UNL     1       7.699   4.959  12.432  0.00  0.00    +0.000 C 
ENDROOT
BRANCH   1  15
ATOM     15  C   UNL     1       3.949   3.376  17.889  0.00  0.00    +0.000 C 
BRANCH  15  16
ATOM     16  S   UNL     1       3.612   3.255  19.674  0.00  0.00    +0.000 S 
BRANCH  16  20
ATOM     17  C   UNL     1       2.068   6.773  19.690  0.00  0.00    +0.000 A 
ATOM     18  N   UNL     1       1.589   6.326  20.836  0.00  0.00    +0.000 NA
ATOM     19  N   UNL     1       2.030   5.032  20.979  0.00  0.00    +0.000 NA
ATOM     20  C   UNL     1       2.762   4.760  19.919  0.00  0.00    +0.000 A 
ATOM     21  O   UNL     1       2.807   5.811  19.037  0.00  0.00    +0.000 OA
BRANCH  17  27
ATOM     22  C   UNL     1       0.625   9.307  21.247  0.00  0.00    +0.000 C 
ATOM     23  C   UNL     1       1.227   9.183  19.904  0.00  0.00    +0.000 A 
ATOM     24  O   UNL     1       1.193  10.306  19.126  0.00  0.00    +0.000 OA
ATOM     25  C   UNL     1       1.805  10.002  17.952  0.00  0.00    +0.000 A 
ATOM     26  C   UNL     1       2.242   8.700  17.962  0.00  0.00    +0.000 A 
ATOM     27  C   UNL     1       1.853   8.163  19.217  0.00  0.00    +0.000 A 
ENDBRANCH  17  27
ENDBRANCH  16  20
ENDBRANCH  15  16
ENDBRANCH   1  15
TORSDOF 4
ENDMDL
MODEL 5
REMARK VINA RESULT:      -8.5      2.351      2.758
REMARK  Name = 
REMARK  5 active torsions:
REMARK  status: ('A' for Active; 'I' for Inactive)
REMARK    1  A    between atoms: C_1  and  C_2
REMARK    2  A    between atoms: C_6  and  C_7
REMARK    3  A    between atoms: C_10  and  S_11
REMARK    4  A    between atoms: S_11  and  C_12
REMARK    5  A    between atoms: C_12  and  C_13
REMARK                            x       y       z     vdW  Elec       q    Type
REMARK                         _______ _______ _______ _____ _____    ______ ____
ROOT
ATOM      1  C   UNL     1       5.494   4.070  17.504  0.00  0.00    +0.000 A 
ATOM      2  C   UNL     1       6.204   4.659  18.487  0.00  0.00    +0.000 A 
ATOM      3  C   UNL     1       7.365   5.521  18.261  0.00  0.00    +0.000 A 
ATOM      4  O   UNL     1       8.052   5.912  19.198  0.00  0.00    +0.000 OA
ATOM      5  O   UNL     1       7.568   5.936  16.968  0.00  0.00    +0.000 OA
ATOM      6  C   UNL     1       6.956   5.242  15.909  0.00  0.00    +0.000 A 
ATOM      7  C   UNL     1       7.481   5.572  14.664  0.00  0.00    +0.000 A 
ATOM      8  C   UNL     1       7.061   4.837  13.578  0.00  0.00    +0.000 A 
ATOM      9  C   UNL     1       6.096   3.840  13.716  0.00  0.00    +0.000 A 
ATOM     10  C   UNL     1       5.518   3.560  14.965  0.00  0.00    +0.000 A 
ATOM     11  C   UNL     1       5.963   4.261  16.109  0.00  0.00    +0.000 A 
ATOM     12  C   UNL     1       5.831   3.213  12.371  0.00  0.00    +0.000 C 
ATOM     13  C   UNL     1       6.954   3.784  11.476  0.00  0.00    +0.000 C 
ATOM     14  C   UNL     1       7.590   4.974  12.194  0.00  0.00    +0.000 C 
ENDROOT
BRANCH   1  15
ATOM     15  C   UNL     1       4.206   3.382  17.883  0.00  0.00    +0.000 C 
BRANCH  15  16
ATOM     16  S   UNL     1       4.055   3.131  19.680  0.00  0.00    +0.000 S 
BRANCH  16  20
ATOM     17  C   UNL     1       1.898   6.249  20.297  0.00  0.00    +0.000 A 
ATOM     18  N   UNL     1       1.118   5.339  20.852  0.00  0.00    +0.000 NA
ATOM     19  N   UNL     1       1.740   4.124  20.689  0.00  0.00    +0.000 NA
ATOM     20  C   UNL     1       2.869   4.357  20.053  0.00  0.00    +0.000 A 
ATOM     21  O   UNL     1       3.025   5.685  19.743  0.00  0.00    +0.000 OA
BRANCH  17  27
ATOM     22  C   UNL     1       2.049   8.469  17.852  0.00  0.00    +0.000 C 
ATOM     23  C   UNL     1       1.683   8.589  19.278  0.00  0.00    +0.000 A 
ATOM     24  O   UNL     1       1.343   9.842  19.706  0.00  0.00    +0.000 OA
ATOM     25  C   UNL     1       1.022   9.746  21.022  0.00  0.00    +0.000 A 
ATOM     26  C   UNL     1       1.141   8.446  21.451  0.00  0.00    +0.000 A 
ATOM     27  C   UNL     1       1.586   7.699  20.328  0.00  0.00    +0.000 A 
ENDBRANCH  17  27
ENDBRANCH  16  20
ENDBRANCH  15  16
ENDBRANCH   1  15
TORSDOF 4
ENDMDL
MODEL 6
REMARK VINA RESULT:      -8.5      2.558      3.848
REMARK  Name = 
REMARK  5 active torsions:
REMARK  status: ('A' for Active; 'I' for Inactive)
REMARK    1  A    between atoms: C_1  and  C_2
REMARK    2  A    between atoms: C_6  and  C_7
REMARK    3  A    between atoms: C_10  and  S_11
REMARK    4  A    between atoms: S_11  and  C_12
REMARK    5  A    between atoms: C_12  and  C_13
REMARK                            x       y       z     vdW  Elec       q    Type
REMARK                         _______ _______ _______ _____ _____    ______ ____
ROOT
ATOM      1  C   UNL     1       2.340   6.513  19.611  0.00  0.00    +0.000 A 
ATOM      2  C   UNL     1       1.805   5.704  20.548  0.00  0.00    +0.000 A 
ATOM      3  C   UNL     1       2.178   4.301  20.735  0.00  0.00    +0.000 A 
ATOM      4  O   UNL     1       1.556   3.582  21.508  0.00  0.00    +0.000 OA
ATOM      5  O   UNL     1       3.309   3.884  20.079  0.00  0.00    +0.000 OA
ATOM      6  C   UNL     1       3.804   4.632  18.996  0.00  0.00    +0.000 A 
ATOM      7  C   UNL     1       4.754   3.947  18.246  0.00  0.00    +0.000 A 
ATOM      8  C   UNL     1       5.186   4.529  17.076  0.00  0.00    +0.000 A 
ATOM      9  C   UNL     1       4.733   5.791  16.692  0.00  0.00    +0.000 A 
ATOM     10  C   UNL     1       3.828   6.509  17.491  0.00  0.00    +0.000 A 
ATOM     11  C   UNL     1       3.325   5.918  18.673  0.00  0.00    +0.000 A 
ATOM     12  C   UNL     1       5.376   6.175  15.383  0.00  0.00    +0.000 C 
ATOM     13  C   UNL     1       6.054   4.867  14.914  0.00  0.00    +0.000 C 
ATOM     14  C   UNL     1       6.111   3.899  16.096  0.00  0.00    +0.000 C 
ENDROOT
BRANCH   1  15
ATOM     15  C   UNL     1       2.005   7.982  19.675  0.00  0.00    +0.000 C 
BRANCH  15  16
ATOM     16  S   UNL     1       1.947   8.754  18.028  0.00  0.00    +0.000 S 
BRANCH  16  20
ATOM     17  C   UNL     1      -1.333  10.754  18.094  0.00  0.00    +0.000 A 
ATOM     18  N   UNL     1      -0.579  11.560  18.819  0.00  0.00    +0.000 NA
ATOM     19  N   UNL     1       0.657  10.966  18.925  0.00  0.00    +0.000 NA
ATOM     20  C   UNL     1       0.595   9.835  18.254  0.00  0.00    +0.000 A 
ATOM     21  O   UNL     1      -0.651   9.617  17.721  0.00  0.00    +0.000 OA
BRANCH  17  27
ATOM     22  C   UNL     1      -2.820  10.448  15.157  0.00  0.00    +0.000 C 
ATOM     23  C   UNL     1      -3.294  10.956  16.460  0.00  0.00    +0.000 A 
ATOM     24  O   UNL     1      -4.587  11.400  16.495  0.00  0.00    +0.000 OA
ATOM     25  C   UNL     1      -4.842  11.803  17.767  0.00  0.00    +0.000 A 
ATOM     26  C   UNL     1      -3.734  11.619  18.559  0.00  0.00    +0.000 A 
ATOM     27  C   UNL     1      -2.726  11.088  17.711  0.00  0.00    +0.000 A 
ENDBRANCH  17  27
ENDBRANCH  16  20
ENDBRANCH  15  16
ENDBRANCH   1  15
TORSDOF 4
ENDMDL
MODEL 7
REMARK VINA RESULT:      -8.5      1.046      1.067
REMARK  Name = 
REMARK  5 active torsions:
REMARK  status: ('A' for Active; 'I' for Inactive)
REMARK    1  A    between atoms: C_1  and  C_2
REMARK    2  A    between atoms: C_6  and  C_7
REMARK    3  A    between atoms: C_10  and  S_11
REMARK    4  A    between atoms: S_11  and  C_12
REMARK    5  A    between atoms: C_12  and  C_13
REMARK                            x       y       z     vdW  Elec       q    Type
REMARK                         _______ _______ _______ _____ _____    ______ ____
ROOT
ATOM      1  C   UNL     1       5.008   5.355  17.251  0.00  0.00    +0.000 A 
ATOM      2  C   UNL     1       5.866   5.887  18.144  0.00  0.00    +0.000 A 
ATOM      3  C   UNL     1       7.265   6.206  17.853  0.00  0.00    +0.000 A 
ATOM      4  O   UNL     1       8.030   6.556  18.743  0.00  0.00    +0.000 OA
ATOM      5  O   UNL     1       7.626   6.187  16.528  0.00  0.00    +0.000 OA
ATOM      6  C   UNL     1       6.823   5.506  15.596  0.00  0.00    +0.000 A 
ATOM      7  C   UNL     1       7.453   5.310  14.372  0.00  0.00    +0.000 A 
ATOM      8  C   UNL     1       6.815   4.519  13.443  0.00  0.00    +0.000 A 
ATOM      9  C   UNL     1       5.551   3.987  13.701  0.00  0.00    +0.000 A 
ATOM     10  C   UNL     1       4.890   4.248  14.912  0.00  0.00    +0.000 A 
ATOM     11  C   UNL     1       5.539   5.014  15.907  0.00  0.00    +0.000 A 
ATOM     12  C   UNL     1       5.100   3.175  12.514  0.00  0.00    +0.000 C 
ATOM     13  C   UNL     1       6.370   3.077  11.637  0.00  0.00    +0.000 C 
ATOM     14  C   UNL     1       7.381   4.112  12.129  0.00  0.00    +0.000 C 
ENDROOT
BRANCH   1  15
ATOM     15  C   UNL     1       3.552   5.274  17.637  0.00  0.00    +0.000 C 
BRANCH  15  16
ATOM     16  S   UNL     1       3.249   5.869  19.331  0.00  0.00    +0.000 S 
BRANCH  16  20
ATOM     17  C   UNL     1       1.309   9.178  19.123  0.00  0.00    +0.000 A 
ATOM     18  N   UNL     1       1.824   9.158  17.908  0.00  0.00    +0.000 NA
ATOM     19  N   UNL     1       2.596   8.024  17.817  0.00  0.00    +0.000 NA
ATOM     20  C   UNL     1       2.503   7.407  18.977  0.00  0.00    +0.000 A 
ATOM     21  O   UNL     1       1.725   8.098  19.870  0.00  0.00    +0.000 OA
BRANCH  17  27
ATOM     22  C   UNL     1      -1.533  10.164  17.751  0.00  0.00    +0.000 C 
ATOM     23  C   UNL     1      -0.805  10.614  18.955  0.00  0.00    +0.000 A 
ATOM     24  O   UNL     1      -1.383  11.635  19.657  0.00  0.00    +0.000 OA
ATOM     25  C   UNL     1      -0.587  11.889  20.728  0.00  0.00    +0.000 A 
ATOM     26  C   UNL     1       0.495  11.042  20.733  0.00  0.00    +0.000 A 
ATOM     27  C   UNL     1       0.364  10.228  19.577  0.00  0.00    +0.000 A 
ENDBRANCH  17  27
ENDBRANCH  16  20
ENDBRANCH  15  16
ENDBRANCH   1  15
TORSDOF 4
ENDMDL
MODEL 8
REMARK VINA RESULT:      -8.4      1.521      1.829
REMARK  Name = 
REMARK  5 active torsions:
REMARK  status: ('A' for Active; 'I' for Inactive)
REMARK    1  A    between atoms: C_1  and  C_2
REMARK    2  A    between atoms: C_6  and  C_7
REMARK    3  A    between atoms: C_10  and  S_11
REMARK    4  A    between atoms: S_11  and  C_12
REMARK    5  A    between atoms: C_12  and  C_13
REMARK                            x       y       z     vdW  Elec       q    Type
REMARK                         _______ _______ _______ _____ _____    ______ ____
ROOT
ATOM      1  C   UNL     1       5.131   4.352  17.770  0.00  0.00    +0.000 A 
ATOM      2  C   UNL     1       5.936   4.697  18.794  0.00  0.00    +0.000 A 
ATOM      3  C   UNL     1       7.304   5.195  18.635  0.00  0.00    +0.000 A 
ATOM      4  O   UNL     1       8.032   5.358  19.607  0.00  0.00    +0.000 OA
ATOM      5  O   UNL     1       7.671   5.557  17.363  0.00  0.00    +0.000 OA
ATOM      6  C   UNL     1       6.933   5.085  16.263  0.00  0.00    +0.000 A 
ATOM      7  C   UNL     1       7.584   5.272  15.048  0.00  0.00    +0.000 A 
ATOM      8  C   UNL     1       7.019   4.706  13.927  0.00  0.00    +0.000 A 
ATOM      9  C   UNL     1       5.805   4.023  14.001  0.00  0.00    +0.000 A 
ATOM     10  C   UNL     1       5.118   3.900  15.219  0.00  0.00    +0.000 A 
ATOM     11  C   UNL     1       5.695   4.425  16.398  0.00  0.00    +0.000 A 
ATOM     12  C   UNL     1       5.430   3.522  12.630  0.00  0.00    +0.000 C 
ATOM     13  C   UNL     1       6.707   3.763  11.793  0.00  0.00    +0.000 C 
ATOM     14  C   UNL     1       7.624   4.709  12.567  0.00  0.00    +0.000 C 
ENDROOT
BRANCH   1  15
ATOM     15  C   UNL     1       3.686   4.054  18.081  0.00  0.00    +0.000 C 
BRANCH  15  16
ATOM     16  S   UNL     1       3.258   4.424  19.812  0.00  0.00    +0.000 S 
BRANCH  16  20
ATOM     17  C   UNL     1       1.694   7.928  20.002  0.00  0.00    +0.000 A 
ATOM     18  N   UNL     1       2.098   7.944  18.745  0.00  0.00    +0.000 NA
ATOM     19  N   UNL     1       2.726   6.743  18.509  0.00  0.00    +0.000 NA
ATOM     20  C   UNL     1       2.664   6.055  19.630  0.00  0.00    +0.000 A 
ATOM     21  O   UNL     1       2.048   6.757  20.635  0.00  0.00    +0.000 OA
BRANCH  17  27
ATOM     22  C   UNL     1       1.014  10.920  18.771  0.00  0.00    +0.000 C 
ATOM     23  C   UNL     1       0.676  10.277  20.057  0.00  0.00    +0.000 A 
ATOM     24  O   UNL     1      -0.049  11.036  20.933  0.00  0.00    +0.000 OA
ATOM     25  C   UNL     1      -0.276  10.274  22.035  0.00  0.00    +0.000 A 
ATOM     26  C   UNL     1       0.286   9.029  21.881  0.00  0.00    +0.000 A 
ATOM     27  C   UNL     1       0.917   9.036  20.609  0.00  0.00    +0.000 A 
ENDBRANCH  17  27
ENDBRANCH  16  20
ENDBRANCH  15  16
ENDBRANCH   1  15
TORSDOF 4
ENDMDL
MODEL 9
REMARK VINA RESULT:      -8.4      2.061      2.285
REMARK  Name = 
REMARK  5 active torsions:
REMARK  status: ('A' for Active; 'I' for Inactive)
REMARK    1  A    between atoms: C_1  and  C_2
REMARK    2  A    between atoms: C_6  and  C_7
REMARK    3  A    between atoms: C_10  and  S_11
REMARK    4  A    between atoms: S_11  and  C_12
REMARK    5  A    between atoms: C_12  and  C_13
REMARK                            x       y       z     vdW  Elec       q    Type
REMARK                         _______ _______ _______ _____ _____    ______ ____
ROOT
ATOM      1  C   UNL     1       5.082   5.182  17.997  0.00  0.00    +0.000 A 
ATOM      2  C   UNL     1       6.004   5.341  18.968  0.00  0.00    +0.000 A 
ATOM      3  C   UNL     1       7.450   5.327  18.741  0.00  0.00    +0.000 A 
ATOM      4  O   UNL     1       8.235   5.336  19.681  0.00  0.00    +0.000 OA
ATOM      5  O   UNL     1       7.857   5.407  17.432  0.00  0.00    +0.000 OA
ATOM      6  C   UNL     1       6.952   5.099  16.400  0.00  0.00    +0.000 A 
ATOM      7  C   UNL     1       7.570   4.927  15.165  0.00  0.00    +0.000 A 
ATOM      8  C   UNL     1       6.796   4.470  14.122  0.00  0.00    +0.000 A 
ATOM      9  C   UNL     1       5.429   4.250  14.285  0.00  0.00    +0.000 A 
ATOM     10  C   UNL     1       4.798   4.495  15.515  0.00  0.00    +0.000 A 
ATOM     11  C   UNL     1       5.572   4.915  16.621  0.00  0.00    +0.000 A 
ATOM     12  C   UNL     1       4.844   3.763  12.984  0.00  0.00    +0.000 C 
ATOM     13  C   UNL     1       6.087   3.469  12.114  0.00  0.00    +0.000 C 
ATOM     14  C   UNL     1       7.303   4.126  12.766  0.00  0.00    +0.000 C 
ENDROOT
BRANCH   1  15
ATOM     15  C   UNL     1       3.637   5.425  18.353  0.00  0.00    +0.000 C 
BRANCH  15  16
ATOM     16  S   UNL     1       3.087   7.105  17.919  0.00  0.00    +0.000 S 
BRANCH  16  20
ATOM     17  C   UNL     1       1.031   8.557  20.822  0.00  0.00    +0.000 A 
ATOM     18  N   UNL     1       1.215   7.334  21.283  0.00  0.00    +0.000 NA
ATOM     19  N   UNL     1       1.927   6.647  20.328  0.00  0.00    +0.000 NA
ATOM     20  C   UNL     1       2.148   7.488  19.340  0.00  0.00    +0.000 A 
ATOM     21  O   UNL     1       1.581   8.717  19.569  0.00  0.00    +0.000 OA
BRANCH  17  27
ATOM     22  C   UNL     1       1.092  11.835  20.393  0.00  0.00    +0.000 C 
ATOM     23  C   UNL     1       0.423  10.978  21.393  0.00  0.00    +0.000 A 
ATOM     24  O   UNL     1      -0.314  11.630  22.343  0.00  0.00    +0.000 OA
ATOM     25  C   UNL     1      -0.860  10.683  23.149  0.00  0.00    +0.000 A 
ATOM     26  C   UNL     1      -0.494   9.427  22.730  0.00  0.00    +0.000 A 
ATOM     27  C   UNL     1       0.351   9.617  21.605  0.00  0.00    +0.000 A 
ENDBRANCH  17  27
ENDBRANCH  16  20
ENDBRANCH  15  16
ENDBRANCH   1  15
TORSDOF 4
ENDMDL
