MODEL 1
REMARK VINA RESULT:      -9.0      0.000      0.000
REMARK  Name = 
REMARK  8 active torsions:
REMARK  status: ('A' for Active; 'I' for Inactive)
REMARK    1  A    between atoms: C_1  and  C_2
REMARK    2  A    between atoms: C_6  and  O_7
REMARK    3  A    between atoms: O_7  and  C_8
REMARK    4  A    between atoms: C_11  and  N_12
REMARK    5  A    between atoms: C_13  and  C_15
REMARK    6  A    between atoms: C_15  and  N_16
REMARK    7  A    between atoms: C_20  and  C_21
REMARK    8  A    between atoms: C_20  and  C_22
REMARK                            x       y       z     vdW  Elec       q    Type
REMARK                         _______ _______ _______ _____ _____    ______ ____
ROOT
ATOM      1  N   UNL     1       2.934   6.220  19.829  0.00  0.00    +0.000 N 
ATOM      2  C   UNL     1       2.470   4.918  19.681  0.00  0.00    +0.000 C 
ATOM      3  O   UNL     1       1.326   4.595  19.367  0.00  0.00    +0.000 OA
ATOM      4  H   UNL     1       3.870   6.333  20.207  0.00  0.00    +0.000 HD
ENDROOT
BRANCH   1   8
ATOM      5  C   UNL     1       0.897   9.886  19.271  0.00  0.00    +0.000 A 
ATOM      6  C   UNL     1       0.787   9.223  20.489  0.00  0.00    +0.000 A 
ATOM      7  C   UNL     1       1.424   7.992  20.689  0.00  0.00    +0.000 A 
ATOM      8  C   UNL     1       2.191   7.412  19.677  0.00  0.00    +0.000 A 
ATOM      9  C   UNL     1       2.253   8.059  18.435  0.00  0.00    +0.000 A 
ATOM     10  C   UNL     1       1.584   9.272  18.222  0.00  0.00    +0.000 A 
BRANCH   5  11
ATOM     11  O   UNL     1       0.263  11.104  19.179  0.00  0.00    +0.000 OA
BRANCH  11  17
ATOM     12  C   UNL     1      -2.933   9.719  15.774  0.00  0.00    +0.000 C 
ATOM     13  C   UNL     1      -2.632  10.468  17.039  0.00  0.00    +0.000 A 
ATOM     14  C   UNL     1      -3.632  11.194  17.696  0.00  0.00    +0.000 A 
ATOM     15  C   UNL     1      -3.351  11.861  18.889  0.00  0.00    +0.000 A 
ATOM     16  C   UNL     1      -2.065  11.819  19.428  0.00  0.00    +0.000 A 
ATOM     17  C   UNL     1      -1.045  11.154  18.745  0.00  0.00    +0.000 A 
ATOM     18  C   UNL     1      -1.338  10.445  17.577  0.00  0.00    +0.000 A 
ENDBRANCH  11  17
ENDBRANCH   5  11
ENDBRANCH   1   8
BRANCH   2  19
ATOM     19  C   UNL     1       3.484   3.852  20.111  0.00  0.00    +0.000 C 
BRANCH  19  20
ATOM     20  N   UNL     1       4.415   3.760  19.011  0.00  0.00    +0.000 N 
ATOM     21  C   UNL     1       4.205   2.992  17.909  0.00  0.00    +0.000 C 
ATOM     22  O   UNL     1       3.308   2.180  17.748  0.00  0.00    +0.000 OA
ATOM     23  N   UNL     1       5.149   3.325  16.960  0.00  0.00    +0.000 N 
ATOM     24  C   UNL     1       5.820   4.558  17.321  0.00  0.00    +0.000 C 
ATOM     25  C   UNL     1       7.304   4.540  17.010  0.00  0.00    +0.000 C 
ATOM     26  C   UNL     1       5.118   5.761  16.678  0.00  0.00    +0.000 C 
ATOM     27  C   UNL     1       5.484   4.594  18.818  0.00  0.00    +0.000 C 
ATOM     28  O   UNL     1       5.999   5.327  19.652  0.00  0.00    +0.000 OA
ATOM     29  H   UNL     1       5.037   2.987  16.012  0.00  0.00    +0.000 HD
ENDBRANCH  19  20
ENDBRANCH   2  19
TORSDOF 5
ENDMDL
MODEL 2
REMARK VINA RESULT:      -9.0      0.456      1.635
REMARK  Name = 
REMARK  8 active torsions:
REMARK  status: ('A' for Active; 'I' for Inactive)
REMARK    1  A    between atoms: C_1  and  C_2
REMARK    2  A    between atoms: C_6  and  O_7
REMARK    3  A    between atoms: O_7  and  C_8
REMARK    4  A    between atoms: C_11  and  N_12
REMARK    5  A    between atoms: C_13  and  C_15
REMARK    6  A    between atoms: C_15  and  N_16
REMARK    7  A    between atoms: C_20  and  C_21
REMARK    8  A    between atoms: C_20  and  C_22
REMARK                            x       y       z     vdW  Elec       q    Type
REMARK                         _______ _______ _______ _____ _____    ______ ____
ROOT
ATOM      1  N   UNL     1       2.996   6.329  19.597  0.00  0.00    +0.000 N 
ATOM      2  C   UNL     1       2.463   5.046  19.586  0.00  0.00    +0.000 C 
ATOM      3  O   UNL     1       1.292   4.757  19.352  0.00  0.00    +0.000 OA
ATOM      4  H   UNL     1       3.954   6.426  19.922  0.00  0.00    +0.000 HD
ENDROOT
BRANCH   1   8
ATOM      5  C   UNL     1       0.740   9.864  19.034  0.00  0.00    +0.000 A 
ATOM      6  C   UNL     1       1.515   9.374  17.987  0.00  0.00    +0.000 A 
ATOM      7  C   UNL     1       2.296   8.226  18.157  0.00  0.00    +0.000 A 
ATOM      8  C   UNL     1       2.305   7.542  19.373  0.00  0.00    +0.000 A 
ATOM      9  C   UNL     1       1.564   8.070  20.440  0.00  0.00    +0.000 A 
ATOM     10  C   UNL     1       0.813   9.242  20.282  0.00  0.00    +0.000 A 
BRANCH   5  11
ATOM     11  O   UNL     1      -0.019  10.980  18.763  0.00  0.00    +0.000 OA
BRANCH  11  17
ATOM     12  C   UNL     1      -4.652  12.378  19.311  0.00  0.00    +0.000 C 
ATOM     13  C   UNL     1      -3.632  11.519  18.623  0.00  0.00    +0.000 A 
ATOM     14  C   UNL     1      -4.016  10.598  17.641  0.00  0.00    +0.000 A 
ATOM     15  C   UNL     1      -3.057   9.826  16.985  0.00  0.00    +0.000 A 
ATOM     16  C   UNL     1      -1.708   9.958  17.315  0.00  0.00    +0.000 A 
ATOM     17  C   UNL     1      -1.322  10.825  18.339  0.00  0.00    +0.000 A 
ATOM     18  C   UNL     1      -2.276  11.633  18.961  0.00  0.00    +0.000 A 
ENDBRANCH  11  17
ENDBRANCH   5  11
ENDBRANCH   1   8
BRANCH   2  19
ATOM     19  C   UNL     1       3.445   3.969  20.063  0.00  0.00    +0.000 C 
BRANCH  19  20
ATOM     20  N   UNL     1       4.408   3.845  18.995  0.00  0.00    +0.000 N 
ATOM     21  C   UNL     1       4.204   3.090  17.882  0.00  0.00    +0.000 C 
ATOM     22  O   UNL     1       3.282   2.314  17.687  0.00  0.00    +0.000 OA
ATOM     23  N   UNL     1       5.192   3.388  16.967  0.00  0.00    +0.000 N 
ATOM     24  C   UNL     1       5.899   4.592  17.356  0.00  0.00    +0.000 C 
ATOM     25  C   UNL     1       7.391   4.516  17.094  0.00  0.00    +0.000 C 
ATOM     26  C   UNL     1       5.268   5.824  16.696  0.00  0.00    +0.000 C 
ATOM     27  C   UNL     1       5.514   4.635  18.842  0.00  0.00    +0.000 C 
ATOM     28  O   UNL     1       6.030   5.345  19.695  0.00  0.00    +0.000 OA
ATOM     29  H   UNL     1       5.098   3.058  16.014  0.00  0.00    +0.000 HD
ENDBRANCH  19  20
ENDBRANCH   2  19
TORSDOF 5
ENDMDL
MODEL 3
REMARK VINA RESULT:      -8.9      0.426      1.420
REMARK  Name = 
REMARK  8 active torsions:
REMARK  status: ('A' for Active; 'I' for Inactive)
REMARK    1  A    between atoms: C_1  and  C_2
REMARK    2  A    between atoms: C_6  and  O_7
REMARK    3  A    between atoms: O_7  and  C_8
REMARK    4  A    between atoms: C_11  and  N_12
REMARK    5  A    between atoms: C_13  and  C_15
REMARK    6  A    between atoms: C_15  and  N_16
REMARK    7  A    between atoms: C_20  and  C_21
REMARK    8  A    between atoms: C_20  and  C_22
REMARK                            x       y       z     vdW  Elec       q    Type
REMARK                         _______ _______ _______ _____ _____    ______ ____
ROOT
ATOM      1  N   UNL     1       3.005   6.239  19.699  0.00  0.00    +0.000 N 
ATOM      2  C   UNL     1       2.549   4.927  19.643  0.00  0.00    +0.000 C 
ATOM      3  O   UNL     1       1.398   4.578  19.390  0.00  0.00    +0.000 OA
ATOM      4  H   UNL     1       3.953   6.381  20.035  0.00  0.00    +0.000 HD
ENDROOT
BRANCH   1   8
ATOM      5  C   UNL     1       0.912   9.852  19.014  0.00  0.00    +0.000 A 
ATOM      6  C   UNL     1       0.845   9.251  20.268  0.00  0.00    +0.000 A 
ATOM      7  C   UNL     1       1.501   8.039  20.512  0.00  0.00    +0.000 A 
ATOM      8  C   UNL     1       2.244   7.415  19.509  0.00  0.00    +0.000 A 
ATOM      9  C   UNL     1       2.263   7.997  18.233  0.00  0.00    +0.000 A 
ATOM     10  C   UNL     1       1.574   9.190  17.978  0.00  0.00    +0.000 A 
BRANCH   5  11
ATOM     11  O   UNL     1       0.261  11.057  18.879  0.00  0.00    +0.000 OA
BRANCH  11  17
ATOM     12  C   UNL     1      -4.096  12.866  20.089  0.00  0.00    +0.000 C 
ATOM     13  C   UNL     1      -3.263  11.967  19.224  0.00  0.00    +0.000 A 
ATOM     14  C   UNL     1      -3.856  11.172  18.236  0.00  0.00    +0.000 A 
ATOM     15  C   UNL     1      -3.070  10.363  17.415  0.00  0.00    +0.000 A 
ATOM     16  C   UNL     1      -1.685  10.331  17.583  0.00  0.00    +0.000 A 
ATOM     17  C   UNL     1      -1.091  11.069  18.609  0.00  0.00    +0.000 A 
ATOM     18  C   UNL     1      -1.873  11.916  19.398  0.00  0.00    +0.000 A 
ENDBRANCH  11  17
ENDBRANCH   5  11
ENDBRANCH   1   8
BRANCH   2  19
ATOM     19  C   UNL     1       3.590   3.895  20.094  0.00  0.00    +0.000 C 
BRANCH  19  20
ATOM     20  N   UNL     1       4.523   3.806  18.996  0.00  0.00    +0.000 N 
ATOM     21  C   UNL     1       4.282   3.104  17.857  0.00  0.00    +0.000 C 
ATOM     22  O   UNL     1       3.344   2.350  17.653  0.00  0.00    +0.000 OA
ATOM     23  N   UNL     1       5.250   3.430  16.931  0.00  0.00    +0.000 N 
ATOM     24  C   UNL     1       5.983   4.606  17.354  0.00  0.00    +0.000 C 
ATOM     25  C   UNL     1       7.467   4.524  17.050  0.00  0.00    +0.000 C 
ATOM     26  C   UNL     1       5.352   5.875  16.765  0.00  0.00    +0.000 C 
ATOM     27  C   UNL     1       5.637   4.589  18.849  0.00  0.00    +0.000 C 
ATOM     28  O   UNL     1       6.184   5.253  19.720  0.00  0.00    +0.000 OA
ATOM     29  H   UNL     1       5.127   3.144  15.967  0.00  0.00    +0.000 HD
ENDBRANCH  19  20
ENDBRANCH   2  19
TORSDOF 5
ENDMDL
MODEL 4
REMARK VINA RESULT:      -8.4      2.086      2.984
REMARK  Name = 
REMARK  8 active torsions:
REMARK  status: ('A' for Active; 'I' for Inactive)
REMARK    1  A    between atoms: C_1  and  C_2
REMARK    2  A    between atoms: C_6  and  O_7
REMARK    3  A    between atoms: O_7  and  C_8
REMARK    4  A    between atoms: C_11  and  N_12
REMARK    5  A    between atoms: C_13  and  C_15
REMARK    6  A    between atoms: C_15  and  N_16
REMARK    7  A    between atoms: C_20  and  C_21
REMARK    8  A    between atoms: C_20  and  C_22
REMARK                            x       y       z     vdW  Elec       q    Type
REMARK                         _______ _______ _______ _____ _____    ______ ____
ROOT
ATOM      1  N   UNL     1       3.016   6.139  19.713  0.00  0.00    +0.000 N 
ATOM      2  C   UNL     1       2.509   4.845  19.733  0.00  0.00    +0.000 C 
ATOM      3  O   UNL     1       1.328   4.535  19.596  0.00  0.00    +0.000 OA
ATOM      4  H   UNL     1       3.996   6.252  19.957  0.00  0.00    +0.000 HD
ENDROOT
BRANCH   1   8
ATOM      5  C   UNL     1       1.010   9.821  19.145  0.00  0.00    +0.000 A 
ATOM      6  C   UNL     1       0.946   9.193  20.385  0.00  0.00    +0.000 A 
ATOM      7  C   UNL     1       1.573   7.958  20.591  0.00  0.00    +0.000 A 
ATOM      8  C   UNL     1       2.284   7.339  19.562  0.00  0.00    +0.000 A 
ATOM      9  C   UNL     1       2.300   7.951  18.300  0.00  0.00    +0.000 A 
ATOM     10  C   UNL     1       1.639   9.167  18.084  0.00  0.00    +0.000 A 
BRANCH   5  11
ATOM     11  O   UNL     1       0.390  11.046  19.048  0.00  0.00    +0.000 OA
BRANCH  11  17
ATOM     12  C   UNL     1       3.869  14.362  18.258  0.00  0.00    +0.000 C 
ATOM     13  C   UNL     1       2.776  13.814  19.128  0.00  0.00    +0.000 A 
ATOM     14  C   UNL     1       2.478  14.407  20.361  0.00  0.00    +0.000 A 
ATOM     15  C   UNL     1       1.439  13.910  21.149  0.00  0.00    +0.000 A 
ATOM     16  C   UNL     1       0.700  12.808  20.719  0.00  0.00    +0.000 A 
ATOM     17  C   UNL     1       1.033  12.169  19.523  0.00  0.00    +0.000 A 
ATOM     18  C   UNL     1       2.040  12.697  18.711  0.00  0.00    +0.000 A 
ENDBRANCH  11  17
ENDBRANCH   5  11
ENDBRANCH   1   8
BRANCH   2  19
ATOM     19  C   UNL     1       3.550   3.784  20.114  0.00  0.00    +0.000 C 
BRANCH  19  20
ATOM     20  N   UNL     1       4.452   3.730  18.989  0.00  0.00    +0.000 N 
ATOM     21  C   UNL     1       4.180   3.061  17.837  0.00  0.00    +0.000 C 
ATOM     22  O   UNL     1       3.237   2.313  17.635  0.00  0.00    +0.000 OA
ATOM     23  N   UNL     1       5.122   3.417  16.894  0.00  0.00    +0.000 N 
ATOM     24  C   UNL     1       5.866   4.580  17.332  0.00  0.00    +0.000 C 
ATOM     25  C   UNL     1       7.340   4.509  16.986  0.00  0.00    +0.000 C 
ATOM     26  C   UNL     1       5.218   5.865  16.800  0.00  0.00    +0.000 C 
ATOM     27  C   UNL     1       5.561   4.518  18.836  0.00  0.00    +0.000 C 
ATOM     28  O   UNL     1       6.131   5.157  19.710  0.00  0.00    +0.000 OA
ATOM     29  H   UNL     1       4.973   3.160  15.926  0.00  0.00    +0.000 HD
ENDBRANCH  19  20
ENDBRANCH   2  19
TORSDOF 5
ENDMDL
MODEL 5
REMARK VINA RESULT:      -8.3      2.084      3.155
REMARK  Name = 
REMARK  8 active torsions:
REMARK  status: ('A' for Active; 'I' for Inactive)
REMARK    1  A    between atoms: C_1  and  C_2
REMARK    2  A    between atoms: C_6  and  O_7
REMARK    3  A    between atoms: O_7  and  C_8
REMARK    4  A    between atoms: C_11  and  N_12
REMARK    5  A    between atoms: C_13  and  C_15
REMARK    6  A    between atoms: C_15  and  N_16
REMARK    7  A    between atoms: C_20  and  C_21
REMARK    8  A    between atoms: C_20  and  C_22
REMARK                            x       y       z     vdW  Elec       q    Type
REMARK                         _______ _______ _______ _____ _____    ______ ____
ROOT
ATOM      1  N   UNL     1       3.007   6.150  19.665  0.00  0.00    +0.000 N 
ATOM      2  C   UNL     1       2.478   4.865  19.727  0.00  0.00    +0.000 C 
ATOM      3  O   UNL     1       1.290   4.572  19.617  0.00  0.00    +0.000 OA
ATOM      4  H   UNL     1       3.992   6.251  19.890  0.00  0.00    +0.000 HD
ENDROOT
BRANCH   1   8
ATOM      5  C   UNL     1       1.057   9.851  19.037  0.00  0.00    +0.000 A 
ATOM      6  C   UNL     1       0.992   9.249  20.290  0.00  0.00    +0.000 A 
ATOM      7  C   UNL     1       1.600   8.009  20.516  0.00  0.00    +0.000 A 
ATOM      8  C   UNL     1       2.293   7.358  19.494  0.00  0.00    +0.000 A 
ATOM      9  C   UNL     1       2.309   7.943  18.221  0.00  0.00    +0.000 A 
ATOM     10  C   UNL     1       1.667   9.166  17.984  0.00  0.00    +0.000 A 
BRANCH   5  11
ATOM     11  O   UNL     1       0.456  11.084  18.919  0.00  0.00    +0.000 OA
BRANCH  11  17
ATOM     12  C   UNL     1       1.304  14.892  21.835  0.00  0.00    +0.000 C 
ATOM     13  C   UNL     1       1.615  14.126  20.583  0.00  0.00    +0.000 A 
ATOM     14  C   UNL     1       2.585  14.585  19.684  0.00  0.00    +0.000 A 
ATOM     15  C   UNL     1       2.890  13.849  18.539  0.00  0.00    +0.000 A 
ATOM     16  C   UNL     1       2.219  12.655  18.275  0.00  0.00    +0.000 A 
ATOM     17  C   UNL     1       1.203  12.223  19.129  0.00  0.00    +0.000 A 
ATOM     18  C   UNL     1       0.932  12.934  20.301  0.00  0.00    +0.000 A 
ENDBRANCH  11  17
ENDBRANCH   5  11
ENDBRANCH   1   8
BRANCH   2  19
ATOM     19  C   UNL     1       3.506   3.796  20.118  0.00  0.00    +0.000 C 
BRANCH  19  20
ATOM     20  N   UNL     1       4.416   3.730  18.999  0.00  0.00    +0.000 N 
ATOM     21  C   UNL     1       4.178   2.998  17.878  0.00  0.00    +0.000 C 
ATOM     22  O   UNL     1       3.269   2.200  17.709  0.00  0.00    +0.000 OA
ATOM     23  N   UNL     1       5.109   3.350  16.923  0.00  0.00    +0.000 N 
ATOM     24  C   UNL     1       5.799   4.564  17.309  0.00  0.00    +0.000 C 
ATOM     25  C   UNL     1       7.277   4.541  16.970  0.00  0.00    +0.000 C 
ATOM     26  C   UNL     1       5.099   5.794  16.716  0.00  0.00    +0.000 C 
ATOM     27  C   UNL     1       5.490   4.557  18.813  0.00  0.00    +0.000 C 
ATOM     28  O   UNL     1       6.027   5.260  19.659  0.00  0.00    +0.000 OA
ATOM     29  H   UNL     1       4.976   3.042  15.967  0.00  0.00    +0.000 HD
ENDBRANCH  19  20
ENDBRANCH   2  19
TORSDOF 5
ENDMDL
MODEL 6
REMARK VINA RESULT:      -8.3      1.817      2.785
REMARK  Name = 
REMARK  8 active torsions:
REMARK  status: ('A' for Active; 'I' for Inactive)
REMARK    1  A    between atoms: C_1  and  C_2
REMARK    2  A    between atoms: C_6  and  O_7
REMARK    3  A    between atoms: O_7  and  C_8
REMARK    4  A    between atoms: C_11  and  N_12
REMARK    5  A    between atoms: C_13  and  C_15
REMARK    6  A    between atoms: C_15  and  N_16
REMARK    7  A    between atoms: C_20  and  C_21
REMARK    8  A    between atoms: C_20  and  C_22
REMARK                            x       y       z     vdW  Elec       q    Type
REMARK                         _______ _______ _______ _____ _____    ______ ____
ROOT
ATOM      1  N   UNL     1       3.028   6.150  19.753  0.00  0.00    +0.000 N 
ATOM      2  C   UNL     1       2.503   4.863  19.750  0.00  0.00    +0.000 C 
ATOM      3  O   UNL     1       1.317   4.572  19.615  0.00  0.00    +0.000 OA
ATOM      4  H   UNL     1       4.011   6.244  19.993  0.00  0.00    +0.000 HD
ENDROOT
BRANCH   1   8
ATOM      5  C   UNL     1       0.706   9.678  19.496  0.00  0.00    +0.000 A 
ATOM      6  C   UNL     1       1.436   9.259  18.388  0.00  0.00    +0.000 A 
ATOM      7  C   UNL     1       2.238   8.114  18.456  0.00  0.00    +0.000 A 
ATOM      8  C   UNL     1       2.313   7.363  19.631  0.00  0.00    +0.000 A 
ATOM      9  C   UNL     1       1.618   7.820  20.759  0.00  0.00    +0.000 A 
ATOM     10  C   UNL     1       0.846   8.988  20.702  0.00  0.00    +0.000 A 
BRANCH   5  11
ATOM     11  O   UNL     1      -0.077  10.796  19.325  0.00  0.00    +0.000 OA
BRANCH  11  17
ATOM     12  C   UNL     1      -2.627  12.263  23.207  0.00  0.00    +0.000 C 
ATOM     13  C   UNL     1      -1.462  12.446  22.279  0.00  0.00    +0.000 A 
ATOM     14  C   UNL     1      -0.573  13.513  22.447  0.00  0.00    +0.000 A 
ATOM     15  C   UNL     1       0.526  13.657  21.599  0.00  0.00    +0.000 A 
ATOM     16  C   UNL     1       0.737  12.742  20.567  0.00  0.00    +0.000 A 
ATOM     17  C   UNL     1      -0.181  11.713  20.349  0.00  0.00    +0.000 A 
ATOM     18  C   UNL     1      -1.253  11.541  21.229  0.00  0.00    +0.000 A 
ENDBRANCH  11  17
ENDBRANCH   5  11
ENDBRANCH   1   8
BRANCH   2  19
ATOM     19  C   UNL     1       3.530   3.780  20.103  0.00  0.00    +0.000 C 
BRANCH  19  20
ATOM     20  N   UNL     1       4.423   3.733  18.970  0.00  0.00    +0.000 N 
ATOM     21  C   UNL     1       4.135   3.080  17.812  0.00  0.00    +0.000 C 
ATOM     22  O   UNL     1       3.186   2.340  17.610  0.00  0.00    +0.000 OA
ATOM     23  N   UNL     1       5.073   3.440  16.866  0.00  0.00    +0.000 N 
ATOM     24  C   UNL     1       5.828   4.593  17.311  0.00  0.00    +0.000 C 
ATOM     25  C   UNL     1       7.299   4.515  16.951  0.00  0.00    +0.000 C 
ATOM     26  C   UNL     1       5.186   5.889  16.800  0.00  0.00    +0.000 C 
ATOM     27  C   UNL     1       5.536   4.514  18.816  0.00  0.00    +0.000 C 
ATOM     28  O   UNL     1       6.118   5.138  19.693  0.00  0.00    +0.000 OA
ATOM     29  H   UNL     1       4.913   3.195  15.896  0.00  0.00    +0.000 HD
ENDBRANCH  19  20
ENDBRANCH   2  19
TORSDOF 5
ENDMDL
MODEL 7
REMARK VINA RESULT:      -8.2      1.812      2.854
REMARK  Name = 
REMARK  8 active torsions:
REMARK  status: ('A' for Active; 'I' for Inactive)
REMARK    1  A    between atoms: C_1  and  C_2
REMARK    2  A    between atoms: C_6  and  O_7
REMARK    3  A    between atoms: O_7  and  C_8
REMARK    4  A    between atoms: C_11  and  N_12
REMARK    5  A    between atoms: C_13  and  C_15
REMARK    6  A    between atoms: C_15  and  N_16
REMARK    7  A    between atoms: C_20  and  C_21
REMARK    8  A    between atoms: C_20  and  C_22
REMARK                            x       y       z     vdW  Elec       q    Type
REMARK                         _______ _______ _______ _____ _____    ______ ____
ROOT
ATOM      1  N   UNL     1       3.027   6.235  19.552  0.00  0.00    +0.000 N 
ATOM      2  C   UNL     1       2.469   4.964  19.639  0.00  0.00    +0.000 C 
ATOM      3  O   UNL     1       1.276   4.694  19.519  0.00  0.00    +0.000 OA
ATOM      4  H   UNL     1       4.011   6.321  19.789  0.00  0.00    +0.000 HD
ENDROOT
BRANCH   1   8
ATOM      5  C   UNL     1       0.799   9.796  19.045  0.00  0.00    +0.000 A 
ATOM      6  C   UNL     1       1.470   9.249  17.955  0.00  0.00    +0.000 A 
ATOM      7  C   UNL     1       2.240   8.090  18.103  0.00  0.00    +0.000 A 
ATOM      8  C   UNL     1       2.342   7.453  19.341  0.00  0.00    +0.000 A 
ATOM      9  C   UNL     1       1.709   8.039  20.445  0.00  0.00    +0.000 A 
ATOM     10  C   UNL     1       0.970   9.221  20.306  0.00  0.00    +0.000 A 
BRANCH   5  11
ATOM     11  O   UNL     1       0.042  10.918  18.797  0.00  0.00    +0.000 OA
BRANCH  11  17
ATOM     12  C   UNL     1      -0.555  15.737  19.183  0.00  0.00    +0.000 C 
ATOM     13  C   UNL     1       0.346  14.558  18.962  0.00  0.00    +0.000 A 
ATOM     14  C   UNL     1       1.713  14.737  18.715  0.00  0.00    +0.000 A 
ATOM     15  C   UNL     1       2.549  13.633  18.542  0.00  0.00    +0.000 A 
ATOM     16  C   UNL     1       2.024  12.342  18.599  0.00  0.00    +0.000 A 
ATOM     17  C   UNL     1       0.652  12.154  18.778  0.00  0.00    +0.000 A 
ATOM     18  C   UNL     1      -0.177  13.258  19.000  0.00  0.00    +0.000 A 
ENDBRANCH  11  17
ENDBRANCH   5  11
ENDBRANCH   1   8
BRANCH   2  19
ATOM     19  C   UNL     1       3.468   3.884  20.072  0.00  0.00    +0.000 C 
BRANCH  19  20
ATOM     20  N   UNL     1       4.412   3.794  18.984  0.00  0.00    +0.000 N 
ATOM     21  C   UNL     1       4.171   3.114  17.832  0.00  0.00    +0.000 C 
ATOM     22  O   UNL     1       3.222   2.380  17.604  0.00  0.00    +0.000 OA
ATOM     23  N   UNL     1       5.157   3.436  16.921  0.00  0.00    +0.000 N 
ATOM     24  C   UNL     1       5.906   4.591  17.371  0.00  0.00    +0.000 C 
ATOM     25  C   UNL     1       7.391   4.486  17.084  0.00  0.00    +0.000 C 
ATOM     26  C   UNL     1       5.306   5.880  16.795  0.00  0.00    +0.000 C 
ATOM     27  C   UNL     1       5.542   4.558  18.862  0.00  0.00    +0.000 C 
ATOM     28  O   UNL     1       6.090   5.199  19.749  0.00  0.00    +0.000 OA
ATOM     29  H   UNL     1       5.040   3.167  15.952  0.00  0.00    +0.000 HD
ENDBRANCH  19  20
ENDBRANCH   2  19
TORSDOF 5
ENDMDL
MODEL 8
REMARK VINA RESULT:      -8.1      1.884      2.814
REMARK  Name = 
REMARK  8 active torsions:
REMARK  status: ('A' for Active; 'I' for Inactive)
REMARK    1  A    between atoms: C_1  and  C_2
REMARK    2  A    between atoms: C_6  and  O_7
REMARK    3  A    between atoms: O_7  and  C_8
REMARK    4  A    between atoms: C_11  and  N_12
REMARK    5  A    between atoms: C_13  and  C_15
REMARK    6  A    between atoms: C_15  and  N_16
REMARK    7  A    between atoms: C_20  and  C_21
REMARK    8  A    between atoms: C_20  and  C_22
REMARK                            x       y       z     vdW  Elec       q    Type
REMARK                         _______ _______ _______ _____ _____    ______ ____
ROOT
ATOM      1  N   UNL     1       3.002   6.260  19.596  0.00  0.00    +0.000 N 
ATOM      2  C   UNL     1       2.468   4.976  19.621  0.00  0.00    +0.000 C 
ATOM      3  O   UNL     1       1.288   4.686  19.439  0.00  0.00    +0.000 OA
ATOM      4  H   UNL     1       3.972   6.359  19.880  0.00  0.00    +0.000 HD
ENDROOT
BRANCH   1   8
ATOM      5  C   UNL     1       0.727   9.793  19.099  0.00  0.00    +0.000 A 
ATOM      6  C   UNL     1       1.419   9.267  18.012  0.00  0.00    +0.000 A 
ATOM      7  C   UNL     1       2.205   8.118  18.157  0.00  0.00    +0.000 A 
ATOM      8  C   UNL     1       2.302   7.470  19.389  0.00  0.00    +0.000 A 
ATOM      9  C   UNL     1       1.646   8.035  20.492  0.00  0.00    +0.000 A 
ATOM     10  C   UNL     1       0.891   9.207  20.356  0.00  0.00    +0.000 A 
BRANCH   5  11
ATOM     11  O   UNL     1      -0.044  10.906  18.852  0.00  0.00    +0.000 OA
BRANCH  11  17
ATOM     12  C   UNL     1       3.085  14.569  18.133  0.00  0.00    +0.000 C 
ATOM     13  C   UNL     1       1.965  13.960  18.924  0.00  0.00    +0.000 A 
ATOM     14  C   UNL     1       1.443  14.613  20.047  0.00  0.00    +0.000 A 
ATOM     15  C   UNL     1       0.380  14.054  20.757  0.00  0.00    +0.000 A 
ATOM     16  C   UNL     1      -0.161  12.831  20.359  0.00  0.00    +0.000 A 
ATOM     17  C   UNL     1       0.395  12.140  19.282  0.00  0.00    +0.000 A 
ATOM     18  C   UNL     1       1.427  12.723  18.541  0.00  0.00    +0.000 A 
ENDBRANCH  11  17
ENDBRANCH   5  11
ENDBRANCH   1   8
BRANCH   2  19
ATOM     19  C   UNL     1       3.469   3.904  20.068  0.00  0.00    +0.000 C 
BRANCH  19  20
ATOM     20  N   UNL     1       4.415   3.804  18.982  0.00  0.00    +0.000 N 
ATOM     21  C   UNL     1       4.200   3.064  17.862  0.00  0.00    +0.000 C 
ATOM     22  O   UNL     1       3.280   2.284  17.670  0.00  0.00    +0.000 OA
ATOM     23  N   UNL     1       5.170   3.384  16.935  0.00  0.00    +0.000 N 
ATOM     24  C   UNL     1       5.873   4.587  17.331  0.00  0.00    +0.000 C 
ATOM     25  C   UNL     1       7.361   4.528  17.044  0.00  0.00    +0.000 C 
ATOM     26  C   UNL     1       5.222   5.825  16.701  0.00  0.00    +0.000 C 
ATOM     27  C   UNL     1       5.513   4.606  18.823  0.00  0.00    +0.000 C 
ATOM     28  O   UNL     1       6.037   5.306  19.679  0.00  0.00    +0.000 OA
ATOM     29  H   UNL     1       5.063   3.068  15.979  0.00  0.00    +0.000 HD
ENDBRANCH  19  20
ENDBRANCH   2  19
TORSDOF 5
ENDMDL
MODEL 9
REMARK VINA RESULT:      -8.1      3.498      8.939
REMARK  Name = 
REMARK  8 active torsions:
REMARK  status: ('A' for Active; 'I' for Inactive)
REMARK    1  A    between atoms: C_1  and  C_2
REMARK    2  A    between atoms: C_6  and  O_7
REMARK    3  A    between atoms: O_7  and  C_8
REMARK    4  A    between atoms: C_11  and  N_12
REMARK    5  A    between atoms: C_13  and  C_15
REMARK    6  A    between atoms: C_15  and  N_16
REMARK    7  A    between atoms: C_20  and  C_21
REMARK    8  A    between atoms: C_20  and  C_22
REMARK                            x       y       z     vdW  Elec       q    Type
REMARK                         _______ _______ _______ _____ _____    ______ ____
ROOT
ATOM      1  N   UNL     1       0.331  10.933  19.084  0.00  0.00    +0.000 N 
ATOM      2  C   UNL     1      -1.000  11.059  18.704  0.00  0.00    +0.000 C 
ATOM      3  O   UNL     1      -1.731  10.142  18.336  0.00  0.00    +0.000 OA
ATOM      4  H   UNL     1       0.844  11.794  19.252  0.00  0.00    +0.000 HD
ENDROOT
BRANCH   1   8
ATOM      5  C   UNL     1       2.557   7.339  18.913  0.00  0.00    +0.000 A 
ATOM      6  C   UNL     1       1.936   7.701  20.104  0.00  0.00    +0.000 A 
ATOM      7  C   UNL     1       1.221   8.901  20.198  0.00  0.00    +0.000 A 
ATOM      8  C   UNL     1       1.106   9.751  19.097  0.00  0.00    +0.000 A 
ATOM      9  C   UNL     1       1.779   9.407  17.916  0.00  0.00    +0.000 A 
ATOM     10  C   UNL     1       2.528   8.225  17.834  0.00  0.00    +0.000 A 
BRANCH   5  11
ATOM     11  O   UNL     1       3.210   6.127  18.908  0.00  0.00    +0.000 OA
BRANCH  11  17
ATOM     12  C   UNL     1       1.644   2.581  21.857  0.00  0.00    +0.000 C 
ATOM     13  C   UNL     1       1.708   3.193  20.488  0.00  0.00    +0.000 A 
ATOM     14  C   UNL     1       1.081   2.577  19.398  0.00  0.00    +0.000 A 
ATOM     15  C   UNL     1       1.118   3.170  18.136  0.00  0.00    +0.000 A 
ATOM     16  C   UNL     1       1.794   4.376  17.949  0.00  0.00    +0.000 A 
ATOM     17  C   UNL     1       2.478   4.964  19.015  0.00  0.00    +0.000 A 
ATOM     18  C   UNL     1       2.399   4.396  20.289  0.00  0.00    +0.000 A 
ENDBRANCH  11  17
ENDBRANCH   5  11
ENDBRANCH   1   8
BRANCH   2  19
ATOM     19  C   UNL     1      -1.479  12.513  18.618  0.00  0.00    +0.000 C 
BRANCH  19  20
ATOM     20  N   UNL     1      -1.827  12.870  19.973  0.00  0.00    +0.000 N 
ATOM     21  C   UNL     1      -3.073  12.714  20.496  0.00  0.00    +0.000 C 
ATOM     22  O   UNL     1      -4.084  12.402  19.887  0.00  0.00    +0.000 OA
ATOM     23  N   UNL     1      -3.000  12.911  21.859  0.00  0.00    +0.000 N 
ATOM     24  C   UNL     1      -1.620  12.900  22.301  0.00  0.00    +0.000 C 
ATOM     25  C   UNL     1      -1.332  13.928  23.378  0.00  0.00    +0.000 C 
ATOM     26  C   UNL     1      -1.205  11.489  22.738  0.00  0.00    +0.000 C 
ATOM     27  C   UNL     1      -0.927  13.172  20.959  0.00  0.00    +0.000 C 
ATOM     28  O   UNL     1       0.247  13.481  20.808  0.00  0.00    +0.000 OA
ATOM     29  H   UNL     1      -3.792  12.658  22.437  0.00  0.00    +0.000 HD
ENDBRANCH  19  20
ENDBRANCH   2  19
TORSDOF 5
ENDMDL
