MODEL 1
REMARK VINA RESULT:      -8.8      0.000      0.000
REMARK  Name = 
REMARK  6 active torsions:
REMARK  status: ('A' for Active; 'I' for Inactive)
REMARK    1  A    between atoms: C_1  and  C_2
REMARK    2  A    between atoms: C_2  and  C_3
REMARK    3  A    between atoms: C_2  and  C_21
REMARK    4  A    between atoms: C_7  and  C_8
REMARK    5  A    between atoms: C_8  and  C_10
REMARK    6  A    between atoms: N_25  and  C_26
REMARK                            x       y       z     vdW  Elec       q    Type
REMARK                         _______ _______ _______ _____ _____    ______ ____
ROOT
ATOM      1  C   UNL     1       4.269   5.673  17.251  0.00  0.00    +0.000 A 
ATOM      2  C   UNL     1       3.404   4.590  17.480  0.00  0.00    +0.000 A 
ATOM      3  C   UNL     1       2.086   4.799  17.885  0.00  0.00    +0.000 A 
ATOM      4  C   UNL     1       1.618   6.094  18.100  0.00  0.00    +0.000 A 
ATOM      5  C   UNL     1       2.474   7.185  17.920  0.00  0.00    +0.000 A 
ATOM      6  C   UNL     1       3.784   6.975  17.464  0.00  0.00    +0.000 A 
ENDROOT
BRANCH   1   8
ATOM      7  C   UNL     1       5.875   4.096  16.099  0.00  0.00    +0.000 C 
ATOM      8  C   UNL     1       5.707   5.450  16.801  0.00  0.00    +0.000 C 
BRANCH   8   9
ATOM      9  C   UNL     1       6.689   5.587  17.934  0.00  0.00    +0.000 A 
ATOM     10  N   UNL     1       6.937   4.689  18.871  0.00  0.00    +0.000 NA
ATOM     11  N   UNL     1       7.936   5.172  19.681  0.00  0.00    +0.000 NA
ATOM     12  C   UNL     1       8.274   6.356  19.231  0.00  0.00    +0.000 A 
ATOM     13  N   UNL     1       7.506   6.667  18.150  0.00  0.00    +0.000 N 
ATOM     14  C   UNL     1       7.568   7.893  17.400  0.00  0.00    +0.000 C 
ENDBRANCH   8   9
ENDBRANCH   1   8
BRANCH   5  15
ATOM     15  C   UNL     1       2.023   8.577  18.191  0.00  0.00    +0.000 C 
ATOM     16  O   UNL     1       2.193   9.444  17.336  0.00  0.00    +0.000 OA
BRANCH  15  17
ATOM     17  C   UNL     1       1.403   8.926  19.501  0.00  0.00    +0.000 A 
ATOM     18  C   UNL     1       1.650   8.139  20.618  0.00  0.00    +0.000 A 
ATOM     19  C   UNL     1       1.027   8.483  21.815  0.00  0.00    +0.000 A 
ATOM     20  C   UNL     1       0.170   9.589  21.859  0.00  0.00    +0.000 A 
ATOM     21  C   UNL     1      -0.018  10.311  20.682  0.00  0.00    +0.000 A 
ATOM     22  N   UNL     1       0.578  10.001  19.513  0.00  0.00    +0.000 NA
ATOM     23  C   UNL     1      -0.893  11.474  20.647  0.00  0.00    +0.000 C 
ATOM     24  C   UNL     1      -1.540  11.894  21.742  0.00  0.00    +0.000 C 
ATOM     25  C   UNL     1      -1.427  11.218  23.074  0.00  0.00    +0.000 C 
ATOM     26  C   UNL     1      -0.535   9.964  23.134  0.00  0.00    +0.000 C 
ENDBRANCH  15  17
ENDBRANCH   5  15
TORSDOF 4
ENDMDL
MODEL 2
REMARK VINA RESULT:      -8.6      2.023      3.002
REMARK  Name = 
REMARK  6 active torsions:
REMARK  status: ('A' for Active; 'I' for Inactive)
REMARK    1  A    between atoms: C_1  and  C_2
REMARK    2  A    between atoms: C_2  and  C_3
REMARK    3  A    between atoms: C_2  and  C_21
REMARK    4  A    between atoms: C_7  and  C_8
REMARK    5  A    between atoms: C_8  and  C_10
REMARK    6  A    between atoms: N_25  and  C_26
REMARK                            x       y       z     vdW  Elec       q    Type
REMARK                         _______ _______ _______ _____ _____    ______ ____
ROOT
ATOM      1  C   UNL     1       3.078   5.235  18.683  0.00  0.00    +0.000 A 
ATOM      2  C   UNL     1       2.629   5.037  19.999  0.00  0.00    +0.000 A 
ATOM      3  C   UNL     1       1.955   6.046  20.686  0.00  0.00    +0.000 A 
ATOM      4  C   UNL     1       1.747   7.284  20.082  0.00  0.00    +0.000 A 
ATOM      5  C   UNL     1       2.223   7.519  18.788  0.00  0.00    +0.000 A 
ATOM      6  C   UNL     1       2.856   6.486  18.080  0.00  0.00    +0.000 A 
ENDROOT
BRANCH   1   8
ATOM      7  C   UNL     1       3.466   2.745  18.484  0.00  0.00    +0.000 C 
ATOM      8  C   UNL     1       3.806   4.133  17.924  0.00  0.00    +0.000 C 
BRANCH   8   9
ATOM      9  C   UNL     1       5.296   4.346  17.899  0.00  0.00    +0.000 A 
ATOM     10  N   UNL     1       6.092   4.465  18.947  0.00  0.00    +0.000 NA
ATOM     11  N   UNL     1       7.385   4.587  18.499  0.00  0.00    +0.000 NA
ATOM     12  C   UNL     1       7.356   4.550  17.189  0.00  0.00    +0.000 A 
ATOM     13  N   UNL     1       6.068   4.419  16.767  0.00  0.00    +0.000 N 
ATOM     14  C   UNL     1       5.634   4.367  15.396  0.00  0.00    +0.000 C 
ENDBRANCH   8   9
ENDBRANCH   1   8
BRANCH   5  15
ATOM     15  C   UNL     1       2.066   8.846  18.133  0.00  0.00    +0.000 C 
ATOM     16  O   UNL     1       2.930   9.241  17.353  0.00  0.00    +0.000 OA
BRANCH  15  17
ATOM     17  C   UNL     1       0.889   9.706  18.446  0.00  0.00    +0.000 A 
ATOM     18  C   UNL     1       0.976  10.664  19.447  0.00  0.00    +0.000 A 
ATOM     19  C   UNL     1      -0.156  11.426  19.728  0.00  0.00    +0.000 A 
ATOM     20  C   UNL     1      -1.338  11.201  19.014  0.00  0.00    +0.000 A 
ATOM     21  C   UNL     1      -1.325  10.212  18.032  0.00  0.00    +0.000 A 
ATOM     22  N   UNL     1      -0.241   9.466  17.739  0.00  0.00    +0.000 NA
ATOM     23  C   UNL     1      -2.515   9.920  17.245  0.00  0.00    +0.000 C 
ATOM     24  C   UNL     1      -3.657  10.594  17.431  0.00  0.00    +0.000 C 
ATOM     25  C   UNL     1      -3.813  11.685  18.447  0.00  0.00    +0.000 C 
ATOM     26  C   UNL     1      -2.581  11.993  19.317  0.00  0.00    +0.000 C 
ENDBRANCH  15  17
ENDBRANCH   5  15
TORSDOF 4
ENDMDL
MODEL 3
REMARK VINA RESULT:      -8.5      1.439      2.052
REMARK  Name = 
REMARK  6 active torsions:
REMARK  status: ('A' for Active; 'I' for Inactive)
REMARK    1  A    between atoms: C_1  and  C_2
REMARK    2  A    between atoms: C_2  and  C_3
REMARK    3  A    between atoms: C_2  and  C_21
REMARK    4  A    between atoms: C_7  and  C_8
REMARK    5  A    between atoms: C_8  and  C_10
REMARK    6  A    between atoms: N_25  and  C_26
REMARK                            x       y       z     vdW  Elec       q    Type
REMARK                         _______ _______ _______ _____ _____    ______ ____
ROOT
ATOM      1  C   UNL     1       3.124   4.611  18.725  0.00  0.00    +0.000 A 
ATOM      2  C   UNL     1       2.661   3.975  19.889  0.00  0.00    +0.000 A 
ATOM      3  C   UNL     1       1.917   4.674  20.839  0.00  0.00    +0.000 A 
ATOM      4  C   UNL     1       1.650   6.030  20.659  0.00  0.00    +0.000 A 
ATOM      5  C   UNL     1       2.138   6.694  19.529  0.00  0.00    +0.000 A 
ATOM      6  C   UNL     1       2.842   5.977  18.550  0.00  0.00    +0.000 A 
ENDROOT
BRANCH   1   8
ATOM      7  C   UNL     1       3.717   2.335  17.797  0.00  0.00    +0.000 C 
ATOM      8  C   UNL     1       3.930   3.851  17.680  0.00  0.00    +0.000 C 
BRANCH   8   9
ATOM      9  C   UNL     1       5.396   4.187  17.733  0.00  0.00    +0.000 A 
ATOM     10  N   UNL     1       6.118   4.388  18.821  0.00  0.00    +0.000 NA
ATOM     11  N   UNL     1       7.420   4.611  18.443  0.00  0.00    +0.000 NA
ATOM     12  C   UNL     1       7.468   4.552  17.134  0.00  0.00    +0.000 A 
ATOM     13  N   UNL     1       6.222   4.307  16.644  0.00  0.00    +0.000 N 
ATOM     14  C   UNL     1       5.873   4.198  15.253  0.00  0.00    +0.000 C 
ENDBRANCH   8   9
ENDBRANCH   1   8
BRANCH   5  15
ATOM     15  C   UNL     1       1.917   8.152  19.332  0.00  0.00    +0.000 C 
ATOM     16  O   UNL     1       2.410   8.710  18.353  0.00  0.00    +0.000 OA
BRANCH  15  17
ATOM     17  C   UNL     1       1.137   8.938  20.330  0.00  0.00    +0.000 A 
ATOM     18  C   UNL     1       1.259   8.658  21.684  0.00  0.00    +0.000 A 
ATOM     19  C   UNL     1       0.490   9.396  22.580  0.00  0.00    +0.000 A 
ATOM     20  C   UNL     1      -0.384  10.378  22.100  0.00  0.00    +0.000 A 
ATOM     21  C   UNL     1      -0.439  10.580  20.722  0.00  0.00    +0.000 A 
ATOM     22  N   UNL     1       0.300   9.882  19.835  0.00  0.00    +0.000 NA
ATOM     23  C   UNL     1      -1.321  11.584  20.145  0.00  0.00    +0.000 C 
ATOM     24  C   UNL     1      -2.103  12.351  20.915  0.00  0.00    +0.000 C 
ATOM     25  C   UNL     1      -2.143  12.246  22.410  0.00  0.00    +0.000 C 
ATOM     26  C   UNL     1      -1.245  11.170  23.046  0.00  0.00    +0.000 C 
ENDBRANCH  15  17
ENDBRANCH   5  15
TORSDOF 4
ENDMDL
MODEL 4
REMARK VINA RESULT:      -8.4      1.442      2.347
REMARK  Name = 
REMARK  6 active torsions:
REMARK  status: ('A' for Active; 'I' for Inactive)
REMARK    1  A    between atoms: C_1  and  C_2
REMARK    2  A    between atoms: C_2  and  C_3
REMARK    3  A    between atoms: C_2  and  C_21
REMARK    4  A    between atoms: C_7  and  C_8
REMARK    5  A    between atoms: C_8  and  C_10
REMARK    6  A    between atoms: N_25  and  C_26
REMARK                            x       y       z     vdW  Elec       q    Type
REMARK                         _______ _______ _______ _____ _____    ______ ____
ROOT
ATOM      1  C   UNL     1       3.219   4.938  18.438  0.00  0.00    +0.000 A 
ATOM      2  C   UNL     1       2.809   4.559  19.727  0.00  0.00    +0.000 A 
ATOM      3  C   UNL     1       2.103   5.444  20.543  0.00  0.00    +0.000 A 
ATOM      4  C   UNL     1       1.823   6.734  20.097  0.00  0.00    +0.000 A 
ATOM      5  C   UNL     1       2.259   7.146  18.834  0.00  0.00    +0.000 A 
ATOM      6  C   UNL     1       2.924   6.239  17.996  0.00  0.00    +0.000 A 
ENDROOT
BRANCH   1   8
ATOM      7  C   UNL     1       3.696   2.511  17.910  0.00  0.00    +0.000 C 
ATOM      8  C   UNL     1       3.982   3.973  17.540  0.00  0.00    +0.000 C 
BRANCH   8   9
ATOM      9  C   UNL     1       5.463   4.241  17.541  0.00  0.00    +0.000 A 
ATOM     10  N   UNL     1       6.238   4.372  18.604  0.00  0.00    +0.000 NA
ATOM     11  N   UNL     1       7.532   4.550  18.179  0.00  0.00    +0.000 NA
ATOM     12  C   UNL     1       7.524   4.534  16.868  0.00  0.00    +0.000 A 
ATOM     13  N   UNL     1       6.249   4.363  16.423  0.00  0.00    +0.000 N 
ATOM     14  C   UNL     1       5.839   4.317  15.045  0.00  0.00    +0.000 C 
ENDBRANCH   8   9
ENDBRANCH   1   8
BRANCH   5  15
ATOM     15  C   UNL     1       2.024   8.533  18.348  0.00  0.00    +0.000 C 
ATOM     16  O   UNL     1       2.592   8.920  17.328  0.00  0.00    +0.000 OA
BRANCH  15  17
ATOM     17  C   UNL     1       1.136   9.458  19.108  0.00  0.00    +0.000 A 
ATOM     18  C   UNL     1       0.659  10.614  18.506  0.00  0.00    +0.000 A 
ATOM     19  C   UNL     1      -0.144  11.466  19.261  0.00  0.00    +0.000 A 
ATOM     20  C   UNL     1      -0.434  11.147  20.592  0.00  0.00    +0.000 A 
ATOM     21  C   UNL     1       0.098   9.966  21.108  0.00  0.00    +0.000 A 
ATOM     22  N   UNL     1       0.872   9.123  20.395  0.00  0.00    +0.000 NA
ATOM     23  C   UNL     1      -0.159   9.564  22.483  0.00  0.00    +0.000 C 
ATOM     24  C   UNL     1      -0.919  10.308  23.297  0.00  0.00    +0.000 C 
ATOM     25  C   UNL     1      -1.558  11.597  22.876  0.00  0.00    +0.000 C 
ATOM     26  C   UNL     1      -1.277  12.064  21.437  0.00  0.00    +0.000 C 
ENDBRANCH  15  17
ENDBRANCH   5  15
TORSDOF 4
ENDMDL
MODEL 5
REMARK VINA RESULT:      -8.3      1.358      2.216
REMARK  Name = 
REMARK  6 active torsions:
REMARK  status: ('A' for Active; 'I' for Inactive)
REMARK    1  A    between atoms: C_1  and  C_2
REMARK    2  A    between atoms: C_2  and  C_3
REMARK    3  A    between atoms: C_2  and  C_21
REMARK    4  A    between atoms: C_7  and  C_8
REMARK    5  A    between atoms: C_8  and  C_10
REMARK    6  A    between atoms: N_25  and  C_26
REMARK                            x       y       z     vdW  Elec       q    Type
REMARK                         _______ _______ _______ _____ _____    ______ ____
ROOT
ATOM      1  C   UNL     1       4.576   5.030  18.111  0.00  0.00    +0.000 A 
ATOM      2  C   UNL     1       3.656   3.978  18.257  0.00  0.00    +0.000 A 
ATOM      3  C   UNL     1       2.287   4.231  18.347  0.00  0.00    +0.000 A 
ATOM      4  C   UNL     1       1.816   5.542  18.324  0.00  0.00    +0.000 A 
ATOM      5  C   UNL     1       2.716   6.606  18.222  0.00  0.00    +0.000 A 
ATOM      6  C   UNL     1       4.087   6.348  18.081  0.00  0.00    +0.000 A 
ENDROOT
BRANCH   1   8
ATOM      7  C   UNL     1       6.865   5.570  19.038  0.00  0.00    +0.000 C 
ATOM      8  C   UNL     1       6.071   4.759  18.004  0.00  0.00    +0.000 C 
BRANCH   8   9
ATOM      9  C   UNL     1       6.598   5.005  16.616  0.00  0.00    +0.000 A 
ATOM     10  N   UNL     1       7.430   5.964  16.250  0.00  0.00    +0.000 NA
ATOM     11  N   UNL     1       7.711   5.809  14.914  0.00  0.00    +0.000 NA
ATOM     12  C   UNL     1       7.040   4.767  14.487  0.00  0.00    +0.000 A 
ATOM     13  N   UNL     1       6.313   4.242  15.512  0.00  0.00    +0.000 N 
ATOM     14  C   UNL     1       5.433   3.108  15.424  0.00  0.00    +0.000 C 
ENDBRANCH   8   9
ENDBRANCH   1   8
BRANCH   5  15
ATOM     15  C   UNL     1       2.251   8.020  18.248  0.00  0.00    +0.000 C 
ATOM     16  O   UNL     1       2.450   8.739  17.271  0.00  0.00    +0.000 OA
BRANCH  15  17
ATOM     17  C   UNL     1       1.581   8.570  19.460  0.00  0.00    +0.000 A 
ATOM     18  C   UNL     1       1.692   7.909  20.676  0.00  0.00    +0.000 A 
ATOM     19  C   UNL     1       1.026   8.441  21.777  0.00  0.00    +0.000 A 
ATOM     20  C   UNL     1       0.262   9.604  21.631  0.00  0.00    +0.000 A 
ATOM     21  C   UNL     1       0.209  10.191  20.367  0.00  0.00    +0.000 A 
ATOM     22  N   UNL     1       0.849   9.698  19.288  0.00  0.00    +0.000 NA
ATOM     23  C   UNL     1      -0.563  11.403  20.135  0.00  0.00    +0.000 C 
ATOM     24  C   UNL     1      -1.241  11.999  21.124  0.00  0.00    +0.000 C 
ATOM     25  C   UNL     1      -1.268  11.483  22.531  0.00  0.00    +0.000 C 
ATOM     26  C   UNL     1      -0.488  10.183  22.800  0.00  0.00    +0.000 C 
ENDBRANCH  15  17
ENDBRANCH   5  15
TORSDOF 4
ENDMDL
MODEL 6
REMARK VINA RESULT:      -8.3      1.534      2.224
REMARK  Name = 
REMARK  6 active torsions:
REMARK  status: ('A' for Active; 'I' for Inactive)
REMARK    1  A    between atoms: C_1  and  C_2
REMARK    2  A    between atoms: C_2  and  C_3
REMARK    3  A    between atoms: C_2  and  C_21
REMARK    4  A    between atoms: C_7  and  C_8
REMARK    5  A    between atoms: C_8  and  C_10
REMARK    6  A    between atoms: N_25  and  C_26
REMARK                            x       y       z     vdW  Elec       q    Type
REMARK                         _______ _______ _______ _____ _____    ______ ____
ROOT
ATOM      1  C   UNL     1       4.292   4.931  17.283  0.00  0.00    +0.000 A 
ATOM      2  C   UNL     1       3.513   3.832  16.887  0.00  0.00    +0.000 A 
ATOM      3  C   UNL     1       2.232   3.638  17.403  0.00  0.00    +0.000 A 
ATOM      4  C   UNL     1       1.719   4.523  18.349  0.00  0.00    +0.000 A 
ATOM      5  C   UNL     1       2.493   5.600  18.790  0.00  0.00    +0.000 A 
ATOM      6  C   UNL     1       3.761   5.822  18.233  0.00  0.00    +0.000 A 
ENDROOT
BRANCH   1   8
ATOM      7  C   UNL     1       6.117   3.992  15.807  0.00  0.00    +0.000 C 
ATOM      8  C   UNL     1       5.688   5.152  16.716  0.00  0.00    +0.000 C 
BRANCH   8   9
ATOM      9  C   UNL     1       6.712   5.389  17.794  0.00  0.00    +0.000 A 
ATOM     10  N   UNL     1       7.166   4.498  18.657  0.00  0.00    +0.000 NA
ATOM     11  N   UNL     1       8.129   5.096  19.433  0.00  0.00    +0.000 NA
ATOM     12  C   UNL     1       8.239   6.341  19.038  0.00  0.00    +0.000 A 
ATOM     13  N   UNL     1       7.358   6.577  18.027  0.00  0.00    +0.000 N 
ATOM     14  C   UNL     1       7.169   7.834  17.353  0.00  0.00    +0.000 C 
ENDBRANCH   8   9
ENDBRANCH   1   8
BRANCH   5  15
ATOM     15  C   UNL     1       1.997   6.533  19.838  0.00  0.00    +0.000 C 
ATOM     16  O   UNL     1       1.800   6.113  20.977  0.00  0.00    +0.000 OA
BRANCH  15  17
ATOM     17  C   UNL     1       1.707   7.957  19.504  0.00  0.00    +0.000 A 
ATOM     18  C   UNL     1       2.020   8.452  18.245  0.00  0.00    +0.000 A 
ATOM     19  C   UNL     1       1.760   9.795  17.984  0.00  0.00    +0.000 A 
ATOM     20  C   UNL     1       1.211  10.603  18.986  0.00  0.00    +0.000 A 
ATOM     21  C   UNL     1       0.938  10.013  20.219  0.00  0.00    +0.000 A 
ATOM     22  N   UNL     1       1.175   8.715  20.494  0.00  0.00    +0.000 NA
ATOM     23  C   UNL     1       0.365  10.787  21.311  0.00  0.00    +0.000 C 
ATOM     24  C   UNL     1       0.075  12.087  21.168  0.00  0.00    +0.000 C 
ATOM     25  C   UNL     1       0.310  12.848  19.898  0.00  0.00    +0.000 C 
ATOM     26  C   UNL     1       0.946  12.064  18.736  0.00  0.00    +0.000 C 
ENDBRANCH  15  17
ENDBRANCH   5  15
TORSDOF 4
ENDMDL
MODEL 7
REMARK VINA RESULT:      -8.3      1.579      2.108
REMARK  Name = 
REMARK  6 active torsions:
REMARK  status: ('A' for Active; 'I' for Inactive)
REMARK    1  A    between atoms: C_1  and  C_2
REMARK    2  A    between atoms: C_2  and  C_3
REMARK    3  A    between atoms: C_2  and  C_21
REMARK    4  A    between atoms: C_7  and  C_8
REMARK    5  A    between atoms: C_8  and  C_10
REMARK    6  A    between atoms: N_25  and  C_26
REMARK                            x       y       z     vdW  Elec       q    Type
REMARK                         _______ _______ _______ _____ _____    ______ ____
ROOT
ATOM      1  C   UNL     1       4.184   5.005  17.334  0.00  0.00    +0.000 A 
ATOM      2  C   UNL     1       3.444   3.977  16.728  0.00  0.00    +0.000 A 
ATOM      3  C   UNL     1       2.215   3.574  17.251  0.00  0.00    +0.000 A 
ATOM      4  C   UNL     1       1.719   4.171  18.408  0.00  0.00    +0.000 A 
ATOM      5  C   UNL     1       2.459   5.167  19.053  0.00  0.00    +0.000 A 
ATOM      6  C   UNL     1       3.670   5.605  18.497  0.00  0.00    +0.000 A 
ENDROOT
BRANCH   1   8
ATOM      7  C   UNL     1       5.981   4.541  15.617  0.00  0.00    +0.000 C 
ATOM      8  C   UNL     1       5.522   5.454  16.763  0.00  0.00    +0.000 C 
BRANCH   8   9
ATOM      9  C   UNL     1       6.589   5.558  17.819  0.00  0.00    +0.000 A 
ATOM     10  N   UNL     1       6.949   4.612  18.669  0.00  0.00    +0.000 NA
ATOM     11  N   UNL     1       7.994   5.083  19.426  0.00  0.00    +0.000 NA
ATOM     12  C   UNL     1       8.246   6.308  19.035  0.00  0.00    +0.000 A 
ATOM     13  N   UNL     1       7.380   6.656  18.044  0.00  0.00    +0.000 N 
ATOM     14  C   UNL     1       7.332   7.931  17.379  0.00  0.00    +0.000 C 
ENDBRANCH   8   9
ENDBRANCH   1   8
BRANCH   5  15
ATOM     15  C   UNL     1       1.984   5.788  20.320  0.00  0.00    +0.000 C 
ATOM     16  O   UNL     1       1.956   5.115  21.348  0.00  0.00    +0.000 OA
BRANCH  15  17
ATOM     17  C   UNL     1       1.514   7.202  20.336  0.00  0.00    +0.000 A 
ATOM     18  C   UNL     1       1.766   8.030  19.250  0.00  0.00    +0.000 A 
ATOM     19  C   UNL     1       1.335   9.353  19.318  0.00  0.00    +0.000 A 
ATOM     20  C   UNL     1       0.681   9.811  20.467  0.00  0.00    +0.000 A 
ATOM     21  C   UNL     1       0.481   8.904  21.506  0.00  0.00    +0.000 A 
ATOM     22  N   UNL     1       0.883   7.618  21.461  0.00  0.00    +0.000 NA
ATOM     23  C   UNL     1      -0.193   9.303  22.733  0.00  0.00    +0.000 C 
ATOM     24  C   UNL     1      -0.650  10.551  22.903  0.00  0.00    +0.000 C 
ATOM     25  C   UNL     1      -0.509  11.627  21.870  0.00  0.00    +0.000 C 
ATOM     26  C   UNL     1       0.230  11.243  20.575  0.00  0.00    +0.000 C 
ENDBRANCH  15  17
ENDBRANCH   5  15
TORSDOF 4
ENDMDL
MODEL 8
REMARK VINA RESULT:      -8.2      2.368      3.493
REMARK  Name = 
REMARK  6 active torsions:
REMARK  status: ('A' for Active; 'I' for Inactive)
REMARK    1  A    between atoms: C_1  and  C_2
REMARK    2  A    between atoms: C_2  and  C_3
REMARK    3  A    between atoms: C_2  and  C_21
REMARK    4  A    between atoms: C_7  and  C_8
REMARK    5  A    between atoms: C_8  and  C_10
REMARK    6  A    between atoms: N_25  and  C_26
REMARK                            x       y       z     vdW  Elec       q    Type
REMARK                         _______ _______ _______ _____ _____    ______ ____
ROOT
ATOM      1  C   UNL     1       3.539   4.953  17.951  0.00  0.00    +0.000 A 
ATOM      2  C   UNL     1       4.860   5.173  17.527  0.00  0.00    +0.000 A 
ATOM      3  C   UNL     1       5.345   6.467  17.337  0.00  0.00    +0.000 A 
ATOM      4  C   UNL     1       4.509   7.563  17.536  0.00  0.00    +0.000 A 
ATOM      5  C   UNL     1       3.178   7.366  17.916  0.00  0.00    +0.000 A 
ATOM      6  C   UNL     1       2.706   6.067  18.156  0.00  0.00    +0.000 A 
ENDROOT
BRANCH   1   8
ATOM      7  C   UNL     1       1.886   3.204  17.175  0.00  0.00    +0.000 C 
ATOM      8  C   UNL     1       3.007   3.543  18.168  0.00  0.00    +0.000 C 
BRANCH   8   9
ATOM      9  C   UNL     1       2.548   3.317  19.584  0.00  0.00    +0.000 A 
ATOM     10  N   UNL     1       1.388   3.678  20.102  0.00  0.00    +0.000 NA
ATOM     11  N   UNL     1       1.336   3.238  21.402  0.00  0.00    +0.000 NA
ATOM     12  C   UNL     1       2.467   2.626  21.658  0.00  0.00    +0.000 A 
ATOM     13  N   UNL     1       3.265   2.667  20.556  0.00  0.00    +0.000 N 
ATOM     14  C   UNL     1       4.593   2.122  20.460  0.00  0.00    +0.000 C 
ENDBRANCH   8   9
ENDBRANCH   1   8
BRANCH   5  15
ATOM     15  C   UNL     1       2.242   8.512  18.085  0.00  0.00    +0.000 C 
ATOM     16  O   UNL     1       2.031   9.263  17.135  0.00  0.00    +0.000 OA
BRANCH  15  17
ATOM     17  C   UNL     1       1.594   8.767  19.403  0.00  0.00    +0.000 A 
ATOM     18  C   UNL     1       1.723   7.843  20.431  0.00  0.00    +0.000 A 
ATOM     19  C   UNL     1       1.077   8.106  21.636  0.00  0.00    +0.000 A 
ATOM     20  C   UNL     1       0.315   9.272  21.775  0.00  0.00    +0.000 A 
ATOM     21  C   UNL     1       0.243  10.134  20.682  0.00  0.00    +0.000 A 
ATOM     22  N   UNL     1       0.864   9.904  19.508  0.00  0.00    +0.000 NA
ATOM     23  C   UNL     1      -0.528  11.367  20.749  0.00  0.00    +0.000 C 
ATOM     24  C   UNL     1      -1.186  11.719  21.861  0.00  0.00    +0.000 C 
ATOM     25  C   UNL     1      -1.193  10.892  23.110  0.00  0.00    +0.000 C 
ATOM     26  C   UNL     1      -0.414   9.565  23.059  0.00  0.00    +0.000 C 
ENDBRANCH  15  17
ENDBRANCH   5  15
TORSDOF 4
ENDMDL
MODEL 9
REMARK VINA RESULT:      -8.2      1.477      2.658
REMARK  Name = 
REMARK  6 active torsions:
REMARK  status: ('A' for Active; 'I' for Inactive)
REMARK    1  A    between atoms: C_1  and  C_2
REMARK    2  A    between atoms: C_2  and  C_3
REMARK    3  A    between atoms: C_2  and  C_21
REMARK    4  A    between atoms: C_7  and  C_8
REMARK    5  A    between atoms: C_8  and  C_10
REMARK    6  A    between atoms: N_25  and  C_26
REMARK                            x       y       z     vdW  Elec       q    Type
REMARK                         _______ _______ _______ _____ _____    ______ ____
ROOT
ATOM      1  C   UNL     1       4.616   5.176  18.339  0.00  0.00    +0.000 A 
ATOM      2  C   UNL     1       3.682   4.235  18.805  0.00  0.00    +0.000 A 
ATOM      3  C   UNL     1       2.333   4.565  18.926  0.00  0.00    +0.000 A 
ATOM      4  C   UNL     1       1.897   5.851  18.616  0.00  0.00    +0.000 A 
ATOM      5  C   UNL     1       2.815   6.817  18.192  0.00  0.00    +0.000 A 
ATOM      6  C   UNL     1       4.163   6.469  18.021  0.00  0.00    +0.000 A 
ENDROOT
BRANCH   1   8
ATOM      7  C   UNL     1       6.964   5.635  19.159  0.00  0.00    +0.000 C 
ATOM      8  C   UNL     1       6.090   4.819  18.196  0.00  0.00    +0.000 C 
BRANCH   8   9
ATOM      9  C   UNL     1       6.579   4.967  16.780  0.00  0.00    +0.000 A 
ATOM     10  N   UNL     1       7.438   5.867  16.335  0.00  0.00    +0.000 NA
ATOM     11  N   UNL     1       7.665   5.628  15.002  0.00  0.00    +0.000 NA
ATOM     12  C   UNL     1       6.935   4.596  14.654  0.00  0.00    +0.000 A 
ATOM     13  N   UNL     1       6.223   4.159  15.730  0.00  0.00    +0.000 N 
ATOM     14  C   UNL     1       5.294   3.062  15.733  0.00  0.00    +0.000 C 
ENDBRANCH   8   9
ENDBRANCH   1   8
BRANCH   5  15
ATOM     15  C   UNL     1       2.393   8.214  17.903  0.00  0.00    +0.000 C 
ATOM     16  O   UNL     1       2.851   8.792  16.919  0.00  0.00    +0.000 OA
BRANCH  15  17
ATOM     17  C   UNL     1       1.450   8.921  18.817  0.00  0.00    +0.000 A 
ATOM     18  C   UNL     1       0.560   9.856  18.308  0.00  0.00    +0.000 A 
ATOM     19  C   UNL     1      -0.283  10.515  19.200  0.00  0.00    +0.000 A 
ATOM     20  C   UNL     1      -0.203  10.232  20.568  0.00  0.00    +0.000 A 
ATOM     21  C   UNL     1       0.728   9.280  20.980  0.00  0.00    +0.000 A 
ATOM     22  N   UNL     1       1.550   8.626  20.136  0.00  0.00    +0.000 NA
ATOM     23  C   UNL     1       0.871   8.929  22.386  0.00  0.00    +0.000 C 
ATOM     24  C   UNL     1       0.109   9.501  23.328  0.00  0.00    +0.000 C 
ATOM     25  C   UNL     1      -0.934  10.534  23.028  0.00  0.00    +0.000 C 
ATOM     26  C   UNL     1      -1.085  10.950  21.554  0.00  0.00    +0.000 C 
ENDBRANCH  15  17
ENDBRANCH   5  15
TORSDOF 4
ENDMDL
