MODEL 1
REMARK VINA RESULT:      -9.0      0.000      0.000
REMARK  Name = 
REMARK  2 active torsions:
REMARK  status: ('A' for Active; 'I' for Inactive)
REMARK    1  A    between atoms: C_8  and  C_9
REMARK    2  A    between atoms: C_15  and  C_16
REMARK                            x       y       z     vdW  Elec       q    Type
REMARK                         _______ _______ _______ _____ _____    ______ ____
ROOT
ATOM      1  C   UNL     1       2.209   9.071  18.430  0.00  0.00    +0.000 C 
ATOM      2  O   UNL     1       2.569   9.769  17.479  0.00  0.00    +0.000 OA
ATOM      3  N   UNL     1       1.498   9.606  19.507  0.00  0.00    +0.000 N 
ATOM      4  C   UNL     1       1.044   8.928  20.726  0.00  0.00    +0.000 C 
ATOM      5  C   UNL     1      -0.379   9.320  21.132  0.00  0.00    +0.000 C 
ATOM      6  O   UNL     1      -0.607  10.733  21.110  0.00  0.00    +0.000 OA
ATOM      7  C   UNL     1      -0.294  11.321  19.822  0.00  0.00    +0.000 C 
ATOM      8  C   UNL     1       1.199  11.046  19.510  0.00  0.00    +0.000 C 
ENDROOT
BRANCH   1  16
ATOM      9  O   UNL     1       4.983   2.275  20.077  0.00  0.00    +0.000 OA
ATOM     10  C   UNL     1       3.945   2.936  19.941  0.00  0.00    +0.000 C 
ATOM     11  C   UNL     1       2.831   2.766  20.947  0.00  0.00    +0.000 C 
ATOM     12  C   UNL     1       1.999   3.971  21.322  0.00  0.00    +0.000 C 
ATOM     13  C   UNL     1       1.223   4.497  20.135  0.00  0.00    +0.000 C 
ATOM     14  C   UNL     1       2.085   5.379  19.282  0.00  0.00    +0.000 A 
ATOM     15  C   UNL     1       1.765   6.750  19.182  0.00  0.00    +0.000 A 
ATOM     16  C   UNL     1       2.480   7.608  18.332  0.00  0.00    +0.000 A 
ATOM     17  C   UNL     1       3.390   7.050  17.445  0.00  0.00    +0.000 A 
ATOM     18  C   UNL     1       3.765   5.712  17.589  0.00  0.00    +0.000 A 
ATOM     19  C   UNL     1       3.180   4.895  18.569  0.00  0.00    +0.000 A 
ATOM     20  N   UNL     1       3.844   3.681  18.809  0.00  0.00    +0.000 N 
ATOM     21  H   UNL     1       4.669   3.522  18.241  0.00  0.00    +0.000 HD
ENDBRANCH   1  16
BRANCH   7  22
ATOM     22  C   UNL     1      -1.318  10.938  18.753  0.00  0.00    +0.000 A 
ATOM     23  C   UNL     1      -2.605  11.514  18.765  0.00  0.00    +0.000 A 
ATOM     24  C   UNL     1      -3.559  11.178  17.802  0.00  0.00    +0.000 A 
ATOM     25  C   UNL     1      -3.223  10.285  16.791  0.00  0.00    +0.000 A 
ATOM     26  F   UNL     1      -4.131   9.960  15.866  0.00  0.00    +0.000 F 
ATOM     27  C   UNL     1      -1.952   9.728  16.730  0.00  0.00    +0.000 A 
ATOM     28  C   UNL     1      -1.005  10.056  17.704  0.00  0.00    +0.000 A 
ENDBRANCH   7  22
TORSDOF 2
ENDMDL
MODEL 2
REMARK VINA RESULT:      -8.6      3.162      4.351
REMARK  Name = 
REMARK  2 active torsions:
REMARK  status: ('A' for Active; 'I' for Inactive)
REMARK    1  A    between atoms: C_8  and  C_9
REMARK    2  A    between atoms: C_15  and  C_16
REMARK                            x       y       z     vdW  Elec       q    Type
REMARK                         _______ _______ _______ _____ _____    ______ ____
ROOT
ATOM      1  C   UNL     1       0.073  10.911  18.760  0.00  0.00    +0.000 C 
ATOM      2  O   UNL     1      -0.977  10.638  18.176  0.00  0.00    +0.000 OA
ATOM      3  N   UNL     1       0.522  12.228  18.891  0.00  0.00    +0.000 N 
ATOM      4  C   UNL     1       1.762  12.712  19.508  0.00  0.00    +0.000 C 
ATOM      5  C   UNL     1       1.552  13.958  20.372  0.00  0.00    +0.000 C 
ATOM      6  O   UNL     1       0.766  14.968  19.730  0.00  0.00    +0.000 OA
ATOM      7  C   UNL     1      -0.520  14.466  19.287  0.00  0.00    +0.000 C 
ATOM      8  C   UNL     1      -0.274  13.307  18.287  0.00  0.00    +0.000 C 
ENDROOT
BRANCH   1  16
ATOM      9  O   UNL     1       1.659   3.916  21.032  0.00  0.00    +0.000 OA
ATOM     10  C   UNL     1       2.058   4.873  20.354  0.00  0.00    +0.000 C 
ATOM     11  C   UNL     1       2.658   4.607  18.994  0.00  0.00    +0.000 C 
ATOM     12  C   UNL     1       2.416   5.604  17.884  0.00  0.00    +0.000 C 
ATOM     13  C   UNL     1       3.035   6.946  18.202  0.00  0.00    +0.000 C 
ATOM     14  C   UNL     1       2.139   7.749  19.096  0.00  0.00    +0.000 A 
ATOM     15  C   UNL     1       1.571   8.940  18.597  0.00  0.00    +0.000 A 
ATOM     16  C   UNL     1       0.795   9.780  19.411  0.00  0.00    +0.000 A 
ATOM     17  C   UNL     1       0.748   9.517  20.773  0.00  0.00    +0.000 A 
ATOM     18  C   UNL     1       1.242   8.305  21.262  0.00  0.00    +0.000 A 
ATOM     19  C   UNL     1       1.857   7.375  20.409  0.00  0.00    +0.000 A 
ATOM     20  N   UNL     1       2.035   6.093  20.953  0.00  0.00    +0.000 N 
ATOM     21  H   UNL     1       1.708   5.980  21.906  0.00  0.00    +0.000 HD
ENDBRANCH   1  16
BRANCH   7  22
ATOM     22  C   UNL     1      -1.464  14.195  20.459  0.00  0.00    +0.000 A 
ATOM     23  C   UNL     1      -1.548  15.110  21.528  0.00  0.00    +0.000 A 
ATOM     24  C   UNL     1      -2.400  14.883  22.611  0.00  0.00    +0.000 A 
ATOM     25  C   UNL     1      -3.206  13.752  22.619  0.00  0.00    +0.000 A 
ATOM     26  F   UNL     1      -4.025  13.530  23.654  0.00  0.00    +0.000 F 
ATOM     27  C   UNL     1      -3.175  12.849  21.564  0.00  0.00    +0.000 A 
ATOM     28  C   UNL     1      -2.311  13.073  20.489  0.00  0.00    +0.000 A 
ENDBRANCH   7  22
TORSDOF 2
ENDMDL
MODEL 3
REMARK VINA RESULT:      -8.5      2.699      3.909
REMARK  Name = 
REMARK  2 active torsions:
REMARK  status: ('A' for Active; 'I' for Inactive)
REMARK    1  A    between atoms: C_8  and  C_9
REMARK    2  A    between atoms: C_15  and  C_16
REMARK                            x       y       z     vdW  Elec       q    Type
REMARK                         _______ _______ _______ _____ _____    ______ ____
ROOT
ATOM      1  C   UNL     1       0.916   9.299  21.094  0.00  0.00    +0.000 C 
ATOM      2  O   UNL     1       1.479   9.553  22.160  0.00  0.00    +0.000 OA
ATOM      3  N   UNL     1      -0.091  10.120  20.580  0.00  0.00    +0.000 N 
ATOM      4  C   UNL     1      -0.886   9.933  19.361  0.00  0.00    +0.000 C 
ATOM      5  C   UNL     1      -1.073  11.227  18.565  0.00  0.00    +0.000 C 
ATOM      6  O   UNL     1      -1.466  12.340  19.375  0.00  0.00    +0.000 OA
ATOM      7  C   UNL     1      -0.547  12.576  20.471  0.00  0.00    +0.000 C 
ATOM      8  C   UNL     1      -0.501  11.301  21.353  0.00  0.00    +0.000 C 
ENDROOT
BRANCH   1  16
ATOM      9  O   UNL     1       5.223   3.431  19.193  0.00  0.00    +0.000 OA
ATOM     10  C   UNL     1       4.076   3.785  19.498  0.00  0.00    +0.000 C 
ATOM     11  C   UNL     1       3.278   2.935  20.458  0.00  0.00    +0.000 C 
ATOM     12  C   UNL     1       2.344   3.618  21.430  0.00  0.00    +0.000 C 
ATOM     13  C   UNL     1       1.229   4.343  20.709  0.00  0.00    +0.000 C 
ATOM     14  C   UNL     1       1.689   5.688  20.232  0.00  0.00    +0.000 A 
ATOM     15  C   UNL     1       1.103   6.844  20.791  0.00  0.00    +0.000 A 
ATOM     16  C   UNL     1       1.427   8.128  20.325  0.00  0.00    +0.000 A 
ATOM     17  C   UNL     1       2.196   8.237  19.174  0.00  0.00    +0.000 A 
ATOM     18  C   UNL     1       2.839   7.108  18.662  0.00  0.00    +0.000 A 
ATOM     19  C   UNL     1       2.661   5.843  19.245  0.00  0.00    +0.000 A 
ATOM     20  N   UNL     1       3.578   4.862  18.835  0.00  0.00    +0.000 N 
ATOM     21  H   UNL     1       4.264   5.171  18.155  0.00  0.00    +0.000 HD
ENDBRANCH   1  16
BRANCH   7  22
ATOM     22  C   UNL     1       0.788  13.144  19.987  0.00  0.00    +0.000 A 
ATOM     23  C   UNL     1       1.873  13.261  20.880  0.00  0.00    +0.000 A 
ATOM     24  C   UNL     1       3.101  13.780  20.464  0.00  0.00    +0.000 A 
ATOM     25  C   UNL     1       3.269  14.156  19.137  0.00  0.00    +0.000 A 
ATOM     26  F   UNL     1       4.443  14.653  18.732  0.00  0.00    +0.000 F 
ATOM     27  C   UNL     1       2.231  14.019  18.223  0.00  0.00    +0.000 A 
ATOM     28  C   UNL     1       0.999  13.512  18.647  0.00  0.00    +0.000 A 
ENDBRANCH   7  22
TORSDOF 2
ENDMDL
MODEL 4
REMARK VINA RESULT:      -8.4      3.527      4.826
REMARK  Name = 
REMARK  2 active torsions:
REMARK  status: ('A' for Active; 'I' for Inactive)
REMARK    1  A    between atoms: C_8  and  C_9
REMARK    2  A    between atoms: C_15  and  C_16
REMARK                            x       y       z     vdW  Elec       q    Type
REMARK                         _______ _______ _______ _____ _____    ______ ____
ROOT
ATOM      1  C   UNL     1      -0.432  11.074  19.574  0.00  0.00    +0.000 C 
ATOM      2  O   UNL     1      -1.522  10.776  19.081  0.00  0.00    +0.000 OA
ATOM      3  N   UNL     1      -0.071  12.403  19.810  0.00  0.00    +0.000 N 
ATOM      4  C   UNL     1       1.195  12.924  20.339  0.00  0.00    +0.000 C 
ATOM      5  C   UNL     1       0.998  14.043  21.365  0.00  0.00    +0.000 C 
ATOM      6  O   UNL     1       0.067  15.045  20.941  0.00  0.00    +0.000 OA
ATOM      7  C   UNL     1      -1.222  14.483  20.587  0.00  0.00    +0.000 C 
ATOM      8  C   UNL     1      -1.013  13.468  19.434  0.00  0.00    +0.000 C 
ENDROOT
BRANCH   1  16
ATOM      9  O   UNL     1       1.972   4.039  20.725  0.00  0.00    +0.000 OA
ATOM     10  C   UNL     1       2.217   5.109  20.151  0.00  0.00    +0.000 C 
ATOM     11  C   UNL     1       2.699   5.079  18.721  0.00  0.00    +0.000 C 
ATOM     12  C   UNL     1       2.262   6.180  17.781  0.00  0.00    +0.000 C 
ATOM     13  C   UNL     1       2.792   7.526  18.225  0.00  0.00    +0.000 C 
ATOM     14  C   UNL     1       1.923   8.116  19.295  0.00  0.00    +0.000 A 
ATOM     15  C   UNL     1       1.206   9.299  19.013  0.00  0.00    +0.000 A 
ATOM     16  C   UNL     1       0.446   9.947  19.999  0.00  0.00    +0.000 A 
ATOM     17  C   UNL     1       0.558   9.509  21.311  0.00  0.00    +0.000 A 
ATOM     18  C   UNL     1       1.201   8.300  21.586  0.00  0.00    +0.000 A 
ATOM     19  C   UNL     1       1.806   7.551  20.563  0.00  0.00    +0.000 A 
ATOM     20  N   UNL     1       2.148   6.234  20.910  0.00  0.00    +0.000 N 
ATOM     21  H   UNL     1       1.929   5.969  21.864  0.00  0.00    +0.000 HD
ENDBRANCH   1  16
BRANCH   7  22
ATOM     22  C   UNL     1      -1.994  14.001  21.816  0.00  0.00    +0.000 A 
ATOM     23  C   UNL     1      -2.161  14.853  22.927  0.00  0.00    +0.000 A 
ATOM     24  C   UNL     1      -2.859  14.435  24.062  0.00  0.00    +0.000 A 
ATOM     25  C   UNL     1      -3.430  13.168  24.084  0.00  0.00    +0.000 A 
ATOM     26  F   UNL     1      -4.100  12.763  25.168  0.00  0.00    +0.000 F 
ATOM     27  C   UNL     1      -3.316  12.319  22.991  0.00  0.00    +0.000 A 
ATOM     28  C   UNL     1      -2.605  12.736  21.863  0.00  0.00    +0.000 A 
ENDBRANCH   7  22
TORSDOF 2
ENDMDL
MODEL 5
REMARK VINA RESULT:      -8.4      1.597      2.184
REMARK  Name = 
REMARK  2 active torsions:
REMARK  status: ('A' for Active; 'I' for Inactive)
REMARK    1  A    between atoms: C_8  and  C_9
REMARK    2  A    between atoms: C_15  and  C_16
REMARK                            x       y       z     vdW  Elec       q    Type
REMARK                         _______ _______ _______ _____ _____    ______ ____
ROOT
ATOM      1  C   UNL     1       1.745   9.559  18.657  0.00  0.00    +0.000 C 
ATOM      2  O   UNL     1       1.877   9.718  17.442  0.00  0.00    +0.000 OA
ATOM      3  N   UNL     1       1.329  10.598  19.494  0.00  0.00    +0.000 N 
ATOM      4  C   UNL     1       1.170  10.586  20.952  0.00  0.00    +0.000 C 
ATOM      5  C   UNL     1      -0.102  11.296  21.421  0.00  0.00    +0.000 C 
ATOM      6  O   UNL     1      -0.298  12.574  20.806  0.00  0.00    +0.000 OA
ATOM      7  C   UNL     1      -0.296  12.494  19.358  0.00  0.00    +0.000 C 
ATOM      8  C   UNL     1       1.070  11.919  18.903  0.00  0.00    +0.000 C 
ENDROOT
BRANCH   1  16
ATOM      9  O   UNL     1       0.680   2.198  19.792  0.00  0.00    +0.000 OA
ATOM     10  C   UNL     1       1.472   3.051  19.366  0.00  0.00    +0.000 C 
ATOM     11  C   UNL     1       2.214   2.783  18.079  0.00  0.00    +0.000 C 
ATOM     12  C   UNL     1       2.503   3.940  17.150  0.00  0.00    +0.000 C 
ATOM     13  C   UNL     1       3.424   4.950  17.796  0.00  0.00    +0.000 C 
ATOM     14  C   UNL     1       2.656   5.879  18.688  0.00  0.00    +0.000 A 
ATOM     15  C   UNL     1       2.581   7.245  18.343  0.00  0.00    +0.000 A 
ATOM     16  C   UNL     1       1.952   8.179  19.182  0.00  0.00    +0.000 A 
ATOM     17  C   UNL     1       1.567   7.771  20.451  0.00  0.00    +0.000 A 
ATOM     18  C   UNL     1       1.569   6.411  20.771  0.00  0.00    +0.000 A 
ATOM     19  C   UNL     1       2.027   5.450  19.856  0.00  0.00    +0.000 A 
ATOM     20  N   UNL     1       1.703   4.121  20.172  0.00  0.00    +0.000 N 
ATOM     21  H   UNL     1       1.179   3.999  21.032  0.00  0.00    +0.000 HD
ENDBRANCH   1  16
BRANCH   7  22
ATOM     22  C   UNL     1      -1.557  11.818  18.820  0.00  0.00    +0.000 A 
ATOM     23  C   UNL     1      -2.831  12.293  19.194  0.00  0.00    +0.000 A 
ATOM     24  C   UNL     1      -3.998  11.690  18.718  0.00  0.00    +0.000 A 
ATOM     25  C   UNL     1      -3.903  10.624  17.831  0.00  0.00    +0.000 A 
ATOM     26  F   UNL     1      -5.017  10.044  17.372  0.00  0.00    +0.000 F 
ATOM     27  C   UNL     1      -2.664  10.156  17.414  0.00  0.00    +0.000 A 
ATOM     28  C   UNL     1      -1.498  10.753  17.903  0.00  0.00    +0.000 A 
ENDBRANCH   7  22
TORSDOF 2
ENDMDL
MODEL 6
REMARK VINA RESULT:      -8.3      1.523      2.317
REMARK  Name = 
REMARK  2 active torsions:
REMARK  status: ('A' for Active; 'I' for Inactive)
REMARK    1  A    between atoms: C_8  and  C_9
REMARK    2  A    between atoms: C_15  and  C_16
REMARK                            x       y       z     vdW  Elec       q    Type
REMARK                         _______ _______ _______ _____ _____    ______ ____
ROOT
ATOM      1  C   UNL     1       1.905   9.271  18.791  0.00  0.00    +0.000 C 
ATOM      2  O   UNL     1       2.178   9.522  17.616  0.00  0.00    +0.000 OA
ATOM      3  N   UNL     1       1.419  10.252  19.660  0.00  0.00    +0.000 N 
ATOM      4  C   UNL     1       1.096  10.129  21.086  0.00  0.00    +0.000 C 
ATOM      5  C   UNL     1      -0.206  10.838  21.467  0.00  0.00    +0.000 C 
ATOM      6  O   UNL     1      -0.304  12.166  20.941  0.00  0.00    +0.000 OA
ATOM      7  C   UNL     1      -0.139  12.202  19.501  0.00  0.00    +0.000 C 
ATOM      8  C   UNL     1       1.258  11.624  19.155  0.00  0.00    +0.000 C 
ENDROOT
BRANCH   1  16
ATOM      9  O   UNL     1       0.547   1.883  19.204  0.00  0.00    +0.000 OA
ATOM     10  C   UNL     1       1.400   2.740  18.934  0.00  0.00    +0.000 C 
ATOM     11  C   UNL     1       2.268   2.549  17.713  0.00  0.00    +0.000 C 
ATOM     12  C   UNL     1       2.682   3.766  16.917  0.00  0.00    +0.000 C 
ATOM     13  C   UNL     1       3.554   4.692  17.736  0.00  0.00    +0.000 C 
ATOM     14  C   UNL     1       2.718   5.572  18.617  0.00  0.00    +0.000 A 
ATOM     15  C   UNL     1       2.713   6.963  18.378  0.00  0.00    +0.000 A 
ATOM     16  C   UNL     1       2.022   7.848  19.220  0.00  0.00    +0.000 A 
ATOM     17  C   UNL     1       1.494   7.354  20.405  0.00  0.00    +0.000 A 
ATOM     18  C   UNL     1       1.428   5.973  20.611  0.00  0.00    +0.000 A 
ATOM     19  C   UNL     1       1.958   5.073  19.673  0.00  0.00    +0.000 A 
ATOM     20  N   UNL     1       1.570   3.735  19.844  0.00  0.00    +0.000 N 
ATOM     21  H   UNL     1       0.955   3.562  20.632  0.00  0.00    +0.000 HD
ENDBRANCH   1  16
BRANCH   7  22
ATOM     22  C   UNL     1      -1.345  11.610  18.771  0.00  0.00    +0.000 A 
ATOM     23  C   UNL     1      -1.170  10.547  17.860  0.00  0.00    +0.000 A 
ATOM     24  C   UNL     1      -2.255   9.991  17.179  0.00  0.00    +0.000 A 
ATOM     25  C   UNL     1      -3.536  10.470  17.428  0.00  0.00    +0.000 A 
ATOM     26  F   UNL     1      -4.578   9.941  16.779  0.00  0.00    +0.000 F 
ATOM     27  C   UNL     1      -3.746  11.490  18.347  0.00  0.00    +0.000 A 
ATOM     28  C   UNL     1      -2.656  12.053  19.017  0.00  0.00    +0.000 A 
ENDBRANCH   7  22
TORSDOF 2
ENDMDL
MODEL 7
REMARK VINA RESULT:      -8.3      3.337      4.722
REMARK  Name = 
REMARK  2 active torsions:
REMARK  status: ('A' for Active; 'I' for Inactive)
REMARK    1  A    between atoms: C_8  and  C_9
REMARK    2  A    between atoms: C_15  and  C_16
REMARK                            x       y       z     vdW  Elec       q    Type
REMARK                         _______ _______ _______ _____ _____    ______ ____
ROOT
ATOM      1  C   UNL     1      -0.131  10.791  19.071  0.00  0.00    +0.000 C 
ATOM      2  O   UNL     1      -1.337  10.571  18.938  0.00  0.00    +0.000 OA
ATOM      3  N   UNL     1       0.420  12.047  18.807  0.00  0.00    +0.000 N 
ATOM      4  C   UNL     1       1.829  12.456  18.868  0.00  0.00    +0.000 C 
ATOM      5  C   UNL     1       2.025  13.827  19.520  0.00  0.00    +0.000 C 
ATOM      6  O   UNL     1       1.131  14.826  19.019  0.00  0.00    +0.000 OA
ATOM      7  C   UNL     1      -0.259  14.431  19.138  0.00  0.00    +0.000 C 
ATOM      8  C   UNL     1      -0.465  13.121  18.334  0.00  0.00    +0.000 C 
ENDROOT
BRANCH   1  16
ATOM      9  O   UNL     1       1.981   3.831  20.994  0.00  0.00    +0.000 OA
ATOM     10  C   UNL     1       2.271   4.822  20.310  0.00  0.00    +0.000 C 
ATOM     11  C   UNL     1       2.756   4.618  18.894  0.00  0.00    +0.000 C 
ATOM     12  C   UNL     1       2.368   5.628  17.839  0.00  0.00    +0.000 C 
ATOM     13  C   UNL     1       2.950   6.991  18.138  0.00  0.00    +0.000 C 
ATOM     14  C   UNL     1       2.102   7.728  19.131  0.00  0.00    +0.000 A 
ATOM     15  C   UNL     1       1.435   8.901  18.718  0.00  0.00    +0.000 A 
ATOM     16  C   UNL     1       0.699   9.682  19.622  0.00  0.00    +0.000 A 
ATOM     17  C   UNL     1       0.789   9.385  20.975  0.00  0.00    +0.000 A 
ATOM     18  C   UNL     1       1.381   8.188  21.383  0.00  0.00    +0.000 A 
ATOM     19  C   UNL     1       1.959   7.309  20.453  0.00  0.00    +0.000 A 
ATOM     20  N   UNL     1       2.246   6.025  20.942  0.00  0.00    +0.000 N 
ATOM     21  H   UNL     1       2.012   5.873  21.918  0.00  0.00    +0.000 HD
ENDBRANCH   1  16
BRANCH   7  22
ATOM     22  C   UNL     1      -0.737  14.445  20.591  0.00  0.00    +0.000 A 
ATOM     23  C   UNL     1      -1.476  13.360  21.104  0.00  0.00    +0.000 A 
ATOM     24  C   UNL     1      -1.927  13.350  22.426  0.00  0.00    +0.000 A 
ATOM     25  C   UNL     1      -1.611  14.414  23.262  0.00  0.00    +0.000 A 
ATOM     26  F   UNL     1      -2.039  14.410  24.529  0.00  0.00    +0.000 F 
ATOM     27  C   UNL     1      -0.852  15.481  22.798  0.00  0.00    +0.000 A 
ATOM     28  C   UNL     1      -0.415  15.493  21.471  0.00  0.00    +0.000 A 
ENDBRANCH   7  22
TORSDOF 2
ENDMDL
MODEL 8
REMARK VINA RESULT:      -8.3      2.839      4.041
REMARK  Name = 
REMARK  2 active torsions:
REMARK  status: ('A' for Active; 'I' for Inactive)
REMARK    1  A    between atoms: C_8  and  C_9
REMARK    2  A    between atoms: C_15  and  C_16
REMARK                            x       y       z     vdW  Elec       q    Type
REMARK                         _______ _______ _______ _____ _____    ______ ____
ROOT
ATOM      1  C   UNL     1       0.822   9.644  21.092  0.00  0.00    +0.000 C 
ATOM      2  O   UNL     1       1.411   9.861  22.152  0.00  0.00    +0.000 OA
ATOM      3  N   UNL     1      -0.204  10.476  20.637  0.00  0.00    +0.000 N 
ATOM      4  C   UNL     1      -1.030  10.331  19.433  0.00  0.00    +0.000 C 
ATOM      5  C   UNL     1      -1.247  11.653  18.694  0.00  0.00    +0.000 C 
ATOM      6  O   UNL     1      -1.628  12.730  19.557  0.00  0.00    +0.000 OA
ATOM      7  C   UNL     1      -0.682  12.931  20.637  0.00  0.00    +0.000 C 
ATOM      8  C   UNL     1      -0.603  11.623  21.466  0.00  0.00    +0.000 C 
ENDROOT
BRANCH   1  16
ATOM      9  O   UNL     1       5.237   4.027  18.734  0.00  0.00    +0.000 OA
ATOM     10  C   UNL     1       4.105   4.318  19.145  0.00  0.00    +0.000 C 
ATOM     11  C   UNL     1       3.441   3.419  20.160  0.00  0.00    +0.000 C 
ATOM     12  C   UNL     1       2.564   4.043  21.222  0.00  0.00    +0.000 C 
ATOM     13  C   UNL     1       1.353   4.715  20.613  0.00  0.00    +0.000 C 
ATOM     14  C   UNL     1       1.698   6.087  20.115  0.00  0.00    +0.000 A 
ATOM     15  C   UNL     1       1.107   7.206  20.740  0.00  0.00    +0.000 A 
ATOM     16  C   UNL     1       1.321   8.509  20.264  0.00  0.00    +0.000 A 
ATOM     17  C   UNL     1       1.977   8.668  19.052  0.00  0.00    +0.000 A 
ATOM     18  C   UNL     1       2.628   7.579  18.468  0.00  0.00    +0.000 A 
ATOM     19  C   UNL     1       2.569   6.301  19.048  0.00  0.00    +0.000 A 
ATOM     20  N   UNL     1       3.494   5.373  18.544  0.00  0.00    +0.000 N 
ATOM     21  H   UNL     1       4.100   5.724  17.810  0.00  0.00    +0.000 HD
ENDBRANCH   1  16
BRANCH   7  22
ATOM     22  C   UNL     1       0.635  13.529  20.141  0.00  0.00    +0.000 A 
ATOM     23  C   UNL     1       0.631  14.508  19.126  0.00  0.00    +0.000 A 
ATOM     24  C   UNL     1       1.822  15.067  18.654  0.00  0.00    +0.000 A 
ATOM     25  C   UNL     1       3.030  14.678  19.219  0.00  0.00    +0.000 A 
ATOM     26  F   UNL     1       4.172  15.210  18.772  0.00  0.00    +0.000 F 
ATOM     27  C   UNL     1       3.065  13.743  20.246  0.00  0.00    +0.000 A 
ATOM     28  C   UNL     1       1.873  13.176  20.706  0.00  0.00    +0.000 A 
ENDBRANCH   7  22
TORSDOF 2
ENDMDL
MODEL 9
REMARK VINA RESULT:      -8.2      3.326      8.057
REMARK  Name = 
REMARK  2 active torsions:
REMARK  status: ('A' for Active; 'I' for Inactive)
REMARK    1  A    between atoms: C_8  and  C_9
REMARK    2  A    between atoms: C_15  and  C_16
REMARK                            x       y       z     vdW  Elec       q    Type
REMARK                         _______ _______ _______ _____ _____    ______ ____
ROOT
ATOM      1  C   UNL     1       2.402   5.706  18.253  0.00  0.00    +0.000 C 
ATOM      2  O   UNL     1       1.644   5.151  17.455  0.00  0.00    +0.000 OA
ATOM      3  N   UNL     1       3.487   5.037  18.825  0.00  0.00    +0.000 N 
ATOM      4  C   UNL     1       4.445   5.535  19.818  0.00  0.00    +0.000 C 
ATOM      5  C   UNL     1       5.889   5.133  19.510  0.00  0.00    +0.000 C 
ATOM      6  O   UNL     1       6.034   3.749  19.177  0.00  0.00    +0.000 OA
ATOM      7  C   UNL     1       5.178   3.354  18.076  0.00  0.00    +0.000 C 
ATOM      8  C   UNL     1       3.706   3.625  18.480  0.00  0.00    +0.000 C 
ENDROOT
BRANCH   1  16
ATOM      9  O   UNL     1      -1.261  12.191  19.320  0.00  0.00    +0.000 OA
ATOM     10  C   UNL     1      -0.478  11.377  19.829  0.00  0.00    +0.000 C 
ATOM     11  C   UNL     1      -0.663  10.991  21.277  0.00  0.00    +0.000 C 
ATOM     12  C   UNL     1      -0.355   9.573  21.699  0.00  0.00    +0.000 C 
ATOM     13  C   UNL     1       1.110   9.246  21.509  0.00  0.00    +0.000 C 
ATOM     14  C   UNL     1       1.393   8.868  20.086  0.00  0.00    +0.000 A 
ATOM     15  C   UNL     1       1.805   7.548  19.803  0.00  0.00    +0.000 A 
ATOM     16  C   UNL     1       2.168   7.157  18.504  0.00  0.00    +0.000 A 
ATOM     17  C   UNL     1       2.297   8.139  17.532  0.00  0.00    +0.000 A 
ATOM     18  C   UNL     1       1.821   9.428  17.783  0.00  0.00    +0.000 A 
ATOM     19  C   UNL     1       1.281   9.773  19.032  0.00  0.00    +0.000 A 
ATOM     20  N   UNL     1       0.574  10.986  19.063  0.00  0.00    +0.000 N 
ATOM     21  H   UNL     1       0.537  11.485  18.181  0.00  0.00    +0.000 HD
ENDBRANCH   1  16
BRANCH   7  22
ATOM     22  C   UNL     1       5.657   3.930  16.743  0.00  0.00    +0.000 A 
ATOM     23  C   UNL     1       6.983   4.392  16.606  0.00  0.00    +0.000 A 
ATOM     24  C   UNL     1       7.444   4.925  15.400  0.00  0.00    +0.000 A 
ATOM     25  C   UNL     1       6.591   4.971  14.304  0.00  0.00    +0.000 A 
ATOM     26  F   UNL     1       7.026   5.480  13.146  0.00  0.00    +0.000 F 
ATOM     27  C   UNL     1       5.291   4.490  14.395  0.00  0.00    +0.000 A 
ATOM     28  C   UNL     1       4.830   3.970  15.607  0.00  0.00    +0.000 A 
ENDBRANCH   7  22
TORSDOF 2
ENDMDL
