MODEL 1
REMARK VINA RESULT:      -8.1      0.000      0.000
REMARK  Name = 
REMARK  7 active torsions:
REMARK  status: ('A' for Active; 'I' for Inactive)
REMARK    1  A    between atoms: S_2  and  N_4
REMARK    2  A    between atoms: S_2  and  C_20
REMARK    3  A    between atoms: N_4  and  C_5
REMARK    4  A    between atoms: C_9  and  S_10
REMARK    5  A    between atoms: S_10  and  N_13
REMARK    6  A    between atoms: C_25  and  O_26
REMARK    7  A    between atoms: O_26  and  C_27
REMARK                            x       y       z     vdW  Elec       q    Type
REMARK                         _______ _______ _______ _____ _____    ______ ____
ROOT
ATOM      1  N   UNL     1       2.828   7.521  18.542  0.00  0.00    +0.000 N 
ATOM      2  H   UNL     1       2.664   7.739  17.557  0.00  0.00    +0.000 HD
ENDROOT
BRANCH   1   3
ATOM      3  C   UNL     1       1.864   8.151  19.409  0.00  0.00    +0.000 A 
ATOM      4  C   UNL     1       1.660   7.645  20.689  0.00  0.00    +0.000 A 
ATOM      5  C   UNL     1       0.768   8.269  21.565  0.00  0.00    +0.000 A 
ATOM      6  C   UNL     1       0.104   9.431  21.170  0.00  0.00    +0.000 A 
ATOM      7  C   UNL     1       0.348   9.966  19.902  0.00  0.00    +0.000 A 
ATOM      8  C   UNL     1       1.188   9.305  19.003  0.00  0.00    +0.000 A 
BRANCH   7   9
ATOM      9  S   UNL     1      -0.445  11.495  19.418  0.00  0.00    +0.000 S 
ATOM     10  O   UNL     1      -0.765  12.192  20.644  0.00  0.00    +0.000 OA
ATOM     11  O   UNL     1       0.389  12.111  18.410  0.00  0.00    +0.000 OA
BRANCH   9  12
ATOM     12  N   UNL     1      -1.905  10.981  18.669  0.00  0.00    +0.000 NA
ATOM     13  C   UNL     1      -3.046  11.920  18.832  0.00  0.00    +0.000 C 
ATOM     14  C   UNL     1      -4.335  11.355  18.250  0.00  0.00    +0.000 C 
ATOM     15  C   UNL     1      -4.139  10.936  16.801  0.00  0.00    +0.000 C 
ATOM     16  C   UNL     1      -3.037   9.889  16.730  0.00  0.00    +0.000 C 
ATOM     17  C   UNL     1      -1.733  10.438  17.293  0.00  0.00    +0.000 C 
ENDBRANCH   9  12
ENDBRANCH   7   9
ENDBRANCH   1   3
BRANCH   1  19
ATOM     18  O   UNL     1       3.538   5.487  19.927  0.00  0.00    +0.000 OA
ATOM     19  S   UNL     1       2.913   5.812  18.664  0.00  0.00    +0.000 S 
ATOM     20  O   UNL     1       1.606   5.326  18.279  0.00  0.00    +0.000 OA
BRANCH  19  21
ATOM     21  C   UNL     1       4.058   5.333  17.386  0.00  0.00    +0.000 A 
ATOM     22  C   UNL     1       4.658   6.373  16.646  0.00  0.00    +0.000 A 
ATOM     23  C   UNL     1       5.552   6.104  15.614  0.00  0.00    +0.000 A 
ATOM     24  C   UNL     1       5.895   4.791  15.333  0.00  0.00    +0.000 A 
ATOM     25  C   UNL     1       5.297   3.747  16.050  0.00  0.00    +0.000 A 
ATOM     26  C   UNL     1       4.346   3.994  17.064  0.00  0.00    +0.000 A 
BRANCH  26  27
ATOM     27  O   UNL     1       3.578   2.901  17.349  0.00  0.00    +0.000 OA
BRANCH  27  28
ATOM     28  C   UNL     1       3.682   2.188  18.573  0.00  0.00    +0.000 C 
ATOM     29  F   UNL     1       4.671   2.627  19.357  0.00  0.00    +0.000 F 
ATOM     30  F   UNL     1       2.515   2.346  19.239  0.00  0.00    +0.000 F 
ATOM     31  F   UNL     1       3.857   0.868  18.350  0.00  0.00    +0.000 F 
ENDBRANCH  27  28
ENDBRANCH  26  27
ENDBRANCH  19  21
ENDBRANCH   1  19
TORSDOF 7
ENDMDL
MODEL 2
REMARK VINA RESULT:      -8.0      0.430      1.004
REMARK  Name = 
REMARK  7 active torsions:
REMARK  status: ('A' for Active; 'I' for Inactive)
REMARK    1  A    between atoms: S_2  and  N_4
REMARK    2  A    between atoms: S_2  and  C_20
REMARK    3  A    between atoms: N_4  and  C_5
REMARK    4  A    between atoms: C_9  and  S_10
REMARK    5  A    between atoms: S_10  and  N_13
REMARK    6  A    between atoms: C_25  and  O_26
REMARK    7  A    between atoms: O_26  and  C_27
REMARK                            x       y       z     vdW  Elec       q    Type
REMARK                         _______ _______ _______ _____ _____    ______ ____
ROOT
ATOM      1  N   UNL     1       2.912   7.480  18.288  0.00  0.00    +0.000 N 
ATOM      2  H   UNL     1       2.702   7.633  17.299  0.00  0.00    +0.000 HD
ENDROOT
BRANCH   1   3
ATOM      3  C   UNL     1       2.000   8.184  19.155  0.00  0.00    +0.000 A 
ATOM      4  C   UNL     1       1.701   7.657  20.408  0.00  0.00    +0.000 A 
ATOM      5  C   UNL     1       0.861   8.347  21.285  0.00  0.00    +0.000 A 
ATOM      6  C   UNL     1       0.345   9.591  20.920  0.00  0.00    +0.000 A 
ATOM      7  C   UNL     1       0.686  10.142  19.682  0.00  0.00    +0.000 A 
ATOM      8  C   UNL     1       1.472   9.422  18.779  0.00  0.00    +0.000 A 
BRANCH   7   9
ATOM      9  S   UNL     1       0.087  11.768  19.240  0.00  0.00    +0.000 S 
ATOM     10  O   UNL     1      -0.277  12.417  20.480  0.00  0.00    +0.000 OA
ATOM     11  O   UNL     1       1.065  12.359  18.353  0.00  0.00    +0.000 OA
BRANCH   9  12
ATOM     12  N   UNL     1      -1.339  11.449  18.335  0.00  0.00    +0.000 NA
ATOM     13  C   UNL     1      -1.360  10.122  17.665  0.00  0.00    +0.000 C 
ATOM     14  C   UNL     1      -2.592   9.949  16.787  0.00  0.00    +0.000 C 
ATOM     15  C   UNL     1      -3.865  10.214  17.576  0.00  0.00    +0.000 C 
ATOM     16  C   UNL     1      -3.820  11.631  18.130  0.00  0.00    +0.000 C 
ATOM     17  C   UNL     1      -2.604  11.823  19.025  0.00  0.00    +0.000 C 
ENDBRANCH   9  12
ENDBRANCH   7   9
ENDBRANCH   1   3
BRANCH   1  19
ATOM     18  O   UNL     1       3.584   5.536  19.814  0.00  0.00    +0.000 OA
ATOM     19  S   UNL     1       2.980   5.782  18.524  0.00  0.00    +0.000 S 
ATOM     20  O   UNL     1       1.674   5.282  18.152  0.00  0.00    +0.000 OA
BRANCH  19  21
ATOM     21  C   UNL     1       4.138   5.211  17.297  0.00  0.00    +0.000 A 
ATOM     22  C   UNL     1       4.788   6.197  16.525  0.00  0.00    +0.000 A 
ATOM     23  C   UNL     1       5.696   5.855  15.528  0.00  0.00    +0.000 A 
ATOM     24  C   UNL     1       6.004   4.520  15.315  0.00  0.00    +0.000 A 
ATOM     25  C   UNL     1       5.357   3.529  16.064  0.00  0.00    +0.000 A 
ATOM     26  C   UNL     1       4.391   3.850  17.042  0.00  0.00    +0.000 A 
BRANCH  26  27
ATOM     27  O   UNL     1       3.582   2.795  17.356  0.00  0.00    +0.000 OA
BRANCH  27  28
ATOM     28  C   UNL     1       3.688   2.086  18.583  0.00  0.00    +0.000 C 
ATOM     29  F   UNL     1       4.635   2.571  19.392  0.00  0.00    +0.000 F 
ATOM     30  F   UNL     1       2.498   2.189  19.219  0.00  0.00    +0.000 F 
ATOM     31  F   UNL     1       3.931   0.776  18.365  0.00  0.00    +0.000 F 
ENDBRANCH  27  28
ENDBRANCH  26  27
ENDBRANCH  19  21
ENDBRANCH   1  19
TORSDOF 7
ENDMDL
MODEL 3
REMARK VINA RESULT:      -8.0      2.208      3.067
REMARK  Name = 
REMARK  7 active torsions:
REMARK  status: ('A' for Active; 'I' for Inactive)
REMARK    1  A    between atoms: S_2  and  N_4
REMARK    2  A    between atoms: S_2  and  C_20
REMARK    3  A    between atoms: N_4  and  C_5
REMARK    4  A    between atoms: C_9  and  S_10
REMARK    5  A    between atoms: S_10  and  N_13
REMARK    6  A    between atoms: C_25  and  O_26
REMARK    7  A    between atoms: O_26  and  C_27
REMARK                            x       y       z     vdW  Elec       q    Type
REMARK                         _______ _______ _______ _____ _____    ______ ____
ROOT
ATOM      1  N   UNL     1       3.204   7.685  18.058  0.00  0.00    +0.000 N 
ATOM      2  H   UNL     1       3.386   7.768  17.055  0.00  0.00    +0.000 HD
ENDROOT
BRANCH   1   3
ATOM      3  C   UNL     1       2.081   8.488  18.476  0.00  0.00    +0.000 A 
ATOM      4  C   UNL     1       1.258   9.067  17.514  0.00  0.00    +0.000 A 
ATOM      5  C   UNL     1       0.135   9.807  17.895  0.00  0.00    +0.000 A 
ATOM      6  C   UNL     1      -0.187   9.936  19.247  0.00  0.00    +0.000 A 
ATOM      7  C   UNL     1       0.613   9.312  20.208  0.00  0.00    +0.000 A 
ATOM      8  C   UNL     1       1.772   8.630  19.832  0.00  0.00    +0.000 A 
BRANCH   7   9
ATOM      9  S   UNL     1       0.162   9.415  21.937  0.00  0.00    +0.000 S 
ATOM     10  O   UNL     1      -0.776   8.342  22.176  0.00  0.00    +0.000 OA
ATOM     11  O   UNL     1       1.391   9.508  22.695  0.00  0.00    +0.000 OA
BRANCH   9  12
ATOM     12  N   UNL     1      -0.661  10.918  22.058  0.00  0.00    +0.000 NA
ATOM     13  C   UNL     1      -1.560  11.036  23.237  0.00  0.00    +0.000 C 
ATOM     14  C   UNL     1      -2.347  12.340  23.223  0.00  0.00    +0.000 C 
ATOM     15  C   UNL     1      -1.417  13.536  23.088  0.00  0.00    +0.000 C 
ATOM     16  C   UNL     1      -0.617  13.401  21.801  0.00  0.00    +0.000 C 
ATOM     17  C   UNL     1       0.191  12.111  21.798  0.00  0.00    +0.000 C 
ENDBRANCH   9  12
ENDBRANCH   7   9
ENDBRANCH   1   3
BRANCH   1  19
ATOM     18  O   UNL     1       3.634   5.782  19.716  0.00  0.00    +0.000 OA
ATOM     19  S   UNL     1       3.072   6.010  18.404  0.00  0.00    +0.000 S 
ATOM     20  O   UNL     1       1.720   5.641  18.046  0.00  0.00    +0.000 OA
BRANCH  19  21
ATOM     21  C   UNL     1       4.165   5.230  17.233  0.00  0.00    +0.000 A 
ATOM     22  C   UNL     1       4.941   6.082  16.420  0.00  0.00    +0.000 A 
ATOM     23  C   UNL     1       5.811   5.573  15.461  0.00  0.00    +0.000 A 
ATOM     24  C   UNL     1       5.954   4.200  15.330  0.00  0.00    +0.000 A 
ATOM     25  C   UNL     1       5.181   3.342  16.122  0.00  0.00    +0.000 A 
ATOM     26  C   UNL     1       4.251   3.836  17.061  0.00  0.00    +0.000 A 
BRANCH  26  27
ATOM     27  O   UNL     1       3.314   2.909  17.421  0.00  0.00    +0.000 OA
BRANCH  27  28
ATOM     28  C   UNL     1       3.445   2.094  18.577  0.00  0.00    +0.000 C 
ATOM     29  F   UNL     1       4.237   2.628  19.512  0.00  0.00    +0.000 F 
ATOM     30  F   UNL     1       2.211   1.939  19.110  0.00  0.00    +0.000 F 
ATOM     31  F   UNL     1       3.916   0.871  18.256  0.00  0.00    +0.000 F 
ENDBRANCH  27  28
ENDBRANCH  26  27
ENDBRANCH  19  21
ENDBRANCH   1  19
TORSDOF 7
ENDMDL
MODEL 4
REMARK VINA RESULT:      -8.0      1.971      2.589
REMARK  Name = 
REMARK  7 active torsions:
REMARK  status: ('A' for Active; 'I' for Inactive)
REMARK    1  A    between atoms: S_2  and  N_4
REMARK    2  A    between atoms: S_2  and  C_20
REMARK    3  A    between atoms: N_4  and  C_5
REMARK    4  A    between atoms: C_9  and  S_10
REMARK    5  A    between atoms: S_10  and  N_13
REMARK    6  A    between atoms: C_25  and  O_26
REMARK    7  A    between atoms: O_26  and  C_27
REMARK                            x       y       z     vdW  Elec       q    Type
REMARK                         _______ _______ _______ _____ _____    ______ ____
ROOT
ATOM      1  N   UNL     1       3.464   7.091  18.327  0.00  0.00    +0.000 N 
ATOM      2  H   UNL     1       3.390   7.430  17.365  0.00  0.00    +0.000 HD
ENDROOT
BRANCH   1   3
ATOM      3  C   UNL     1       2.418   7.613  19.171  0.00  0.00    +0.000 A 
ATOM      4  C   UNL     1       2.010   6.885  20.285  0.00  0.00    +0.000 A 
ATOM      5  C   UNL     1       1.034   7.394  21.145  0.00  0.00    +0.000 A 
ATOM      6  C   UNL     1       0.490   8.657  20.911  0.00  0.00    +0.000 A 
ATOM      7  C   UNL     1       0.937   9.408  19.820  0.00  0.00    +0.000 A 
ATOM      8  C   UNL     1       1.863   8.871  18.923  0.00  0.00    +0.000 A 
BRANCH   7   9
ATOM      9  S   UNL     1       0.296  11.057  19.556  0.00  0.00    +0.000 S 
ATOM     10  O   UNL     1       0.225  11.678  20.860  0.00  0.00    +0.000 OA
ATOM     11  O   UNL     1       1.072  11.654  18.492  0.00  0.00    +0.000 OA
BRANCH   9  12
ATOM     12  N   UNL     1      -1.300  10.789  18.975  0.00  0.00    +0.000 NA
ATOM     13  C   UNL     1      -2.198  11.971  19.070  0.00  0.00    +0.000 C 
ATOM     14  C   UNL     1      -3.623  11.636  18.651  0.00  0.00    +0.000 C 
ATOM     15  C   UNL     1      -3.649  11.004  17.267  0.00  0.00    +0.000 C 
ATOM     16  C   UNL     1      -2.804   9.739  17.282  0.00  0.00    +0.000 C 
ATOM     17  C   UNL     1      -1.369  10.051  17.683  0.00  0.00    +0.000 C 
ENDBRANCH   9  12
ENDBRANCH   7   9
ENDBRANCH   1   3
BRANCH   1  19
ATOM     18  O   UNL     1       4.108   4.903  19.493  0.00  0.00    +0.000 OA
ATOM     19  S   UNL     1       3.552   5.380  18.246  0.00  0.00    +0.000 S 
ATOM     20  O   UNL     1       2.271   4.945  17.733  0.00  0.00    +0.000 OA
BRANCH  19  21
ATOM     21  C   UNL     1       4.768   5.058  16.985  0.00  0.00    +0.000 A 
ATOM     22  C   UNL     1       4.513   3.977  16.115  0.00  0.00    +0.000 A 
ATOM     23  C   UNL     1       5.409   3.631  15.108  0.00  0.00    +0.000 A 
ATOM     24  C   UNL     1       6.555   4.389  14.925  0.00  0.00    +0.000 A 
ATOM     25  C   UNL     1       6.828   5.457  15.789  0.00  0.00    +0.000 A 
ATOM     26  C   UNL     1       5.961   5.791  16.852  0.00  0.00    +0.000 A 
BRANCH  26  27
ATOM     27  O   UNL     1       6.568   6.547  17.815  0.00  0.00    +0.000 OA
BRANCH  27  28
ATOM     28  C   UNL     1       7.507   6.009  18.734  0.00  0.00    +0.000 C 
ATOM     29  F   UNL     1       8.102   4.897  18.291  0.00  0.00    +0.000 F 
ATOM     30  F   UNL     1       8.463   6.945  18.937  0.00  0.00    +0.000 F 
ATOM     31  F   UNL     1       6.924   5.746  19.923  0.00  0.00    +0.000 F 
ENDBRANCH  27  28
ENDBRANCH  26  27
ENDBRANCH  19  21
ENDBRANCH   1  19
TORSDOF 7
ENDMDL
MODEL 5
REMARK VINA RESULT:      -7.9      3.260      4.149
REMARK  Name = 
REMARK  7 active torsions:
REMARK  status: ('A' for Active; 'I' for Inactive)
REMARK    1  A    between atoms: S_2  and  N_4
REMARK    2  A    between atoms: S_2  and  C_20
REMARK    3  A    between atoms: N_4  and  C_5
REMARK    4  A    between atoms: C_9  and  S_10
REMARK    5  A    between atoms: S_10  and  N_13
REMARK    6  A    between atoms: C_25  and  O_26
REMARK    7  A    between atoms: O_26  and  C_27
REMARK                            x       y       z     vdW  Elec       q    Type
REMARK                         _______ _______ _______ _____ _____    ______ ____
ROOT
ATOM      1  N   UNL     1       3.339   4.807  19.184  0.00  0.00    +0.000 N 
ATOM      2  H   UNL     1       2.979   4.393  20.047  0.00  0.00    +0.000 HD
ENDROOT
BRANCH   1   3
ATOM      3  C   UNL     1       2.939   6.183  19.030  0.00  0.00    +0.000 A 
ATOM      4  C   UNL     1       3.164   6.831  17.819  0.00  0.00    +0.000 A 
ATOM      5  C   UNL     1       2.740   8.149  17.630  0.00  0.00    +0.000 A 
ATOM      6  C   UNL     1       2.051   8.810  18.647  0.00  0.00    +0.000 A 
ATOM      7  C   UNL     1       1.781   8.141  19.845  0.00  0.00    +0.000 A 
ATOM      8  C   UNL     1       2.264   6.848  20.058  0.00  0.00    +0.000 A 
BRANCH   7   9
ATOM      9  S   UNL     1       0.836   8.960  21.124  0.00  0.00    +0.000 S 
ATOM     10  O   UNL     1      -0.307   8.115  21.387  0.00  0.00    +0.000 OA
ATOM     11  O   UNL     1       1.758   9.311  22.181  0.00  0.00    +0.000 OA
BRANCH   9  12
ATOM     12  N   UNL     1       0.299  10.411  20.373  0.00  0.00    +0.000 NA
ATOM     13  C   UNL     1      -1.021  10.305  19.698  0.00  0.00    +0.000 C 
ATOM     14  C   UNL     1      -1.384  11.584  18.955  0.00  0.00    +0.000 C 
ATOM     15  C   UNL     1      -1.305  12.790  19.878  0.00  0.00    +0.000 C 
ATOM     16  C   UNL     1       0.107  12.899  20.435  0.00  0.00    +0.000 C 
ATOM     17  C   UNL     1       0.486  11.637  21.197  0.00  0.00    +0.000 C 
ENDBRANCH   9  12
ENDBRANCH   7   9
ENDBRANCH   1   3
BRANCH   1  19
ATOM     18  O   UNL     1       5.673   5.673  19.787  0.00  0.00    +0.000 OA
ATOM     19  S   UNL     1       5.033   4.532  19.170  0.00  0.00    +0.000 S 
ATOM     20  O   UNL     1       5.214   3.175  19.634  0.00  0.00    +0.000 OA
BRANCH  19  21
ATOM     21  C   UNL     1       5.472   4.568  17.444  0.00  0.00    +0.000 A 
ATOM     22  C   UNL     1       4.781   3.681  16.592  0.00  0.00    +0.000 A 
ATOM     23  C   UNL     1       5.063   3.617  15.231  0.00  0.00    +0.000 A 
ATOM     24  C   UNL     1       6.011   4.472  14.690  0.00  0.00    +0.000 A 
ATOM     25  C   UNL     1       6.715   5.348  15.525  0.00  0.00    +0.000 A 
ATOM     26  C   UNL     1       6.485   5.390  16.917  0.00  0.00    +0.000 A 
BRANCH  26  27
ATOM     27  O   UNL     1       7.515   5.964  17.609  0.00  0.00    +0.000 OA
BRANCH  27  28
ATOM     28  C   UNL     1       7.665   7.371  17.734  0.00  0.00    +0.000 C 
ATOM     29  F   UNL     1       6.500   8.022  17.798  0.00  0.00    +0.000 F 
ATOM     30  F   UNL     1       8.343   7.609  18.881  0.00  0.00    +0.000 F 
ATOM     31  F   UNL     1       8.389   7.873  16.711  0.00  0.00    +0.000 F 
ENDBRANCH  27  28
ENDBRANCH  26  27
ENDBRANCH  19  21
ENDBRANCH   1  19
TORSDOF 7
ENDMDL
MODEL 6
REMARK VINA RESULT:      -7.8      2.595      3.444
REMARK  Name = 
REMARK  7 active torsions:
REMARK  status: ('A' for Active; 'I' for Inactive)
REMARK    1  A    between atoms: S_2  and  N_4
REMARK    2  A    between atoms: S_2  and  C_20
REMARK    3  A    between atoms: N_4  and  C_5
REMARK    4  A    between atoms: C_9  and  S_10
REMARK    5  A    between atoms: S_10  and  N_13
REMARK    6  A    between atoms: C_25  and  O_26
REMARK    7  A    between atoms: O_26  and  C_27
REMARK                            x       y       z     vdW  Elec       q    Type
REMARK                         _______ _______ _______ _____ _____    ______ ____
ROOT
ATOM      1  N   UNL     1       3.629   5.715  19.584  0.00  0.00    +0.000 N 
ATOM      2  H   UNL     1       4.636   5.876  19.656  0.00  0.00    +0.000 HD
ENDROOT
BRANCH   1   3
ATOM      3  C   UNL     1       2.900   6.932  19.322  0.00  0.00    +0.000 A 
ATOM      4  C   UNL     1       2.930   7.488  18.047  0.00  0.00    +0.000 A 
ATOM      5  C   UNL     1       2.191   8.637  17.757  0.00  0.00    +0.000 A 
ATOM      6  C   UNL     1       1.386   9.213  18.741  0.00  0.00    +0.000 A 
ATOM      7  C   UNL     1       1.318   8.625  20.007  0.00  0.00    +0.000 A 
ATOM      8  C   UNL     1       2.108   7.515  20.316  0.00  0.00    +0.000 A 
BRANCH   7   9
ATOM      9  S   UNL     1       0.232   9.317  21.248  0.00  0.00    +0.000 S 
ATOM     10  O   UNL     1      -0.725   8.283  21.572  0.00  0.00    +0.000 OA
ATOM     11  O   UNL     1       1.069   9.900  22.273  0.00  0.00    +0.000 OA
BRANCH   9  12
ATOM     12  N   UNL     1      -0.576  10.590  20.423  0.00  0.00    +0.000 NA
ATOM     13  C   UNL     1      -1.554  10.139  19.398  0.00  0.00    +0.000 C 
ATOM     14  C   UNL     1      -2.147  11.309  18.625  0.00  0.00    +0.000 C 
ATOM     15  C   UNL     1      -2.740  12.343  19.570  0.00  0.00    +0.000 C 
ATOM     16  C   UNL     1      -1.652  12.842  20.508  0.00  0.00    +0.000 C 
ATOM     17  C   UNL     1      -1.054  11.690  21.305  0.00  0.00    +0.000 C 
ENDBRANCH   9  12
ENDBRANCH   7   9
ENDBRANCH   1   3
BRANCH   1  19
ATOM     18  O   UNL     1       3.707   3.208  19.070  0.00  0.00    +0.000 OA
ATOM     19  S   UNL     1       3.406   4.468  18.427  0.00  0.00    +0.000 S 
ATOM     20  O   UNL     1       2.139   4.748  17.788  0.00  0.00    +0.000 OA
BRANCH  19  21
ATOM     21  C   UNL     1       4.686   4.749  17.221  0.00  0.00    +0.000 A 
ATOM     22  C   UNL     1       4.574   4.051  15.999  0.00  0.00    +0.000 A 
ATOM     23  C   UNL     1       5.532   4.187  14.999  0.00  0.00    +0.000 A 
ATOM     24  C   UNL     1       6.594   5.057  15.184  0.00  0.00    +0.000 A 
ATOM     25  C   UNL     1       6.725   5.747  16.396  0.00  0.00    +0.000 A 
ATOM     26  C   UNL     1       5.797   5.582  17.447  0.00  0.00    +0.000 A 
BRANCH  26  27
ATOM     27  O   UNL     1       6.291   5.976  18.659  0.00  0.00    +0.000 OA
BRANCH  27  28
ATOM     28  C   UNL     1       7.639   5.754  19.047  0.00  0.00    +0.000 C 
ATOM     29  F   UNL     1       8.210   4.728  18.409  0.00  0.00    +0.000 F 
ATOM     30  F   UNL     1       8.338   6.874  18.752  0.00  0.00    +0.000 F 
ATOM     31  F   UNL     1       7.730   5.545  20.377  0.00  0.00    +0.000 F 
ENDBRANCH  27  28
ENDBRANCH  26  27
ENDBRANCH  19  21
ENDBRANCH   1  19
TORSDOF 7
ENDMDL
MODEL 7
REMARK VINA RESULT:      -7.8      2.237      3.043
REMARK  Name = 
REMARK  7 active torsions:
REMARK  status: ('A' for Active; 'I' for Inactive)
REMARK    1  A    between atoms: S_2  and  N_4
REMARK    2  A    between atoms: S_2  and  C_20
REMARK    3  A    between atoms: N_4  and  C_5
REMARK    4  A    between atoms: C_9  and  S_10
REMARK    5  A    between atoms: S_10  and  N_13
REMARK    6  A    between atoms: C_25  and  O_26
REMARK    7  A    between atoms: O_26  and  C_27
REMARK                            x       y       z     vdW  Elec       q    Type
REMARK                         _______ _______ _______ _____ _____    ______ ____
ROOT
ATOM      1  N   UNL     1       3.138   7.408  17.923  0.00  0.00    +0.000 N 
ATOM      2  H   UNL     1       2.820   7.490  16.955  0.00  0.00    +0.000 HD
ENDROOT
BRANCH   1   3
ATOM      3  C   UNL     1       2.248   8.065  18.847  0.00  0.00    +0.000 A 
ATOM      4  C   UNL     1       1.984   7.475  20.080  0.00  0.00    +0.000 A 
ATOM      5  C   UNL     1       1.165   8.117  21.012  0.00  0.00    +0.000 A 
ATOM      6  C   UNL     1       0.637   9.376  20.724  0.00  0.00    +0.000 A 
ATOM      7  C   UNL     1       0.944   9.989  19.506  0.00  0.00    +0.000 A 
ATOM      8  C   UNL     1       1.707   9.319  18.548  0.00  0.00    +0.000 A 
BRANCH   7   9
ATOM      9  S   UNL     1       0.330  11.634  19.162  0.00  0.00    +0.000 S 
ATOM     10  O   UNL     1       0.015  12.226  20.443  0.00  0.00    +0.000 OA
ATOM     11  O   UNL     1       1.273  12.265  18.265  0.00  0.00    +0.000 OA
BRANCH   9  12
ATOM     12  N   UNL     1      -1.130  11.355  18.299  0.00  0.00    +0.000 NA
ATOM     13  C   UNL     1      -1.187  10.050  17.588  0.00  0.00    +0.000 C 
ATOM     14  C   UNL     1      -2.451   9.915  16.750  0.00  0.00    +0.000 C 
ATOM     15  C   UNL     1      -3.693  10.165  17.593  0.00  0.00    +0.000 C 
ATOM     16  C   UNL     1      -3.616  11.562  18.190  0.00  0.00    +0.000 C 
ATOM     17  C   UNL     1      -2.367  11.716  19.046  0.00  0.00    +0.000 C 
ENDBRANCH   9  12
ENDBRANCH   7   9
ENDBRANCH   1   3
BRANCH   1  19
ATOM     18  O   UNL     1       4.111   5.616  19.472  0.00  0.00    +0.000 OA
ATOM     19  S   UNL     1       3.398   5.739  18.220  0.00  0.00    +0.000 S 
ATOM     20  O   UNL     1       2.130   5.092  17.964  0.00  0.00    +0.000 OA
BRANCH  19  21
ATOM     21  C   UNL     1       4.523   5.230  16.936  0.00  0.00    +0.000 A 
ATOM     22  C   UNL     1       4.520   3.862  16.591  0.00  0.00    +0.000 A 
ATOM     23  C   UNL     1       5.375   3.361  15.614  0.00  0.00    +0.000 A 
ATOM     24  C   UNL     1       6.216   4.227  14.933  0.00  0.00    +0.000 A 
ATOM     25  C   UNL     1       6.239   5.585  15.273  0.00  0.00    +0.000 A 
ATOM     26  C   UNL     1       5.422   6.106  16.300  0.00  0.00    +0.000 A 
BRANCH  26  27
ATOM     27  O   UNL     1       5.866   7.309  16.773  0.00  0.00    +0.000 OA
BRANCH  27  28
ATOM     28  C   UNL     1       7.113   7.459  17.437  0.00  0.00    +0.000 C 
ATOM     29  F   UNL     1       8.163   7.220  16.646  0.00  0.00    +0.000 F 
ATOM     30  F   UNL     1       7.194   8.739  17.868  0.00  0.00    +0.000 F 
ATOM     31  F   UNL     1       7.187   6.651  18.515  0.00  0.00    +0.000 F 
ENDBRANCH  27  28
ENDBRANCH  26  27
ENDBRANCH  19  21
ENDBRANCH   1  19
TORSDOF 7
ENDMDL
MODEL 8
REMARK VINA RESULT:      -7.7      1.575      2.389
REMARK  Name = 
REMARK  7 active torsions:
REMARK  status: ('A' for Active; 'I' for Inactive)
REMARK    1  A    between atoms: S_2  and  N_4
REMARK    2  A    between atoms: S_2  and  C_20
REMARK    3  A    between atoms: N_4  and  C_5
REMARK    4  A    between atoms: C_9  and  S_10
REMARK    5  A    between atoms: S_10  and  N_13
REMARK    6  A    between atoms: C_25  and  O_26
REMARK    7  A    between atoms: O_26  and  C_27
REMARK                            x       y       z     vdW  Elec       q    Type
REMARK                         _______ _______ _______ _____ _____    ______ ____
ROOT
ATOM      1  N   UNL     1       2.900   7.468  18.292  0.00  0.00    +0.000 N 
ATOM      2  H   UNL     1       2.689   7.622  17.304  0.00  0.00    +0.000 HD
ENDROOT
BRANCH   1   3
ATOM      3  C   UNL     1       1.970   8.147  19.160  0.00  0.00    +0.000 A 
ATOM      4  C   UNL     1       1.753   7.660  20.446  0.00  0.00    +0.000 A 
ATOM      5  C   UNL     1       0.895   8.330  21.322  0.00  0.00    +0.000 A 
ATOM      6  C   UNL     1       0.279   9.516  20.921  0.00  0.00    +0.000 A 
ATOM      7  C   UNL     1       0.536  10.030  19.647  0.00  0.00    +0.000 A 
ATOM      8  C   UNL     1       1.341   9.325  18.748  0.00  0.00    +0.000 A 
BRANCH   7   9
ATOM      9  S   UNL     1      -0.194  11.587  19.155  0.00  0.00    +0.000 S 
ATOM     10  O   UNL     1       0.907  12.488  18.897  0.00  0.00    +0.000 OA
ATOM     11  O   UNL     1      -1.172  11.297  18.130  0.00  0.00    +0.000 OA
BRANCH   9  12
ATOM     12  N   UNL     1      -1.029  12.112  20.563  0.00  0.00    +0.000 NA
ATOM     13  C   UNL     1      -0.253  13.035  21.434  0.00  0.00    +0.000 C 
ATOM     14  C   UNL     1      -1.000  13.368  22.718  0.00  0.00    +0.000 C 
ATOM     15  C   UNL     1      -2.393  13.899  22.415  0.00  0.00    +0.000 C 
ATOM     16  C   UNL     1      -3.164  12.852  21.625  0.00  0.00    +0.000 C 
ATOM     17  C   UNL     1      -2.443  12.514  20.327  0.00  0.00    +0.000 C 
ENDBRANCH   9  12
ENDBRANCH   7   9
ENDBRANCH   1   3
BRANCH   1  19
ATOM     18  O   UNL     1       3.614   5.532  19.809  0.00  0.00    +0.000 OA
ATOM     19  S   UNL     1       3.005   5.771  18.519  0.00  0.00    +0.000 S 
ATOM     20  O   UNL     1       1.712   5.244  18.143  0.00  0.00    +0.000 OA
BRANCH  19  21
ATOM     21  C   UNL     1       4.177   5.232  17.290  0.00  0.00    +0.000 A 
ATOM     22  C   UNL     1       4.800   6.237  16.520  0.00  0.00    +0.000 A 
ATOM     23  C   UNL     1       5.716   5.920  15.522  0.00  0.00    +0.000 A 
ATOM     24  C   UNL     1       6.059   4.594  15.306  0.00  0.00    +0.000 A 
ATOM     25  C   UNL     1       5.439   3.585  16.054  0.00  0.00    +0.000 A 
ATOM     26  C   UNL     1       4.466   3.879  17.033  0.00  0.00    +0.000 A 
BRANCH  26  27
ATOM     27  O   UNL     1       3.686   2.803  17.347  0.00  0.00    +0.000 OA
BRANCH  27  28
ATOM     28  C   UNL     1       3.726   2.171  18.619  0.00  0.00    +0.000 C 
ATOM     29  F   UNL     1       2.597   2.323  19.319  0.00  0.00    +0.000 F 
ATOM     30  F   UNL     1       3.917   0.847  18.412  0.00  0.00    +0.000 F 
ATOM     31  F   UNL     1       4.760   2.630  19.355  0.00  0.00    +0.000 F 
ENDBRANCH  27  28
ENDBRANCH  26  27
ENDBRANCH  19  21
ENDBRANCH   1  19
TORSDOF 7
ENDMDL
MODEL 9
REMARK VINA RESULT:      -7.6      2.656      3.488
REMARK  Name = 
REMARK  7 active torsions:
REMARK  status: ('A' for Active; 'I' for Inactive)
REMARK    1  A    between atoms: S_2  and  N_4
REMARK    2  A    between atoms: S_2  and  C_20
REMARK    3  A    between atoms: N_4  and  C_5
REMARK    4  A    between atoms: C_9  and  S_10
REMARK    5  A    between atoms: S_10  and  N_13
REMARK    6  A    between atoms: C_25  and  O_26
REMARK    7  A    between atoms: O_26  and  C_27
REMARK                            x       y       z     vdW  Elec       q    Type
REMARK                         _______ _______ _______ _____ _____    ______ ____
ROOT
ATOM      1  N   UNL     1       3.734   5.757  19.573  0.00  0.00    +0.000 N 
ATOM      2  H   UNL     1       4.736   5.955  19.613  0.00  0.00    +0.000 HD
ENDROOT
BRANCH   1   3
ATOM      3  C   UNL     1       2.955   6.940  19.303  0.00  0.00    +0.000 A 
ATOM      4  C   UNL     1       2.900   7.441  18.005  0.00  0.00    +0.000 A 
ATOM      5  C   UNL     1       2.111   8.556  17.710  0.00  0.00    +0.000 A 
ATOM      6  C   UNL     1       1.343   9.150  18.712  0.00  0.00    +0.000 A 
ATOM      7  C   UNL     1       1.361   8.615  20.003  0.00  0.00    +0.000 A 
ATOM      8  C   UNL     1       2.201   7.543  20.313  0.00  0.00    +0.000 A 
BRANCH   7   9
ATOM      9  S   UNL     1       0.323   9.329  21.272  0.00  0.00    +0.000 S 
ATOM     10  O   UNL     1      -0.728   8.369  21.524  0.00  0.00    +0.000 OA
ATOM     11  O   UNL     1       1.193   9.773  22.339  0.00  0.00    +0.000 OA
BRANCH   9  12
ATOM     12  N   UNL     1      -0.354  10.717  20.517  0.00  0.00    +0.000 NA
ATOM     13  C   UNL     1       0.575  11.873  20.403  0.00  0.00    +0.000 C 
ATOM     14  C   UNL     1      -0.117  13.104  19.835  0.00  0.00    +0.000 C 
ATOM     15  C   UNL     1      -0.801  12.784  18.515  0.00  0.00    +0.000 C 
ATOM     16  C   UNL     1      -1.819  11.676  18.737  0.00  0.00    +0.000 C 
ATOM     17  C   UNL     1      -1.147  10.427  19.291  0.00  0.00    +0.000 C 
ENDBRANCH   9  12
ENDBRANCH   7   9
ENDBRANCH   1   3
BRANCH   1  19
ATOM     18  O   UNL     1       3.842   3.236  19.134  0.00  0.00    +0.000 OA
ATOM     19  S   UNL     1       3.524   4.473  18.455  0.00  0.00    +0.000 S 
ATOM     20  O   UNL     1       2.253   4.719  17.810  0.00  0.00    +0.000 OA
BRANCH  19  21
ATOM     21  C   UNL     1       4.799   4.734  17.238  0.00  0.00    +0.000 A 
ATOM     22  C   UNL     1       4.711   3.975  16.052  0.00  0.00    +0.000 A 
ATOM     23  C   UNL     1       5.667   4.091  15.047  0.00  0.00    +0.000 A 
ATOM     24  C   UNL     1       6.704   5.000  15.192  0.00  0.00    +0.000 A 
ATOM     25  C   UNL     1       6.811   5.750  16.371  0.00  0.00    +0.000 A 
ATOM     26  C   UNL     1       5.885   5.609  17.426  0.00  0.00    +0.000 A 
BRANCH  26  27
ATOM     27  O   UNL     1       6.363   6.074  18.618  0.00  0.00    +0.000 OA
BRANCH  27  28
ATOM     28  C   UNL     1       7.671   5.780  19.088  0.00  0.00    +0.000 C 
ATOM     29  F   UNL     1       7.711   5.500  20.395  0.00  0.00    +0.000 F 
ATOM     30  F   UNL     1       8.114   4.696  18.411  0.00  0.00    +0.000 F 
ATOM     31  F   UNL     1       8.516   6.802  18.837  0.00  0.00    +0.000 F 
ENDBRANCH  27  28
ENDBRANCH  26  27
ENDBRANCH  19  21
ENDBRANCH   1  19
TORSDOF 7
ENDMDL
