MODEL 1
REMARK VINA RESULT:      -8.4      0.000      0.000
REMARK  Name = 
REMARK  3 active torsions:
REMARK  status: ('A' for Active; 'I' for Inactive)
REMARK    1  A    between atoms: C_1  and  C_2
REMARK    2  A    between atoms: C_11  and  C_13
REMARK    3  A    between atoms: C_13  and  N_14
REMARK                            x       y       z     vdW  Elec       q    Type
REMARK                         _______ _______ _______ _____ _____    ______ ____
ROOT
ATOM      1  N   UNL     1       1.003  11.820  20.078  0.00  0.00    +0.000 N 
ATOM      2  C   UNL     1       0.007  11.652  19.194  0.00  0.00    +0.000 C 
ATOM      3  O   UNL     1      -0.394  12.398  18.323  0.00  0.00    +0.000 OA
ATOM      4  N   UNL     1      -0.447  10.269  19.380  0.00  0.00    +0.000 N 
ATOM      5  C   UNL     1       0.785   9.520  19.618  0.00  0.00    +0.000 C 
ATOM      6  C   UNL     1       1.293   9.325  18.163  0.00  0.00    +0.000 C 
ATOM      7  C   UNL     1       2.581   8.551  18.012  0.00  0.00    +0.000 C 
ATOM      8  C   UNL     1       2.365   7.208  18.647  0.00  0.00    +0.000 A 
ATOM      9  C   UNL     1       2.554   6.009  17.975  0.00  0.00    +0.000 A 
ATOM     10  C   UNL     1       2.370   4.809  18.658  0.00  0.00    +0.000 A 
ATOM     11  C   UNL     1       2.093   4.798  20.023  0.00  0.00    +0.000 A 
ATOM     12  C   UNL     1       1.866   5.992  20.683  0.00  0.00    +0.000 A 
ATOM     13  C   UNL     1       1.876   7.178  19.956  0.00  0.00    +0.000 A 
ATOM     14  C   UNL     1       1.394   8.444  20.578  0.00  0.00    +0.000 C 
ATOM     15  C   UNL     1       1.038  10.634  20.660  0.00  0.00    +0.000 C 
ATOM     16  O   UNL     1       0.961  10.518  21.886  0.00  0.00    +0.000 OA
ATOM     17  H   UNL     1      -1.100  10.002  18.643  0.00  0.00    +0.000 HD
ENDROOT
BRANCH   1  18
ATOM     18  C   UNL     1       1.748  12.906  20.671  0.00  0.00    +0.000 C 
BRANCH  18  29
ATOM     19  C   UNL     1      -0.062  16.894  21.969  0.00  0.00    +0.000 C 
ATOM     20  C   UNL     1      -0.127  16.266  20.575  0.00  0.00    +0.000 C 
ATOM     21  C   UNL     1       0.004  17.352  19.497  0.00  0.00    +0.000 C 
ATOM     22  C   UNL     1       1.173  16.892  18.704  0.00  0.00    +0.000 A 
ATOM     23  C   UNL     1       1.719  17.562  17.608  0.00  0.00    +0.000 A 
ATOM     24  C   UNL     1       2.808  17.009  16.954  0.00  0.00    +0.000 A 
ATOM     25  C   UNL     1       3.334  15.788  17.406  0.00  0.00    +0.000 A 
ATOM     26  C   UNL     1       2.741  15.100  18.483  0.00  0.00    +0.000 A 
ATOM     27  C   UNL     1       1.675  15.675  19.167  0.00  0.00    +0.000 A 
ATOM     28  N   UNL     1       0.918  15.236  20.293  0.00  0.00    +0.000 N 
ATOM     29  C   UNL     1       0.924  14.100  21.067  0.00  0.00    +0.000 C 
ATOM     30  O   UNL     1       0.174  13.998  22.041  0.00  0.00    +0.000 OA
ENDBRANCH  18  29
ENDBRANCH   1  18
TORSDOF 2
ENDMDL
MODEL 2
REMARK VINA RESULT:      -8.4      1.297      2.206
REMARK  Name = 
REMARK  3 active torsions:
REMARK  status: ('A' for Active; 'I' for Inactive)
REMARK    1  A    between atoms: C_1  and  C_2
REMARK    2  A    between atoms: C_11  and  C_13
REMARK    3  A    between atoms: C_13  and  N_14
REMARK                            x       y       z     vdW  Elec       q    Type
REMARK                         _______ _______ _______ _____ _____    ______ ____
ROOT
ATOM      1  N   UNL     1       0.166  12.358  19.978  0.00  0.00    +0.000 N 
ATOM      2  C   UNL     1      -0.800  12.027  19.108  0.00  0.00    +0.000 C 
ATOM      3  O   UNL     1      -1.307  12.685  18.221  0.00  0.00    +0.000 OA
ATOM      4  N   UNL     1      -1.054  10.600  19.334  0.00  0.00    +0.000 N 
ATOM      5  C   UNL     1       0.274  10.039  19.582  0.00  0.00    +0.000 C 
ATOM      6  C   UNL     1       0.797   9.878  18.128  0.00  0.00    +0.000 C 
ATOM      7  C   UNL     1       2.180   9.290  17.986  0.00  0.00    +0.000 C 
ATOM      8  C   UNL     1       2.159   7.948  18.658  0.00  0.00    +0.000 A 
ATOM      9  C   UNL     1       2.513   6.769  18.016  0.00  0.00    +0.000 A 
ATOM     10  C   UNL     1       2.504   5.574  18.733  0.00  0.00    +0.000 A 
ATOM     11  C   UNL     1       2.238   5.562  20.100  0.00  0.00    +0.000 A 
ATOM     12  C   UNL     1       1.847   6.729  20.730  0.00  0.00    +0.000 A 
ATOM     13  C   UNL     1       1.687   7.885  19.972  0.00  0.00    +0.000 A 
ATOM     14  C   UNL     1       1.033   9.087  20.564  0.00  0.00    +0.000 C 
ATOM     15  C   UNL     1       0.372  11.206  20.591  0.00  0.00    +0.000 C 
ATOM     16  O   UNL     1       0.317  11.113  21.820  0.00  0.00    +0.000 OA
ATOM     17  H   UNL     1      -1.666  10.224  18.610  0.00  0.00    +0.000 HD
ENDROOT
BRANCH   1  18
ATOM     18  C   UNL     1       0.753  13.555  20.537  0.00  0.00    +0.000 C 
BRANCH  18  29
ATOM     19  C   UNL     1       4.472  14.573  18.089  0.00  0.00    +0.000 C 
ATOM     20  C   UNL     1       3.605  15.547  18.891  0.00  0.00    +0.000 C 
ATOM     21  C   UNL     1       3.471  16.880  18.142  0.00  0.00    +0.000 C 
ATOM     22  C   UNL     1       2.000  17.038  18.006  0.00  0.00    +0.000 A 
ATOM     23  C   UNL     1       1.357  18.097  17.363  0.00  0.00    +0.000 A 
ATOM     24  C   UNL     1      -0.027  18.120  17.322  0.00  0.00    +0.000 A 
ATOM     25  C   UNL     1      -0.750  17.080  17.929  0.00  0.00    +0.000 A 
ATOM     26  C   UNL     1      -0.088  16.044  18.617  0.00  0.00    +0.000 A 
ATOM     27  C   UNL     1       1.302  15.997  18.622  0.00  0.00    +0.000 A 
ATOM     28  N   UNL     1       2.222  15.068  19.190  0.00  0.00    +0.000 N 
ATOM     29  C   UNL     1       2.088  13.936  19.961  0.00  0.00    +0.000 C 
ATOM     30  O   UNL     1       3.077  13.273  20.281  0.00  0.00    +0.000 OA
ENDBRANCH  18  29
ENDBRANCH   1  18
TORSDOF 2
ENDMDL
MODEL 3
REMARK VINA RESULT:      -8.0      1.106      2.343
REMARK  Name = 
REMARK  3 active torsions:
REMARK  status: ('A' for Active; 'I' for Inactive)
REMARK    1  A    between atoms: C_1  and  C_2
REMARK    2  A    between atoms: C_11  and  C_13
REMARK    3  A    between atoms: C_13  and  N_14
REMARK                            x       y       z     vdW  Elec       q    Type
REMARK                         _______ _______ _______ _____ _____    ______ ____
ROOT
ATOM      1  N   UNL     1       0.737  12.067  20.048  0.00  0.00    +0.000 N 
ATOM      2  C   UNL     1      -0.235  11.854  19.147  0.00  0.00    +0.000 C 
ATOM      3  O   UNL     1      -0.653  12.579  18.267  0.00  0.00    +0.000 OA
ATOM      4  N   UNL     1      -0.633  10.453  19.332  0.00  0.00    +0.000 N 
ATOM      5  C   UNL     1       0.626   9.759  19.595  0.00  0.00    +0.000 C 
ATOM      6  C   UNL     1       1.167   9.580  18.149  0.00  0.00    +0.000 C 
ATOM      7  C   UNL     1       2.488   8.862  18.024  0.00  0.00    +0.000 C 
ATOM      8  C   UNL     1       2.319   7.513  18.661  0.00  0.00    +0.000 A 
ATOM      9  C   UNL     1       2.571   6.320  17.997  0.00  0.00    +0.000 A 
ATOM     10  C   UNL     1       2.427   5.116  18.683  0.00  0.00    +0.000 A 
ATOM     11  C   UNL     1       2.127   5.098  20.043  0.00  0.00    +0.000 A 
ATOM     12  C   UNL     1       1.838   6.284  20.693  0.00  0.00    +0.000 A 
ATOM     13  C   UNL     1       1.810   7.467  19.961  0.00  0.00    +0.000 A 
ATOM     14  C   UNL     1       1.264   8.713  20.569  0.00  0.00    +0.000 C 
ATOM     15  C   UNL     1       0.813  10.886  20.635  0.00  0.00    +0.000 C 
ATOM     16  O   UNL     1       0.720  10.772  21.860  0.00  0.00    +0.000 OA
ATOM     17  H   UNL     1      -1.261  10.156  18.585  0.00  0.00    +0.000 HD
ENDROOT
BRANCH   1  18
ATOM     18  C   UNL     1       1.425  13.187  20.649  0.00  0.00    +0.000 C 
BRANCH  18  29
ATOM     19  C   UNL     1       3.264  15.605  17.239  0.00  0.00    +0.000 C 
ATOM     20  C   UNL     1       2.687  16.153  18.546  0.00  0.00    +0.000 C 
ATOM     21  C   UNL     1       1.940  17.469  18.286  0.00  0.00    +0.000 C 
ATOM     22  C   UNL     1       0.579  17.187  18.813  0.00  0.00    +0.000 A 
ATOM     23  C   UNL     1      -0.497  18.075  18.785  0.00  0.00    +0.000 A 
ATOM     24  C   UNL     1      -1.711  17.680  19.323  0.00  0.00    +0.000 A 
ATOM     25  C   UNL     1      -1.829  16.399  19.886  0.00  0.00    +0.000 A 
ATOM     26  C   UNL     1      -0.720  15.533  19.951  0.00  0.00    +0.000 A 
ATOM     27  C   UNL     1       0.487  15.911  19.372  0.00  0.00    +0.000 A 
ATOM     28  N   UNL     1       1.739  15.240  19.254  0.00  0.00    +0.000 N 
ATOM     29  C   UNL     1       2.223  14.030  19.694  0.00  0.00    +0.000 C 
ATOM     30  O   UNL     1       3.362  13.663  19.398  0.00  0.00    +0.000 OA
ENDBRANCH  18  29
ENDBRANCH   1  18
TORSDOF 2
ENDMDL
MODEL 4
REMARK VINA RESULT:      -7.9      2.795      8.330
REMARK  Name = 
REMARK  3 active torsions:
REMARK  status: ('A' for Active; 'I' for Inactive)
REMARK    1  A    between atoms: C_1  and  C_2
REMARK    2  A    between atoms: C_11  and  C_13
REMARK    3  A    between atoms: C_13  and  N_14
REMARK                            x       y       z     vdW  Elec       q    Type
REMARK                         _______ _______ _______ _____ _____    ______ ____
ROOT
ATOM      1  N   UNL     1       1.151   9.979  18.314  0.00  0.00    +0.000 N 
ATOM      2  C   UNL     1      -0.104  10.124  17.861  0.00  0.00    +0.000 C 
ATOM      3  O   UNL     1      -0.871   9.293  17.417  0.00  0.00    +0.000 OA
ATOM      4  N   UNL     1      -0.460  11.519  18.145  0.00  0.00    +0.000 N 
ATOM      5  C   UNL     1       0.145  11.781  19.450  0.00  0.00    +0.000 C 
ATOM      6  C   UNL     1      -0.917  11.151  20.394  0.00  0.00    +0.000 C 
ATOM      7  C   UNL     1      -0.627  11.253  21.872  0.00  0.00    +0.000 C 
ATOM      8  C   UNL     1      -0.479  12.711  22.193  0.00  0.00    +0.000 A 
ATOM      9  C   UNL     1      -1.237  13.359  23.159  0.00  0.00    +0.000 A 
ATOM     10  C   UNL     1      -1.000  14.707  23.419  0.00  0.00    +0.000 A 
ATOM     11  C   UNL     1       0.044  15.384  22.793  0.00  0.00    +0.000 A 
ATOM     12  C   UNL     1       0.773  14.750  21.804  0.00  0.00    +0.000 A 
ATOM     13  C   UNL     1       0.416  13.460  21.424  0.00  0.00    +0.000 A 
ATOM     14  C   UNL     1       1.011  12.845  20.203  0.00  0.00    +0.000 C 
ATOM     15  C   UNL     1       1.404  11.192  18.774  0.00  0.00    +0.000 C 
ATOM     16  O   UNL     1       2.398  11.824  18.405  0.00  0.00    +0.000 OA
ATOM     17  H   UNL     1      -1.453  11.679  17.974  0.00  0.00    +0.000 HD
ENDROOT
BRANCH   1  18
ATOM     18  C   UNL     1       2.245   9.045  18.183  0.00  0.00    +0.000 C 
BRANCH  18  29
ATOM     19  C   UNL     1       1.753   5.015  20.276  0.00  0.00    +0.000 C 
ATOM     20  C   UNL     1       3.068   5.734  19.965  0.00  0.00    +0.000 C 
ATOM     21  C   UNL     1       4.144   4.719  19.552  0.00  0.00    +0.000 C 
ATOM     22  C   UNL     1       4.563   5.209  18.213  0.00  0.00    +0.000 A 
ATOM     23  C   UNL     1       5.517   4.602  17.394  0.00  0.00    +0.000 A 
ATOM     24  C   UNL     1       5.818   5.176  16.170  0.00  0.00    +0.000 A 
ATOM     25  C   UNL     1       5.159   6.355  15.784  0.00  0.00    +0.000 A 
ATOM     26  C   UNL     1       4.235   6.982  16.642  0.00  0.00    +0.000 A 
ATOM     27  C   UNL     1       3.901   6.383  17.852  0.00  0.00    +0.000 A 
ATOM     28  N   UNL     1       2.990   6.761  18.882  0.00  0.00    +0.000 N 
ATOM     29  C   UNL     1       2.166   7.843  19.084  0.00  0.00    +0.000 C 
ATOM     30  O   UNL     1       1.423   7.894  20.067  0.00  0.00    +0.000 OA
ENDBRANCH  18  29
ENDBRANCH   1  18
TORSDOF 2
ENDMDL
MODEL 5
REMARK VINA RESULT:      -7.8      2.708      5.213
REMARK  Name = 
REMARK  3 active torsions:
REMARK  status: ('A' for Active; 'I' for Inactive)
REMARK    1  A    between atoms: C_1  and  C_2
REMARK    2  A    between atoms: C_11  and  C_13
REMARK    3  A    between atoms: C_13  and  N_14
REMARK                            x       y       z     vdW  Elec       q    Type
REMARK                         _______ _______ _______ _____ _____    ______ ____
ROOT
ATOM      1  N   UNL     1       1.475   8.423  18.994  0.00  0.00    +0.000 N 
ATOM      2  C   UNL     1       1.603   8.183  20.308  0.00  0.00    +0.000 C 
ATOM      3  O   UNL     1       0.917   8.557  21.238  0.00  0.00    +0.000 OA
ATOM      4  N   UNL     1       2.700   7.214  20.420  0.00  0.00    +0.000 N 
ATOM      5  C   UNL     1       2.504   6.324  19.277  0.00  0.00    +0.000 C 
ATOM      6  C   UNL     1       1.402   5.378  19.831  0.00  0.00    +0.000 C 
ATOM      7  C   UNL     1       0.946   4.282  18.900  0.00  0.00    +0.000 C 
ATOM      8  C   UNL     1       2.159   3.474  18.541  0.00  0.00    +0.000 A 
ATOM      9  C   UNL     1       2.249   2.103  18.744  0.00  0.00    +0.000 A 
ATOM     10  C   UNL     1       3.399   1.429  18.341  0.00  0.00    +0.000 A 
ATOM     11  C   UNL     1       4.415   2.093  17.656  0.00  0.00    +0.000 A 
ATOM     12  C   UNL     1       4.343   3.464  17.490  0.00  0.00    +0.000 A 
ATOM     13  C   UNL     1       3.275   4.157  18.051  0.00  0.00    +0.000 A 
ATOM     14  C   UNL     1       3.293   5.647  18.107  0.00  0.00    +0.000 C 
ATOM     15  C   UNL     1       2.425   7.654  18.494  0.00  0.00    +0.000 C 
ATOM     16  O   UNL     1       3.291   8.110  17.741  0.00  0.00    +0.000 OA
ATOM     17  H   UNL     1       2.768   6.855  21.372  0.00  0.00    +0.000 HD
ENDROOT
BRANCH   1  18
ATOM     18  C   UNL     1       0.842   9.393  18.131  0.00  0.00    +0.000 C 
BRANCH  18  29
ATOM     19  C   UNL     1       0.238  13.802  19.162  0.00  0.00    +0.000 C 
ATOM     20  C   UNL     1      -0.554  12.613  19.712  0.00  0.00    +0.000 C 
ATOM     21  C   UNL     1      -2.036  12.986  19.862  0.00  0.00    +0.000 C 
ATOM     22  C   UNL     1      -2.722  11.954  19.042  0.00  0.00    +0.000 A 
ATOM     23  C   UNL     1      -4.100  11.874  18.833  0.00  0.00    +0.000 A 
ATOM     24  C   UNL     1      -4.604  10.849  18.050  0.00  0.00    +0.000 A 
ATOM     25  C   UNL     1      -3.719   9.914  17.489  0.00  0.00    +0.000 A 
ATOM     26  C   UNL     1      -2.336   9.979  17.750  0.00  0.00    +0.000 A 
ATOM     27  C   UNL     1      -1.824  11.033  18.499  0.00  0.00    +0.000 A 
ATOM     28  N   UNL     1      -0.494  11.371  18.882  0.00  0.00    +0.000 N 
ATOM     29  C   UNL     1       0.735  10.779  18.704  0.00  0.00    +0.000 C 
ATOM     30  O   UNL     1       1.762  11.328  19.108  0.00  0.00    +0.000 OA
ENDBRANCH  18  29
ENDBRANCH   1  18
TORSDOF 2
ENDMDL
MODEL 6
REMARK VINA RESULT:      -7.7      1.407      3.103
REMARK  Name = 
REMARK  3 active torsions:
REMARK  status: ('A' for Active; 'I' for Inactive)
REMARK    1  A    between atoms: C_1  and  C_2
REMARK    2  A    between atoms: C_11  and  C_13
REMARK    3  A    between atoms: C_13  and  N_14
REMARK                            x       y       z     vdW  Elec       q    Type
REMARK                         _______ _______ _______ _____ _____    ______ ____
ROOT
ATOM      1  N   UNL     1       0.958  11.888  19.895  0.00  0.00    +0.000 N 
ATOM      2  C   UNL     1      -0.071  11.670  19.061  0.00  0.00    +0.000 C 
ATOM      3  O   UNL     1      -0.516  12.372  18.175  0.00  0.00    +0.000 OA
ATOM      4  N   UNL     1      -0.499  10.292  19.325  0.00  0.00    +0.000 N 
ATOM      5  C   UNL     1       0.751   9.568  19.547  0.00  0.00    +0.000 C 
ATOM      6  C   UNL     1       1.203   9.314  18.082  0.00  0.00    +0.000 C 
ATOM      7  C   UNL     1       2.493   8.548  17.913  0.00  0.00    +0.000 C 
ATOM      8  C   UNL     1       2.320   7.233  18.615  0.00  0.00    +0.000 A 
ATOM      9  C   UNL     1       2.498   6.006  17.989  0.00  0.00    +0.000 A 
ATOM     10  C   UNL     1       2.357   4.836  18.732  0.00  0.00    +0.000 A 
ATOM     11  C   UNL     1       2.135   4.883  20.106  0.00  0.00    +0.000 A 
ATOM     12  C   UNL     1       1.919   6.102  20.721  0.00  0.00    +0.000 A 
ATOM     13  C   UNL     1       1.885   7.255  19.943  0.00  0.00    +0.000 A 
ATOM     14  C   UNL     1       1.412   8.542  20.527  0.00  0.00    +0.000 C 
ATOM     15  C   UNL     1       1.031  10.730  20.527  0.00  0.00    +0.000 C 
ATOM     16  O   UNL     1       1.005  10.667  21.759  0.00  0.00    +0.000 OA
ATOM     17  H   UNL     1      -1.178   9.985  18.628  0.00  0.00    +0.000 HD
ENDROOT
BRANCH   1  18
ATOM     18  C   UNL     1       1.711  13.008  20.410  0.00  0.00    +0.000 C 
BRANCH  18  29
ATOM     19  C   UNL     1      -0.300  16.762  18.761  0.00  0.00    +0.000 C 
ATOM     20  C   UNL     1       0.212  16.546  20.187  0.00  0.00    +0.000 C 
ATOM     21  C   UNL     1      -0.742  17.196  21.198  0.00  0.00    +0.000 C 
ATOM     22  C   UNL     1      -1.111  16.061  22.083  0.00  0.00    +0.000 A 
ATOM     23  C   UNL     1      -1.994  16.133  23.163  0.00  0.00    +0.000 A 
ATOM     24  C   UNL     1      -2.238  14.992  23.910  0.00  0.00    +0.000 A 
ATOM     25  C   UNL     1      -1.590  13.794  23.566  0.00  0.00    +0.000 A 
ATOM     26  C   UNL     1      -0.665  13.750  22.505  0.00  0.00    +0.000 A 
ATOM     27  C   UNL     1      -0.452  14.883  21.728  0.00  0.00    +0.000 A 
ATOM     28  N   UNL     1       0.377  15.117  20.592  0.00  0.00    +0.000 N 
ATOM     29  C   UNL     1       1.283  14.353  19.893  0.00  0.00    +0.000 C 
ATOM     30  O   UNL     1       1.840  14.801  18.888  0.00  0.00    +0.000 OA
ENDBRANCH  18  29
ENDBRANCH   1  18
TORSDOF 2
ENDMDL
MODEL 7
REMARK VINA RESULT:      -7.7      1.520      2.065
REMARK  Name = 
REMARK  3 active torsions:
REMARK  status: ('A' for Active; 'I' for Inactive)
REMARK    1  A    between atoms: C_1  and  C_2
REMARK    2  A    between atoms: C_11  and  C_13
REMARK    3  A    between atoms: C_13  and  N_14
REMARK                            x       y       z     vdW  Elec       q    Type
REMARK                         _______ _______ _______ _____ _____    ______ ____
ROOT
ATOM      1  N   UNL     1       0.198  12.020  20.520  0.00  0.00    +0.000 N 
ATOM      2  C   UNL     1      -0.805  11.761  19.666  0.00  0.00    +0.000 C 
ATOM      3  O   UNL     1      -1.382  12.503  18.896  0.00  0.00    +0.000 OA
ATOM      4  N   UNL     1      -0.999  10.308  19.725  0.00  0.00    +0.000 N 
ATOM      5  C   UNL     1       0.357   9.773  19.832  0.00  0.00    +0.000 C 
ATOM      6  C   UNL     1       0.803   9.812  18.343  0.00  0.00    +0.000 C 
ATOM      7  C   UNL     1       2.193   9.300  18.058  0.00  0.00    +0.000 C 
ATOM      8  C   UNL     1       2.253   7.886  18.558  0.00  0.00    +0.000 A 
ATOM      9  C   UNL     1       2.608   6.809  17.756  0.00  0.00    +0.000 A 
ATOM     10  C   UNL     1       2.678   5.536  18.317  0.00  0.00    +0.000 A 
ATOM     11  C   UNL     1       2.489   5.345  19.684  0.00  0.00    +0.000 A 
ATOM     12  C   UNL     1       2.098   6.411  20.474  0.00  0.00    +0.000 A 
ATOM     13  C   UNL     1       1.858   7.644  19.876  0.00  0.00    +0.000 A 
ATOM     14  C   UNL     1       1.201   8.737  20.646  0.00  0.00    +0.000 C 
ATOM     15  C   UNL     1       0.474  10.810  20.972  0.00  0.00    +0.000 C 
ATOM     16  O   UNL     1       0.492  10.565  22.181  0.00  0.00    +0.000 OA
ATOM     17  H   UNL     1      -1.639  10.000  18.992  0.00  0.00    +0.000 HD
ENDROOT
BRANCH   1  18
ATOM     18  C   UNL     1       0.776  13.160  21.192  0.00  0.00    +0.000 C 
BRANCH  18  29
ATOM     19  C   UNL     1      -1.567  16.027  23.866  0.00  0.00    +0.000 C 
ATOM     20  C   UNL     1      -1.977  15.521  22.482  0.00  0.00    +0.000 C 
ATOM     21  C   UNL     1      -2.661  16.643  21.687  0.00  0.00    +0.000 C 
ATOM     22  C   UNL     1      -1.832  16.731  20.457  0.00  0.00    +0.000 A 
ATOM     23  C   UNL     1      -2.032  17.634  19.412  0.00  0.00    +0.000 A 
ATOM     24  C   UNL     1      -1.184  17.596  18.317  0.00  0.00    +0.000 A 
ATOM     25  C   UNL     1      -0.148  16.649  18.283  0.00  0.00    +0.000 A 
ATOM     26  C   UNL     1       0.010  15.712  19.322  0.00  0.00    +0.000 A 
ATOM     27  C   UNL     1      -0.813  15.777  20.442  0.00  0.00    +0.000 A 
ATOM     28  N   UNL     1      -0.858  15.002  21.637  0.00  0.00    +0.000 N 
ATOM     29  C   UNL     1      -0.163  13.908  22.097  0.00  0.00    +0.000 C 
ATOM     30  O   UNL     1      -0.376  13.456  23.224  0.00  0.00    +0.000 OA
ENDBRANCH  18  29
ENDBRANCH   1  18
TORSDOF 2
ENDMDL
MODEL 8
REMARK VINA RESULT:      -7.7      1.572      2.739
REMARK  Name = 
REMARK  3 active torsions:
REMARK  status: ('A' for Active; 'I' for Inactive)
REMARK    1  A    between atoms: C_1  and  C_2
REMARK    2  A    between atoms: C_11  and  C_13
REMARK    3  A    between atoms: C_13  and  N_14
REMARK                            x       y       z     vdW  Elec       q    Type
REMARK                         _______ _______ _______ _____ _____    ______ ____
ROOT
ATOM      1  N   UNL     1       0.926  11.838  19.977  0.00  0.00    +0.000 N 
ATOM      2  C   UNL     1      -0.110  11.627  19.150  0.00  0.00    +0.000 C 
ATOM      3  O   UNL     1      -0.570  12.341  18.282  0.00  0.00    +0.000 OA
ATOM      4  N   UNL     1      -0.526  10.241  19.395  0.00  0.00    +0.000 N 
ATOM      5  C   UNL     1       0.732   9.523  19.589  0.00  0.00    +0.000 C 
ATOM      6  C   UNL     1       1.169   9.298  18.115  0.00  0.00    +0.000 C 
ATOM      7  C   UNL     1       2.462   8.545  17.919  0.00  0.00    +0.000 C 
ATOM      8  C   UNL     1       2.306   7.216  18.599  0.00  0.00    +0.000 A 
ATOM      9  C   UNL     1       2.486   6.002  17.950  0.00  0.00    +0.000 A 
ATOM     10  C   UNL     1       2.361   4.818  18.673  0.00  0.00    +0.000 A 
ATOM     11  C   UNL     1       2.154   4.839  20.050  0.00  0.00    +0.000 A 
ATOM     12  C   UNL     1       1.937   6.046  20.689  0.00  0.00    +0.000 A 
ATOM     13  C   UNL     1       1.886   7.212  19.932  0.00  0.00    +0.000 A 
ATOM     14  C   UNL     1       1.410   8.485  20.544  0.00  0.00    +0.000 C 
ATOM     15  C   UNL     1       1.015  10.669  20.587  0.00  0.00    +0.000 C 
ATOM     16  O   UNL     1       1.002  10.585  21.818  0.00  0.00    +0.000 OA
ATOM     17  H   UNL     1      -1.210   9.942  18.700  0.00  0.00    +0.000 HD
ENDROOT
BRANCH   1  18
ATOM     18  C   UNL     1       1.677  12.953  20.503  0.00  0.00    +0.000 C 
BRANCH  18  29
ATOM     19  C   UNL     1       3.604  15.689  17.393  0.00  0.00    +0.000 C 
ATOM     20  C   UNL     1       4.029  15.514  18.852  0.00  0.00    +0.000 C 
ATOM     21  C   UNL     1       4.466  16.863  19.443  0.00  0.00    +0.000 C 
ATOM     22  C   UNL     1       3.577  17.011  20.624  0.00  0.00    +0.000 A 
ATOM     23  C   UNL     1       3.564  18.104  21.492  0.00  0.00    +0.000 A 
ATOM     24  C   UNL     1       2.685  18.104  22.563  0.00  0.00    +0.000 A 
ATOM     25  C   UNL     1       1.831  17.004  22.750  0.00  0.00    +0.000 A 
ATOM     26  C   UNL     1       1.891  15.887  21.894  0.00  0.00    +0.000 A 
ATOM     27  C   UNL     1       2.742  15.906  20.794  0.00  0.00    +0.000 A 
ATOM     28  N   UNL     1       2.980  14.956  19.758  0.00  0.00    +0.000 N 
ATOM     29  C   UNL     1       2.512  13.690  19.492  0.00  0.00    +0.000 C 
ATOM     30  O   UNL     1       2.855  13.095  18.468  0.00  0.00    +0.000 OA
ENDBRANCH  18  29
ENDBRANCH   1  18
TORSDOF 2
ENDMDL
MODEL 9
REMARK VINA RESULT:      -7.7      2.600      7.822
REMARK  Name = 
REMARK  3 active torsions:
REMARK  status: ('A' for Active; 'I' for Inactive)
REMARK    1  A    between atoms: C_1  and  C_2
REMARK    2  A    between atoms: C_11  and  C_13
REMARK    3  A    between atoms: C_13  and  N_14
REMARK                            x       y       z     vdW  Elec       q    Type
REMARK                         _______ _______ _______ _____ _____    ______ ____
ROOT
ATOM      1  N   UNL     1      -1.508  14.211  22.236  0.00  0.00    +0.000 N 
ATOM      2  C   UNL     1      -0.896  15.085  23.051  0.00  0.00    +0.000 C 
ATOM      3  O   UNL     1      -0.323  14.895  24.105  0.00  0.00    +0.000 OA
ATOM      4  N   UNL     1      -0.916  16.364  22.332  0.00  0.00    +0.000 N 
ATOM      5  C   UNL     1      -0.676  15.991  20.938  0.00  0.00    +0.000 C 
ATOM      6  C   UNL     1       0.870  15.836  20.941  0.00  0.00    +0.000 C 
ATOM      7  C   UNL     1       1.496  15.461  19.620  0.00  0.00    +0.000 C 
ATOM      8  C   UNL     1       1.105  16.519  18.630  0.00  0.00    +0.000 A 
ATOM      9  C   UNL     1       2.026  17.253  17.894  0.00  0.00    +0.000 A 
ATOM     10  C   UNL     1       1.569  18.186  16.967  0.00  0.00    +0.000 A 
ATOM     11  C   UNL     1       0.208  18.324  16.702  0.00  0.00    +0.000 A 
ATOM     12  C   UNL     1      -0.710  17.622  17.462  0.00  0.00    +0.000 A 
ATOM     13  C   UNL     1      -0.253  16.825  18.506  0.00  0.00    +0.000 A 
ATOM     14  C   UNL     1      -1.215  16.257  19.493  0.00  0.00    +0.000 C 
ATOM     15  C   UNL     1      -1.816  14.982  21.209  0.00  0.00    +0.000 C 
ATOM     16  O   UNL     1      -2.973  15.058  20.786  0.00  0.00    +0.000 OA
ATOM     17  H   UNL     1      -0.334  17.053  22.808  0.00  0.00    +0.000 HD
ENDROOT
BRANCH   1  18
ATOM     18  C   UNL     1      -2.092  12.892  22.312  0.00  0.00    +0.000 C 
BRANCH  18  29
ATOM     19  C   UNL     1       0.262   8.998  21.912  0.00  0.00    +0.000 C 
ATOM     20  C   UNL     1       0.301  10.197  20.962  0.00  0.00    +0.000 C 
ATOM     21  C   UNL     1       0.406   9.718  19.506  0.00  0.00    +0.000 C 
ATOM     22  C   UNL     1      -0.776  10.348  18.864  0.00  0.00    +0.000 A 
ATOM     23  C   UNL     1      -1.146  10.194  17.527  0.00  0.00    +0.000 A 
ATOM     24  C   UNL     1      -2.272  10.852  17.060  0.00  0.00    +0.000 A 
ATOM     25  C   UNL     1      -3.012  11.659  17.940  0.00  0.00    +0.000 A 
ATOM     26  C   UNL     1      -2.597  11.843  19.273  0.00  0.00    +0.000 A 
ATOM     27  C   UNL     1      -1.492  11.149  19.755  0.00  0.00    +0.000 A 
ATOM     28  N   UNL     1      -0.879  11.110  21.041  0.00  0.00    +0.000 N 
ATOM     29  C   UNL     1      -1.110  11.756  22.233  0.00  0.00    +0.000 C 
ATOM     30  O   UNL     1      -0.440  11.489  23.234  0.00  0.00    +0.000 OA
ENDBRANCH  18  29
ENDBRANCH   1  18
TORSDOF 2
ENDMDL
