MODEL 1
REMARK VINA RESULT:      -8.0      0.000      0.000
REMARK  Name = 
REMARK  7 active torsions:
REMARK  status: ('A' for Active; 'I' for Inactive)
REMARK    1  A    between atoms: C_1  and  O_2
REMARK    2  A    between atoms: O_2  and  C_3
REMARK    3  A    between atoms: C_7  and  C_8
REMARK    4  A    between atoms: C_8  and  N_9
REMARK    5  A    between atoms: C_8  and  C_23
REMARK    6  A    between atoms: C_10  and  C_12
REMARK    7  A    between atoms: N_27  and  C_28
REMARK                            x       y       z     vdW  Elec       q    Type
REMARK                         _______ _______ _______ _____ _____    ______ ____
ROOT
ATOM      1  N   UNL     1       2.075   6.297  18.860  0.00  0.00    +0.000 N 
ATOM      2  C   UNL     1       1.890   7.278  19.804  0.00  0.00    +0.000 C 
ATOM      3  O   UNL     1       2.180   7.205  20.982  0.00  0.00    +0.000 OA
ATOM      4  H   UNL     1       1.819   6.552  17.909  0.00  0.00    +0.000 HD
ENDROOT
BRANCH   2   5
ATOM      5  C   UNL     1       1.458   8.597  19.141  0.00  0.00    +0.000 A 
ATOM      6  N   UNL     1       1.938   8.801  17.944  0.00  0.00    +0.000 NA
ATOM      7  N   UNL     1       2.017  10.099  17.524  0.00  0.00    +0.000 N 
ATOM      8  C   UNL     1       2.046  11.154  18.418  0.00  0.00    +0.000 A 
ATOM      9  O   UNL     1       2.599  12.220  18.176  0.00  0.00    +0.000 OA
ATOM     10  C   UNL     1       1.269  10.941  19.653  0.00  0.00    +0.000 A 
ATOM     11  C   UNL     1       0.897  12.016  20.460  0.00  0.00    +0.000 A 
ATOM     12  C   UNL     1      -0.046  11.812  21.468  0.00  0.00    +0.000 A 
ATOM     13  C   UNL     1      -0.615  10.547  21.651  0.00  0.00    +0.000 A 
ATOM     14  C   UNL     1      -0.170   9.455  20.897  0.00  0.00    +0.000 A 
ATOM     15  C   UNL     1       0.813   9.656  19.929  0.00  0.00    +0.000 A 
ATOM     16  H   UNL     1       2.529  10.237  16.658  0.00  0.00    +0.000 HD
ENDBRANCH   2   5
BRANCH   1  17
ATOM     17  C   UNL     1       3.093   5.277  18.961  0.00  0.00    +0.000 C 
BRANCH  17  22
ATOM     18  C   UNL     1       5.958   6.592  16.721  0.00  0.00    +0.000 A 
ATOM     19  C   UNL     1       6.071   5.554  15.800  0.00  0.00    +0.000 A 
ATOM     20  C   UNL     1       5.202   4.465  15.870  0.00  0.00    +0.000 A 
ATOM     21  C   UNL     1       4.231   4.390  16.868  0.00  0.00    +0.000 A 
ATOM     22  C   UNL     1       4.107   5.413  17.821  0.00  0.00    +0.000 A 
ATOM     23  C   UNL     1       4.970   6.523  17.715  0.00  0.00    +0.000 A 
BRANCH  18  25
ATOM     24  C   UNL     1       7.824   7.723  17.679  0.00  0.00    +0.000 C 
ATOM     25  O   UNL     1       6.740   7.715  16.753  0.00  0.00    +0.000 OA
ENDBRANCH  18  25
ENDBRANCH  17  22
BRANCH  17  26
ATOM     26  C   UNL     1       2.379   3.949  18.956  0.00  0.00    +0.000 A 
ATOM     27  N   UNL     1       1.175   3.714  18.453  0.00  0.00    +0.000 NA
ATOM     28  C   UNL     1       0.896   2.403  18.734  0.00  0.00    +0.000 A 
ATOM     29  C   UNL     1       1.943   1.819  19.404  0.00  0.00    +0.000 A 
ATOM     30  N   UNL     1       2.880   2.804  19.533  0.00  0.00    +0.000 N 
ATOM     31  C   UNL     1       4.162   2.652  20.177  0.00  0.00    +0.000 C 
ENDBRANCH  17  26
ENDBRANCH   1  17
TORSDOF 5
ENDMDL
MODEL 2
REMARK VINA RESULT:      -7.9      2.248      6.487
REMARK  Name = 
REMARK  7 active torsions:
REMARK  status: ('A' for Active; 'I' for Inactive)
REMARK    1  A    between atoms: C_1  and  O_2
REMARK    2  A    between atoms: O_2  and  C_3
REMARK    3  A    between atoms: C_7  and  C_8
REMARK    4  A    between atoms: C_8  and  N_9
REMARK    5  A    between atoms: C_8  and  C_23
REMARK    6  A    between atoms: C_10  and  C_12
REMARK    7  A    between atoms: N_27  and  C_28
REMARK                            x       y       z     vdW  Elec       q    Type
REMARK                         _______ _______ _______ _____ _____    ______ ____
ROOT
ATOM      1  N   UNL     1       4.052   5.404  19.469  0.00  0.00    +0.000 N 
ATOM      2  C   UNL     1       4.837   4.325  19.140  0.00  0.00    +0.000 C 
ATOM      3  O   UNL     1       4.504   3.157  19.178  0.00  0.00    +0.000 OA
ATOM      4  H   UNL     1       4.481   6.315  19.328  0.00  0.00    +0.000 HD
ENDROOT
BRANCH   2   5
ATOM      5  C   UNL     1       6.153   4.787  18.494  0.00  0.00    +0.000 A 
ATOM      6  N   UNL     1       6.942   5.479  19.271  0.00  0.00    +0.000 NA
ATOM      7  N   UNL     1       7.835   6.314  18.659  0.00  0.00    +0.000 N 
ATOM      8  C   UNL     1       7.638   6.773  17.370  0.00  0.00    +0.000 A 
ATOM      9  O   UNL     1       8.073   7.845  16.968  0.00  0.00    +0.000 OA
ATOM     10  C   UNL     1       6.949   5.826  16.474  0.00  0.00    +0.000 A 
ATOM     11  C   UNL     1       7.008   5.977  15.088  0.00  0.00    +0.000 A 
ATOM     12  C   UNL     1       6.572   4.933  14.272  0.00  0.00    +0.000 A 
ATOM     13  C   UNL     1       6.096   3.748  14.844  0.00  0.00    +0.000 A 
ATOM     14  C   UNL     1       5.955   3.639  16.233  0.00  0.00    +0.000 A 
ATOM     15  C   UNL     1       6.343   4.709  17.039  0.00  0.00    +0.000 A 
ATOM     16  H   UNL     1       8.326   6.944  19.285  0.00  0.00    +0.000 HD
ENDBRANCH   2   5
BRANCH   1  17
ATOM     17  C   UNL     1       2.609   5.393  19.387  0.00  0.00    +0.000 C 
BRANCH  17  22
ATOM     18  C   UNL     1       1.501   9.085  19.078  0.00  0.00    +0.000 A 
ATOM     19  C   UNL     1       0.840   9.265  20.290  0.00  0.00    +0.000 A 
ATOM     20  C   UNL     1       0.794   8.223  21.217  0.00  0.00    +0.000 A 
ATOM     21  C   UNL     1       1.383   6.991  20.938  0.00  0.00    +0.000 A 
ATOM     22  C   UNL     1       2.040   6.776  19.716  0.00  0.00    +0.000 A 
ATOM     23  C   UNL     1       2.108   7.850  18.804  0.00  0.00    +0.000 A 
BRANCH  18  25
ATOM     24  C   UNL     1       1.802  11.379  18.509  0.00  0.00    +0.000 C 
ATOM     25  O   UNL     1       1.626  10.027  18.093  0.00  0.00    +0.000 OA
ENDBRANCH  18  25
ENDBRANCH  17  22
BRANCH  17  26
ATOM     26  C   UNL     1       2.129   4.321  20.333  0.00  0.00    +0.000 A 
ATOM     27  N   UNL     1       2.420   4.233  21.623  0.00  0.00    +0.000 NA
ATOM     28  C   UNL     1       1.839   3.074  22.065  0.00  0.00    +0.000 A 
ATOM     29  C   UNL     1       1.172   2.448  21.041  0.00  0.00    +0.000 A 
ATOM     30  N   UNL     1       1.354   3.249  19.950  0.00  0.00    +0.000 N 
ATOM     31  C   UNL     1       0.827   2.991  18.632  0.00  0.00    +0.000 C 
ENDBRANCH  17  26
ENDBRANCH   1  17
TORSDOF 5
ENDMDL
MODEL 3
REMARK VINA RESULT:      -7.9      2.293      6.678
REMARK  Name = 
REMARK  7 active torsions:
REMARK  status: ('A' for Active; 'I' for Inactive)
REMARK    1  A    between atoms: C_1  and  O_2
REMARK    2  A    between atoms: O_2  and  C_3
REMARK    3  A    between atoms: C_7  and  C_8
REMARK    4  A    between atoms: C_8  and  N_9
REMARK    5  A    between atoms: C_8  and  C_23
REMARK    6  A    between atoms: C_10  and  C_12
REMARK    7  A    between atoms: N_27  and  C_28
REMARK                            x       y       z     vdW  Elec       q    Type
REMARK                         _______ _______ _______ _____ _____    ______ ____
ROOT
ATOM      1  N   UNL     1       4.044   5.447  19.402  0.00  0.00    +0.000 N 
ATOM      2  C   UNL     1       4.844   4.365  19.123  0.00  0.00    +0.000 C 
ATOM      3  O   UNL     1       4.522   3.195  19.200  0.00  0.00    +0.000 OA
ATOM      4  H   UNL     1       4.466   6.356  19.233  0.00  0.00    +0.000 HD
ENDROOT
BRANCH   2   5
ATOM      5  C   UNL     1       6.165   4.817  18.479  0.00  0.00    +0.000 A 
ATOM      6  N   UNL     1       6.953   5.511  19.253  0.00  0.00    +0.000 NA
ATOM      7  N   UNL     1       7.851   6.338  18.639  0.00  0.00    +0.000 N 
ATOM      8  C   UNL     1       7.662   6.787  17.345  0.00  0.00    +0.000 A 
ATOM      9  O   UNL     1       8.102   7.854  16.936  0.00  0.00    +0.000 OA
ATOM     10  C   UNL     1       6.973   5.835  16.453  0.00  0.00    +0.000 A 
ATOM     11  C   UNL     1       7.038   5.975  15.067  0.00  0.00    +0.000 A 
ATOM     12  C   UNL     1       6.602   4.925  14.258  0.00  0.00    +0.000 A 
ATOM     13  C   UNL     1       6.118   3.748  14.838  0.00  0.00    +0.000 A 
ATOM     14  C   UNL     1       5.971   3.650  16.226  0.00  0.00    +0.000 A 
ATOM     15  C   UNL     1       6.360   4.725  17.025  0.00  0.00    +0.000 A 
ATOM     16  H   UNL     1       8.343   6.972  19.261  0.00  0.00    +0.000 HD
ENDBRANCH   2   5
BRANCH   1  17
ATOM     17  C   UNL     1       2.603   5.418  19.300  0.00  0.00    +0.000 C 
BRANCH  17  22
ATOM     18  C   UNL     1       1.114   8.493  21.112  0.00  0.00    +0.000 A 
ATOM     19  C   UNL     1       1.085   9.422  20.076  0.00  0.00    +0.000 A 
ATOM     20  C   UNL     1       1.496   9.048  18.796  0.00  0.00    +0.000 A 
ATOM     21  C   UNL     1       1.958   7.758  18.543  0.00  0.00    +0.000 A 
ATOM     22  C   UNL     1       2.015   6.806  19.573  0.00  0.00    +0.000 A 
ATOM     23  C   UNL     1       1.564   7.189  20.853  0.00  0.00    +0.000 A 
BRANCH  18  25
ATOM     24  C   UNL     1      -0.370   9.615  22.601  0.00  0.00    +0.000 C 
ATOM     25  O   UNL     1       0.731   8.731  22.405  0.00  0.00    +0.000 OA
ENDBRANCH  18  25
ENDBRANCH  17  22
BRANCH  17  26
ATOM     26  C   UNL     1       2.120   4.374  20.276  0.00  0.00    +0.000 A 
ATOM     27  N   UNL     1       2.404   4.327  21.570  0.00  0.00    +0.000 NA
ATOM     28  C   UNL     1       1.824   3.181  22.044  0.00  0.00    +0.000 A 
ATOM     29  C   UNL     1       1.163   2.522  21.037  0.00  0.00    +0.000 A 
ATOM     30  N   UNL     1       1.349   3.289  19.923  0.00  0.00    +0.000 N 
ATOM     31  C   UNL     1       0.830   2.990  18.611  0.00  0.00    +0.000 C 
ENDBRANCH  17  26
ENDBRANCH   1  17
TORSDOF 5
ENDMDL
MODEL 4
REMARK VINA RESULT:      -7.9      1.250      1.367
REMARK  Name = 
REMARK  7 active torsions:
REMARK  status: ('A' for Active; 'I' for Inactive)
REMARK    1  A    between atoms: C_1  and  O_2
REMARK    2  A    between atoms: O_2  and  C_3
REMARK    3  A    between atoms: C_7  and  C_8
REMARK    4  A    between atoms: C_8  and  N_9
REMARK    5  A    between atoms: C_8  and  C_23
REMARK    6  A    between atoms: C_10  and  C_12
REMARK    7  A    between atoms: N_27  and  C_28
REMARK                            x       y       z     vdW  Elec       q    Type
REMARK                         _______ _______ _______ _____ _____    ______ ____
ROOT
ATOM      1  N   UNL     1       2.025   6.742  19.112  0.00  0.00    +0.000 N 
ATOM      2  C   UNL     1       1.653   7.724  19.998  0.00  0.00    +0.000 C 
ATOM      3  O   UNL     1       1.723   7.662  21.210  0.00  0.00    +0.000 OA
ATOM      4  H   UNL     1       1.944   6.988  18.128  0.00  0.00    +0.000 HD
ENDROOT
BRANCH   2   5
ATOM      5  C   UNL     1       1.328   9.031  19.256  0.00  0.00    +0.000 A 
ATOM      6  N   UNL     1       1.878   9.155  18.079  0.00  0.00    +0.000 NA
ATOM      7  N   UNL     1       2.049  10.427  17.608  0.00  0.00    +0.000 N 
ATOM      8  C   UNL     1       2.090  11.519  18.456  0.00  0.00    +0.000 A 
ATOM      9  O   UNL     1       2.712  12.542  18.197  0.00  0.00    +0.000 OA
ATOM     10  C   UNL     1       1.242  11.404  19.656  0.00  0.00    +0.000 A 
ATOM     11  C   UNL     1       0.888  12.532  20.395  0.00  0.00    +0.000 A 
ATOM     12  C   UNL     1      -0.114  12.425  21.360  0.00  0.00    +0.000 A 
ATOM     13  C   UNL     1      -0.760  11.201  21.567  0.00  0.00    +0.000 A 
ATOM     14  C   UNL     1      -0.337  10.053  20.886  0.00  0.00    +0.000 A 
ATOM     15  C   UNL     1       0.703  10.159  19.963  0.00  0.00    +0.000 A 
ATOM     16  H   UNL     1       2.610  10.497  16.765  0.00  0.00    +0.000 HD
ENDBRANCH   2   5
BRANCH   1  17
ATOM     17  C   UNL     1       3.025   5.742  19.406  0.00  0.00    +0.000 C 
BRANCH  17  22
ATOM     18  C   UNL     1       6.603   5.492  17.962  0.00  0.00    +0.000 A 
ATOM     19  C   UNL     1       6.432   6.105  16.723  0.00  0.00    +0.000 A 
ATOM     20  C   UNL     1       5.189   6.636  16.377  0.00  0.00    +0.000 A 
ATOM     21  C   UNL     1       4.104   6.542  17.248  0.00  0.00    +0.000 A 
ATOM     22  C   UNL     1       4.244   5.913  18.495  0.00  0.00    +0.000 A 
ATOM     23  C   UNL     1       5.515   5.412  18.844  0.00  0.00    +0.000 A 
BRANCH  18  25
ATOM     24  C   UNL     1       8.223   5.369  19.704  0.00  0.00    +0.000 C 
ATOM     25  O   UNL     1       7.770   4.943  18.422  0.00  0.00    +0.000 OA
ENDBRANCH  18  25
ENDBRANCH  17  22
BRANCH  17  26
ATOM     26  C   UNL     1       2.356   4.399  19.245  0.00  0.00    +0.000 A 
ATOM     27  N   UNL     1       1.936   3.870  18.104  0.00  0.00    +0.000 NA
ATOM     28  C   UNL     1       1.329   2.688  18.436  0.00  0.00    +0.000 A 
ATOM     29  C   UNL     1       1.387   2.479  19.791  0.00  0.00    +0.000 A 
ATOM     30  N   UNL     1       2.046   3.563  20.295  0.00  0.00    +0.000 N 
ATOM     31  C   UNL     1       2.345   3.781  21.689  0.00  0.00    +0.000 C 
ENDBRANCH  17  26
ENDBRANCH   1  17
TORSDOF 5
ENDMDL
MODEL 5
REMARK VINA RESULT:      -7.8      2.243      4.613
REMARK  Name = 
REMARK  7 active torsions:
REMARK  status: ('A' for Active; 'I' for Inactive)
REMARK    1  A    between atoms: C_1  and  O_2
REMARK    2  A    between atoms: O_2  and  C_3
REMARK    3  A    between atoms: C_7  and  C_8
REMARK    4  A    between atoms: C_8  and  N_9
REMARK    5  A    between atoms: C_8  and  C_23
REMARK    6  A    between atoms: C_10  and  C_12
REMARK    7  A    between atoms: N_27  and  C_28
REMARK                            x       y       z     vdW  Elec       q    Type
REMARK                         _______ _______ _______ _____ _____    ______ ____
ROOT
ATOM      1  N   UNL     1       3.621   6.979  18.318  0.00  0.00    +0.000 N 
ATOM      2  C   UNL     1       2.670   7.943  18.086  0.00  0.00    +0.000 C 
ATOM      3  O   UNL     1       2.208   8.251  17.004  0.00  0.00    +0.000 OA
ATOM      4  H   UNL     1       3.852   6.820  19.296  0.00  0.00    +0.000 HD
ENDROOT
BRANCH   2   5
ATOM      5  C   UNL     1       2.080   8.455  19.410  0.00  0.00    +0.000 A 
ATOM      6  N   UNL     1       2.167   7.627  20.416  0.00  0.00    +0.000 NA
ATOM      7  N   UNL     1       1.263   7.788  21.428  0.00  0.00    +0.000 N 
ATOM      8  C   UNL     1       0.059   8.438  21.234  0.00  0.00    +0.000 A 
ATOM      9  O   UNL     1      -0.949   8.188  21.884  0.00  0.00    +0.000 OA
ATOM     10  C   UNL     1       0.099   9.536  20.250  0.00  0.00    +0.000 A 
ATOM     11  C   UNL     1      -0.902  10.506  20.215  0.00  0.00    +0.000 A 
ATOM     12  C   UNL     1      -0.703  11.660  19.457  0.00  0.00    +0.000 A 
ATOM     13  C   UNL     1       0.493  11.840  18.755  0.00  0.00    +0.000 A 
ATOM     14  C   UNL     1       1.454  10.822  18.721  0.00  0.00    +0.000 A 
ATOM     15  C   UNL     1       1.223   9.649  19.438  0.00  0.00    +0.000 A 
ATOM     16  H   UNL     1       1.259   7.043  22.118  0.00  0.00    +0.000 HD
ENDBRANCH   2   5
BRANCH   1  17
ATOM     17  C   UNL     1       3.828   5.840  17.453  0.00  0.00    +0.000 C 
BRANCH  17  22
ATOM     18  C   UNL     1       1.634   3.536  19.650  0.00  0.00    +0.000 A 
ATOM     19  C   UNL     1       1.509   2.422  18.822  0.00  0.00    +0.000 A 
ATOM     20  C   UNL     1       2.165   2.395  17.591  0.00  0.00    +0.000 A 
ATOM     21  C   UNL     1       2.929   3.480  17.165  0.00  0.00    +0.000 A 
ATOM     22  C   UNL     1       3.056   4.623  17.970  0.00  0.00    +0.000 A 
ATOM     23  C   UNL     1       2.416   4.621  19.227  0.00  0.00    +0.000 A 
BRANCH  18  25
ATOM     24  C   UNL     1       1.441   2.759  21.894  0.00  0.00    +0.000 C 
ATOM     25  O   UNL     1       1.051   3.681  20.880  0.00  0.00    +0.000 OA
ENDBRANCH  18  25
ENDBRANCH  17  22
BRANCH  17  26
ATOM     26  C   UNL     1       5.318   5.608  17.392  0.00  0.00    +0.000 A 
ATOM     27  N   UNL     1       6.168   5.738  18.400  0.00  0.00    +0.000 NA
ATOM     28  C   UNL     1       7.413   5.506  17.878  0.00  0.00    +0.000 A 
ATOM     29  C   UNL     1       7.329   5.215  16.539  0.00  0.00    +0.000 A 
ATOM     30  N   UNL     1       5.997   5.274  16.242  0.00  0.00    +0.000 N 
ATOM     31  C   UNL     1       5.425   5.037  14.939  0.00  0.00    +0.000 C 
ENDBRANCH  17  26
ENDBRANCH   1  17
TORSDOF 5
ENDMDL
MODEL 6
REMARK VINA RESULT:      -7.8      2.210      4.495
REMARK  Name = 
REMARK  7 active torsions:
REMARK  status: ('A' for Active; 'I' for Inactive)
REMARK    1  A    between atoms: C_1  and  O_2
REMARK    2  A    between atoms: O_2  and  C_3
REMARK    3  A    between atoms: C_7  and  C_8
REMARK    4  A    between atoms: C_8  and  N_9
REMARK    5  A    between atoms: C_8  and  C_23
REMARK    6  A    between atoms: C_10  and  C_12
REMARK    7  A    between atoms: N_27  and  C_28
REMARK                            x       y       z     vdW  Elec       q    Type
REMARK                         _______ _______ _______ _____ _____    ______ ____
ROOT
ATOM      1  N   UNL     1       3.399   6.941  18.271  0.00  0.00    +0.000 N 
ATOM      2  C   UNL     1       2.616   8.056  18.090  0.00  0.00    +0.000 C 
ATOM      3  O   UNL     1       2.257   8.517  17.024  0.00  0.00    +0.000 OA
ATOM      4  H   UNL     1       3.557   6.672  19.239  0.00  0.00    +0.000 HD
ENDROOT
BRANCH   2   5
ATOM      5  C   UNL     1       2.049   8.547  19.432  0.00  0.00    +0.000 A 
ATOM      6  N   UNL     1       2.153   7.703  20.423  0.00  0.00    +0.000 NA
ATOM      7  N   UNL     1       1.267   7.848  21.453  0.00  0.00    +0.000 N 
ATOM      8  C   UNL     1       0.060   8.503  21.290  0.00  0.00    +0.000 A 
ATOM      9  O   UNL     1      -0.937   8.244  21.953  0.00  0.00    +0.000 OA
ATOM     10  C   UNL     1       0.085   9.616  20.323  0.00  0.00    +0.000 A 
ATOM     11  C   UNL     1      -0.915  10.588  20.322  0.00  0.00    +0.000 A 
ATOM     12  C   UNL     1      -0.727  11.755  19.580  0.00  0.00    +0.000 A 
ATOM     13  C   UNL     1       0.457  11.944  18.860  0.00  0.00    +0.000 A 
ATOM     14  C   UNL     1       1.416  10.927  18.793  0.00  0.00    +0.000 A 
ATOM     15  C   UNL     1       1.195   9.741  19.494  0.00  0.00    +0.000 A 
ATOM     16  H   UNL     1       1.273   7.092  22.130  0.00  0.00    +0.000 HD
ENDBRANCH   2   5
BRANCH   1  17
ATOM     17  C   UNL     1       3.470   5.856  17.320  0.00  0.00    +0.000 C 
BRANCH  17  22
ATOM     18  C   UNL     1       1.607   3.403  19.657  0.00  0.00    +0.000 A 
ATOM     19  C   UNL     1       1.684   2.225  18.919  0.00  0.00    +0.000 A 
ATOM     20  C   UNL     1       2.370   2.210  17.704  0.00  0.00    +0.000 A 
ATOM     21  C   UNL     1       2.964   3.368  17.205  0.00  0.00    +0.000 A 
ATOM     22  C   UNL     1       2.887   4.574  17.919  0.00  0.00    +0.000 A 
ATOM     23  C   UNL     1       2.219   4.564  19.162  0.00  0.00    +0.000 A 
BRANCH  18  25
ATOM     24  C   UNL     1       1.377   2.671  21.913  0.00  0.00    +0.000 C 
ATOM     25  O   UNL     1       0.974   3.546  20.862  0.00  0.00    +0.000 OA
ENDBRANCH  18  25
ENDBRANCH  17  22
BRANCH  17  26
ATOM     26  C   UNL     1       4.921   5.715  16.932  0.00  0.00    +0.000 A 
ATOM     27  N   UNL     1       5.409   5.791  15.701  0.00  0.00    +0.000 NA
ATOM     28  C   UNL     1       6.749   5.530  15.808  0.00  0.00    +0.000 A 
ATOM     29  C   UNL     1       7.095   5.306  17.118  0.00  0.00    +0.000 A 
ATOM     30  N   UNL     1       5.932   5.433  17.823  0.00  0.00    +0.000 N 
ATOM     31  C   UNL     1       5.806   5.282  19.252  0.00  0.00    +0.000 C 
ENDBRANCH  17  26
ENDBRANCH   1  17
TORSDOF 5
ENDMDL
MODEL 7
REMARK VINA RESULT:      -7.7      2.239      4.451
REMARK  Name = 
REMARK  7 active torsions:
REMARK  status: ('A' for Active; 'I' for Inactive)
REMARK    1  A    between atoms: C_1  and  O_2
REMARK    2  A    between atoms: O_2  and  C_3
REMARK    3  A    between atoms: C_7  and  C_8
REMARK    4  A    between atoms: C_8  and  N_9
REMARK    5  A    between atoms: C_8  and  C_23
REMARK    6  A    between atoms: C_10  and  C_12
REMARK    7  A    between atoms: N_27  and  C_28
REMARK                            x       y       z     vdW  Elec       q    Type
REMARK                         _______ _______ _______ _____ _____    ______ ____
ROOT
ATOM      1  N   UNL     1       3.479   7.013  18.302  0.00  0.00    +0.000 N 
ATOM      2  C   UNL     1       2.354   7.787  18.152  0.00  0.00    +0.000 C 
ATOM      3  O   UNL     1       1.660   7.860  17.156  0.00  0.00    +0.000 OA
ATOM      4  H   UNL     1       3.905   7.038  19.226  0.00  0.00    +0.000 HD
ENDROOT
BRANCH   2   5
ATOM      5  C   UNL     1       1.935   8.406  19.495  0.00  0.00    +0.000 A 
ATOM      6  N   UNL     1       2.069   7.626  20.533  0.00  0.00    +0.000 NA
ATOM      7  N   UNL     1       1.283   7.902  21.618  0.00  0.00    +0.000 N 
ATOM      8  C   UNL     1       0.111   8.626  21.504  0.00  0.00    +0.000 A 
ATOM      9  O   UNL     1      -0.840   8.481  22.262  0.00  0.00    +0.000 OA
ATOM     10  C   UNL     1       0.125   9.666  20.459  0.00  0.00    +0.000 A 
ATOM     11  C   UNL     1      -0.809  10.702  20.467  0.00  0.00    +0.000 A 
ATOM     12  C   UNL     1      -0.611  11.800  19.628  0.00  0.00    +0.000 A 
ATOM     13  C   UNL     1       0.517  11.858  18.804  0.00  0.00    +0.000 A 
ATOM     14  C   UNL     1       1.401  10.775  18.735  0.00  0.00    +0.000 A 
ATOM     15  C   UNL     1       1.166   9.658  19.537  0.00  0.00    +0.000 A 
ATOM     16  H   UNL     1       1.300   7.195  22.346  0.00  0.00    +0.000 HD
ENDBRANCH   2   5
BRANCH   1  17
ATOM     17  C   UNL     1       3.714   5.796  17.559  0.00  0.00    +0.000 C 
BRANCH  17  22
ATOM     18  C   UNL     1       2.839   2.893  19.959  0.00  0.00    +0.000 A 
ATOM     19  C   UNL     1       1.570   2.546  19.502  0.00  0.00    +0.000 A 
ATOM     20  C   UNL     1       1.023   3.207  18.402  0.00  0.00    +0.000 A 
ATOM     21  C   UNL     1       1.721   4.231  17.764  0.00  0.00    +0.000 A 
ATOM     22  C   UNL     1       2.994   4.615  18.215  0.00  0.00    +0.000 A 
ATOM     23  C   UNL     1       3.548   3.914  19.306  0.00  0.00    +0.000 A 
BRANCH  18  25
ATOM     24  C   UNL     1       4.758   1.725  20.753  0.00  0.00    +0.000 C 
ATOM     25  O   UNL     1       3.489   2.317  21.017  0.00  0.00    +0.000 OA
ENDBRANCH  18  25
ENDBRANCH  17  22
BRANCH  17  26
ATOM     26  C   UNL     1       5.209   5.610  17.494  0.00  0.00    +0.000 A 
ATOM     27  N   UNL     1       6.096   6.133  18.329  0.00  0.00    +0.000 NA
ATOM     28  C   UNL     1       7.326   5.768  17.852  0.00  0.00    +0.000 A 
ATOM     29  C   UNL     1       7.198   5.001  16.720  0.00  0.00    +0.000 A 
ATOM     30  N   UNL     1       5.854   4.900  16.505  0.00  0.00    +0.000 N 
ATOM     31  C   UNL     1       5.237   4.179  15.419  0.00  0.00    +0.000 C 
ENDBRANCH  17  26
ENDBRANCH   1  17
TORSDOF 5
ENDMDL
MODEL 8
REMARK VINA RESULT:      -7.7      2.060      4.337
REMARK  Name = 
REMARK  7 active torsions:
REMARK  status: ('A' for Active; 'I' for Inactive)
REMARK    1  A    between atoms: C_1  and  O_2
REMARK    2  A    between atoms: O_2  and  C_3
REMARK    3  A    between atoms: C_7  and  C_8
REMARK    4  A    between atoms: C_8  and  N_9
REMARK    5  A    between atoms: C_8  and  C_23
REMARK    6  A    between atoms: C_10  and  C_12
REMARK    7  A    between atoms: N_27  and  C_28
REMARK                            x       y       z     vdW  Elec       q    Type
REMARK                         _______ _______ _______ _____ _____    ______ ____
ROOT
ATOM      1  N   UNL     1       2.807   6.784  18.434  0.00  0.00    +0.000 N 
ATOM      2  C   UNL     1       2.717   8.054  17.918  0.00  0.00    +0.000 C 
ATOM      3  O   UNL     1       3.457   8.547  17.089  0.00  0.00    +0.000 OA
ATOM      4  H   UNL     1       2.069   6.523  19.083  0.00  0.00    +0.000 HD
ENDROOT
BRANCH   2   5
ATOM      5  C   UNL     1       1.408   8.730  18.361  0.00  0.00    +0.000 A 
ATOM      6  N   UNL     1       0.702   9.260  17.400  0.00  0.00    +0.000 NA
ATOM      7  N   UNL     1      -0.156  10.265  17.747  0.00  0.00    +0.000 N 
ATOM      8  C   UNL     1       0.017  11.006  18.902  0.00  0.00    +0.000 A 
ATOM      9  O   UNL     1      -0.361  12.165  19.015  0.00  0.00    +0.000 OA
ATOM     10  C   UNL     1       0.600  10.261  20.033  0.00  0.00    +0.000 A 
ATOM     11  C   UNL     1       0.493  10.741  21.338  0.00  0.00    +0.000 A 
ATOM     12  C   UNL     1       0.822   9.897  22.400  0.00  0.00    +0.000 A 
ATOM     13  C   UNL     1       1.241   8.586  22.150  0.00  0.00    +0.000 A 
ATOM     14  C   UNL     1       1.432   8.142  20.836  0.00  0.00    +0.000 A 
ATOM     15  C   UNL     1       1.153   9.010  19.781  0.00  0.00    +0.000 A 
ATOM     16  H   UNL     1      -0.577  10.755  16.964  0.00  0.00    +0.000 HD
ENDBRANCH   2   5
BRANCH   1  17
ATOM     17  C   UNL     1       3.412   5.678  17.727  0.00  0.00    +0.000 C 
BRANCH  17  22
ATOM     18  C   UNL     1       1.449   3.026  19.743  0.00  0.00    +0.000 A 
ATOM     19  C   UNL     1       1.531   1.929  18.888  0.00  0.00    +0.000 A 
ATOM     20  C   UNL     1       2.253   2.030  17.698  0.00  0.00    +0.000 A 
ATOM     21  C   UNL     1       2.876   3.224  17.339  0.00  0.00    +0.000 A 
ATOM     22  C   UNL     1       2.794   4.350  18.172  0.00  0.00    +0.000 A 
ATOM     23  C   UNL     1       2.090   4.222  19.388  0.00  0.00    +0.000 A 
BRANCH  18  25
ATOM     24  C   UNL     1       1.461   2.511  22.069  0.00  0.00    +0.000 C 
ATOM     25  O   UNL     1       0.783   3.053  20.938  0.00  0.00    +0.000 OA
ENDBRANCH  18  25
ENDBRANCH  17  22
BRANCH  17  26
ATOM     26  C   UNL     1       4.895   5.753  17.991  0.00  0.00    +0.000 A 
ATOM     27  N   UNL     1       5.483   5.624  19.172  0.00  0.00    +0.000 NA
ATOM     28  C   UNL     1       6.818   5.837  18.956  0.00  0.00    +0.000 A 
ATOM     29  C   UNL     1       7.059   6.086  17.627  0.00  0.00    +0.000 A 
ATOM     30  N   UNL     1       5.836   6.023  17.023  0.00  0.00    +0.000 N 
ATOM     31  C   UNL     1       5.593   6.220  15.614  0.00  0.00    +0.000 C 
ENDBRANCH  17  26
ENDBRANCH   1  17
TORSDOF 5
ENDMDL
MODEL 9
REMARK VINA RESULT:      -7.6      1.942      2.715
REMARK  Name = 
REMARK  7 active torsions:
REMARK  status: ('A' for Active; 'I' for Inactive)
REMARK    1  A    between atoms: C_1  and  O_2
REMARK    2  A    between atoms: O_2  and  C_3
REMARK    3  A    between atoms: C_7  and  C_8
REMARK    4  A    between atoms: C_8  and  N_9
REMARK    5  A    between atoms: C_8  and  C_23
REMARK    6  A    between atoms: C_10  and  C_12
REMARK    7  A    between atoms: N_27  and  C_28
REMARK                            x       y       z     vdW  Elec       q    Type
REMARK                         _______ _______ _______ _____ _____    ______ ____
ROOT
ATOM      1  N   UNL     1       2.958   6.347  19.558  0.00  0.00    +0.000 N 
ATOM      2  C   UNL     1       1.882   6.491  20.400  0.00  0.00    +0.000 C 
ATOM      3  O   UNL     1       1.258   5.592  20.929  0.00  0.00    +0.000 OA
ATOM      4  H   UNL     1       3.389   7.215  19.249  0.00  0.00    +0.000 HD
ENDROOT
BRANCH   2   5
ATOM      5  C   UNL     1       1.683   7.968  20.782  0.00  0.00    +0.000 A 
ATOM      6  N   UNL     1       1.888   8.250  22.039  0.00  0.00    +0.000 NA
ATOM      7  N   UNL     1       1.268   9.365  22.531  0.00  0.00    +0.000 N 
ATOM      8  C   UNL     1       0.147   9.903  21.925  0.00  0.00    +0.000 A 
ATOM      9  O   UNL     1      -0.709  10.528  22.538  0.00  0.00    +0.000 OA
ATOM     10  C   UNL     1       0.107   9.758  20.458  0.00  0.00    +0.000 A 
ATOM     11  C   UNL     1      -0.740  10.550  19.682  0.00  0.00    +0.000 A 
ATOM     12  C   UNL     1      -0.568  10.572  18.298  0.00  0.00    +0.000 A 
ATOM     13  C   UNL     1       0.449   9.817  17.706  0.00  0.00    +0.000 A 
ATOM     14  C   UNL     1       1.234   8.955  18.480  0.00  0.00    +0.000 A 
ATOM     15  C   UNL     1       1.020   8.898  19.857  0.00  0.00    +0.000 A 
ATOM     16  H   UNL     1       1.324   9.474  23.539  0.00  0.00    +0.000 HD
ENDBRANCH   2   5
BRANCH   1  17
ATOM     17  C   UNL     1       3.843   5.206  19.585  0.00  0.00    +0.000 C 
BRANCH  17  22
ATOM     18  C   UNL     1       6.168   5.929  16.581  0.00  0.00    +0.000 A 
ATOM     19  C   UNL     1       7.386   6.118  17.229  0.00  0.00    +0.000 A 
ATOM     20  C   UNL     1       7.467   5.966  18.613  0.00  0.00    +0.000 A 
ATOM     21  C   UNL     1       6.337   5.649  19.364  0.00  0.00    +0.000 A 
ATOM     22  C   UNL     1       5.092   5.471  18.740  0.00  0.00    +0.000 A 
ATOM     23  C   UNL     1       5.033   5.594  17.336  0.00  0.00    +0.000 A 
BRANCH  18  25
ATOM     24  C   UNL     1       6.357   4.935  14.424  0.00  0.00    +0.000 C 
ATOM     25  O   UNL     1       5.959   6.039  15.232  0.00  0.00    +0.000 OA
ENDBRANCH  18  25
ENDBRANCH  17  22
BRANCH  17  26
ATOM     26  C   UNL     1       3.043   4.025  19.096  0.00  0.00    +0.000 A 
ATOM     27  N   UNL     1       2.015   4.074  18.259  0.00  0.00    +0.000 NA
ATOM     28  C   UNL     1       1.551   2.790  18.154  0.00  0.00    +0.000 A 
ATOM     29  C   UNL     1       2.307   1.938  18.921  0.00  0.00    +0.000 A 
ATOM     30  N   UNL     1       3.254   2.728  19.507  0.00  0.00    +0.000 N 
ATOM     31  C   UNL     1       4.282   2.265  20.408  0.00  0.00    +0.000 C 
ENDBRANCH  17  26
ENDBRANCH   1  17
TORSDOF 5
ENDMDL
