MODEL 1
REMARK VINA RESULT:      -8.8      0.000      0.000
REMARK  Name = 
REMARK  5 active torsions:
REMARK  status: ('A' for Active; 'I' for Inactive)
REMARK    1  A    between atoms: C_1  and  C_2
REMARK    2  A    between atoms: C_6  and  N_7
REMARK    3  A    between atoms: C_8  and  C_10
REMARK    4  A    between atoms: C_15  and  N_16
REMARK    5  A    between atoms: C_17  and  C_19
REMARK                            x       y       z     vdW  Elec       q    Type
REMARK                         _______ _______ _______ _____ _____    ______ ____
ROOT
ATOM      1  C   UNL     1       2.592   4.465  20.011  0.00  0.00    +0.000 A 
ATOM      2  C   UNL     1       1.922   4.130  21.209  0.00  0.00    +0.000 A 
ATOM      3  C   UNL     1       2.202   2.941  21.882  0.00  0.00    +0.000 A 
ATOM      4  C   UNL     1       3.153   2.076  21.368  0.00  0.00    +0.000 A 
ATOM      5  C   UNL     1       3.812   2.388  20.180  0.00  0.00    +0.000 A 
ATOM      6  C   UNL     1       3.529   3.558  19.454  0.00  0.00    +0.000 A 
ENDROOT
BRANCH   1   8
ATOM      7  N   UNL     1       2.330   6.909  20.052  0.00  0.00    +0.000 N 
ATOM      8  C   UNL     1       2.220   5.737  19.310  0.00  0.00    +0.000 C 
ATOM      9  O   UNL     1       1.890   5.680  18.132  0.00  0.00    +0.000 OA
ATOM     10  H   UNL     1       2.919   6.888  20.875  0.00  0.00    +0.000 HD
BRANCH   7  16
ATOM     11  C   UNL     1      -1.341  13.206  19.813  0.00  0.00    +0.000 C 
ATOM     12  C   UNL     1      -0.498  11.996  19.759  0.00  0.00    +0.000 A 
ATOM     13  N   UNL     1      -0.362  11.052  20.668  0.00  0.00    +0.000 NA
ATOM     14  C   UNL     1       0.486  10.152  20.075  0.00  0.00    +0.000 A 
ATOM     15  C   UNL     1       0.980   8.922  20.528  0.00  0.00    +0.000 A 
ATOM     16  C   UNL     1       1.818   8.176  19.684  0.00  0.00    +0.000 A 
ATOM     17  C   UNL     1       2.200   8.703  18.435  0.00  0.00    +0.000 A 
ATOM     18  C   UNL     1       1.719   9.940  17.969  0.00  0.00    +0.000 A 
ATOM     19  C   UNL     1       0.858  10.610  18.825  0.00  0.00    +0.000 A 
ATOM     20  O   UNL     1       0.229  11.804  18.611  0.00  0.00    +0.000 OA
ENDBRANCH   7  16
ENDBRANCH   1   8
BRANCH   6  21
ATOM     21  N   UNL     1       4.150   3.811  18.187  0.00  0.00    +0.000 N 
ATOM     22  C   UNL     1       5.453   4.268  18.005  0.00  0.00    +0.000 C 
ATOM     23  O   UNL     1       6.234   4.525  18.920  0.00  0.00    +0.000 OA
ATOM     24  H   UNL     1       3.642   3.437  17.384  0.00  0.00    +0.000 HD
BRANCH  22  25
ATOM     25  C   UNL     1       5.997   4.417  16.618  0.00  0.00    +0.000 A 
ATOM     26  C   UNL     1       7.263   4.917  16.299  0.00  0.00    +0.000 A 
ATOM     27  C   UNL     1       7.641   5.048  14.952  0.00  0.00    +0.000 A 
ATOM     28  C   UNL     1       6.773   4.673  13.925  0.00  0.00    +0.000 A 
ATOM     29  C   UNL     1       5.527   4.144  14.232  0.00  0.00    +0.000 A 
ATOM     30  C   UNL     1       5.147   4.014  15.567  0.00  0.00    +0.000 A 
ENDBRANCH  22  25
ENDBRANCH   6  21
TORSDOF 4
ENDMDL
MODEL 2
REMARK VINA RESULT:      -8.7      1.764      4.891
REMARK  Name = 
REMARK  5 active torsions:
REMARK  status: ('A' for Active; 'I' for Inactive)
REMARK    1  A    between atoms: C_1  and  C_2
REMARK    2  A    between atoms: C_6  and  N_7
REMARK    3  A    between atoms: C_8  and  C_10
REMARK    4  A    between atoms: C_15  and  N_16
REMARK    5  A    between atoms: C_17  and  C_19
REMARK                            x       y       z     vdW  Elec       q    Type
REMARK                         _______ _______ _______ _____ _____    ______ ____
ROOT
ATOM      1  C   UNL     1       5.196   5.680  16.287  0.00  0.00    +0.000 A 
ATOM      2  C   UNL     1       6.137   6.049  15.300  0.00  0.00    +0.000 A 
ATOM      3  C   UNL     1       6.675   5.103  14.429  0.00  0.00    +0.000 A 
ATOM      4  C   UNL     1       6.280   3.780  14.532  0.00  0.00    +0.000 A 
ATOM      5  C   UNL     1       5.362   3.400  15.511  0.00  0.00    +0.000 A 
ATOM      6  C   UNL     1       4.828   4.318  16.431  0.00  0.00    +0.000 A 
ENDROOT
BRANCH   1   8
ATOM      7  N   UNL     1       3.367   6.592  17.652  0.00  0.00    +0.000 N 
ATOM      8  C   UNL     1       4.683   6.733  17.223  0.00  0.00    +0.000 C 
ATOM      9  O   UNL     1       5.449   7.617  17.586  0.00  0.00    +0.000 OA
ATOM     10  H   UNL     1       2.944   5.676  17.572  0.00  0.00    +0.000 HD
BRANCH   7  16
ATOM     11  C   UNL     1      -0.518  10.288  22.595  0.00  0.00    +0.000 C 
ATOM     12  C   UNL     1       0.291   9.678  21.523  0.00  0.00    +0.000 A 
ATOM     13  N   UNL     1       0.987   8.560  21.559  0.00  0.00    +0.000 NA
ATOM     14  C   UNL     1       1.483   8.447  20.285  0.00  0.00    +0.000 A 
ATOM     15  C   UNL     1       2.269   7.450  19.691  0.00  0.00    +0.000 A 
ATOM     16  C   UNL     1       2.607   7.572  18.335  0.00  0.00    +0.000 A 
ATOM     17  C   UNL     1       2.212   8.717  17.616  0.00  0.00    +0.000 A 
ATOM     18  C   UNL     1       1.429   9.730  18.198  0.00  0.00    +0.000 A 
ATOM     19  C   UNL     1       1.085   9.533  19.528  0.00  0.00    +0.000 A 
ATOM     20  O   UNL     1       0.316  10.338  20.320  0.00  0.00    +0.000 OA
ENDBRANCH   7  16
ENDBRANCH   1   8
BRANCH   6  21
ATOM     21  N   UNL     1       3.960   3.887  17.488  0.00  0.00    +0.000 N 
ATOM     22  C   UNL     1       4.344   3.675  18.809  0.00  0.00    +0.000 C 
ATOM     23  O   UNL     1       5.489   3.821  19.234  0.00  0.00    +0.000 OA
ATOM     24  H   UNL     1       2.965   3.935  17.265  0.00  0.00    +0.000 HD
BRANCH  22  25
ATOM     25  C   UNL     1       3.312   3.297  19.826  0.00  0.00    +0.000 A 
ATOM     26  C   UNL     1       3.538   2.478  20.937  0.00  0.00    +0.000 A 
ATOM     27  C   UNL     1       2.474   2.160  21.797  0.00  0.00    +0.000 A 
ATOM     28  C   UNL     1       1.192   2.663  21.566  0.00  0.00    +0.000 A 
ATOM     29  C   UNL     1       0.964   3.504  20.484  0.00  0.00    +0.000 A 
ATOM     30  C   UNL     1       2.018   3.819  19.628  0.00  0.00    +0.000 A 
ENDBRANCH  22  25
ENDBRANCH   6  21
TORSDOF 4
ENDMDL
MODEL 3
REMARK VINA RESULT:      -8.5      3.370      4.886
REMARK  Name = 
REMARK  5 active torsions:
REMARK  status: ('A' for Active; 'I' for Inactive)
REMARK    1  A    between atoms: C_1  and  C_2
REMARK    2  A    between atoms: C_6  and  N_7
REMARK    3  A    between atoms: C_8  and  C_10
REMARK    4  A    between atoms: C_15  and  N_16
REMARK    5  A    between atoms: C_17  and  C_19
REMARK                            x       y       z     vdW  Elec       q    Type
REMARK                         _______ _______ _______ _____ _____    ______ ____
ROOT
ATOM      1  C   UNL     1       5.207   5.452  17.051  0.00  0.00    +0.000 A 
ATOM      2  C   UNL     1       4.724   4.219  16.561  0.00  0.00    +0.000 A 
ATOM      3  C   UNL     1       5.393   3.537  15.545  0.00  0.00    +0.000 A 
ATOM      4  C   UNL     1       6.550   4.076  15.010  0.00  0.00    +0.000 A 
ATOM      5  C   UNL     1       7.031   5.300  15.476  0.00  0.00    +0.000 A 
ATOM      6  C   UNL     1       6.363   6.034  16.471  0.00  0.00    +0.000 A 
ENDROOT
BRANCH   1   8
ATOM      7  N   UNL     1       3.244   6.778  17.707  0.00  0.00    +0.000 N 
ATOM      8  C   UNL     1       4.423   6.161  18.115  0.00  0.00    +0.000 C 
ATOM      9  O   UNL     1       4.831   6.120  19.268  0.00  0.00    +0.000 OA
ATOM     10  H   UNL     1       2.833   6.472  16.834  0.00  0.00    +0.000 HD
BRANCH   7  16
ATOM     11  C   UNL     1      -0.639  10.016  22.963  0.00  0.00    +0.000 C 
ATOM     12  C   UNL     1       0.167   9.504  21.838  0.00  0.00    +0.000 A 
ATOM     13  N   UNL     1       0.880   8.398  21.780  0.00  0.00    +0.000 NA
ATOM     14  C   UNL     1       1.363   8.392  20.496  0.00  0.00    +0.000 A 
ATOM     15  C   UNL     1       2.157   7.457  19.818  0.00  0.00    +0.000 A 
ATOM     16  C   UNL     1       2.476   7.690  18.472  0.00  0.00    +0.000 A 
ATOM     17  C   UNL     1       2.056   8.880  17.848  0.00  0.00    +0.000 A 
ATOM     18  C   UNL     1       1.264   9.832  18.516  0.00  0.00    +0.000 A 
ATOM     19  C   UNL     1       0.939   9.527  19.830  0.00  0.00    +0.000 A 
ATOM     20  O   UNL     1       0.167  10.255  20.690  0.00  0.00    +0.000 OA
ENDBRANCH   7  16
ENDBRANCH   1   8
BRANCH   6  21
ATOM     21  N   UNL     1       6.824   7.333  16.866  0.00  0.00    +0.000 N 
ATOM     22  C   UNL     1       7.733   7.588  17.889  0.00  0.00    +0.000 C 
ATOM     23  O   UNL     1       8.249   6.723  18.595  0.00  0.00    +0.000 OA
ATOM     24  H   UNL     1       6.599   8.080  16.208  0.00  0.00    +0.000 HD
BRANCH  22  25
ATOM     25  C   UNL     1       8.183   8.994  18.144  0.00  0.00    +0.000 A 
ATOM     26  C   UNL     1       7.832  10.105  17.373  0.00  0.00    +0.000 A 
ATOM     27  C   UNL     1       8.356  11.369  17.691  0.00  0.00    +0.000 A 
ATOM     28  C   UNL     1       9.217  11.534  18.779  0.00  0.00    +0.000 A 
ATOM     29  C   UNL     1       9.546  10.442  19.571  0.00  0.00    +0.000 A 
ATOM     30  C   UNL     1       9.028   9.186  19.257  0.00  0.00    +0.000 A 
ENDBRANCH  22  25
ENDBRANCH   6  21
TORSDOF 4
ENDMDL
MODEL 4
REMARK VINA RESULT:      -8.4      0.865      1.231
REMARK  Name = 
REMARK  5 active torsions:
REMARK  status: ('A' for Active; 'I' for Inactive)
REMARK    1  A    between atoms: C_1  and  C_2
REMARK    2  A    between atoms: C_6  and  N_7
REMARK    3  A    between atoms: C_8  and  C_10
REMARK    4  A    between atoms: C_15  and  N_16
REMARK    5  A    between atoms: C_17  and  C_19
REMARK                            x       y       z     vdW  Elec       q    Type
REMARK                         _______ _______ _______ _____ _____    ______ ____
ROOT
ATOM      1  C   UNL     1       2.508   4.566  20.119  0.00  0.00    +0.000 A 
ATOM      2  C   UNL     1       1.604   4.170  21.131  0.00  0.00    +0.000 A 
ATOM      3  C   UNL     1       1.762   2.958  21.802  0.00  0.00    +0.000 A 
ATOM      4  C   UNL     1       2.823   2.131  21.474  0.00  0.00    +0.000 A 
ATOM      5  C   UNL     1       3.715   2.504  20.468  0.00  0.00    +0.000 A 
ATOM      6  C   UNL     1       3.565   3.699  19.744  0.00  0.00    +0.000 A 
ENDROOT
BRANCH   1   8
ATOM      7  N   UNL     1       2.190   7.002  20.195  0.00  0.00    +0.000 N 
ATOM      8  C   UNL     1       2.264   5.860  19.403  0.00  0.00    +0.000 C 
ATOM      9  O   UNL     1       2.190   5.847  18.181  0.00  0.00    +0.000 OA
ATOM     10  H   UNL     1       2.594   6.956  21.122  0.00  0.00    +0.000 HD
BRANCH   7  16
ATOM     11  C   UNL     1      -1.107  13.491  19.735  0.00  0.00    +0.000 C 
ATOM     12  C   UNL     1      -0.340  12.230  19.718  0.00  0.00    +0.000 A 
ATOM     13  N   UNL     1      -0.223  11.331  20.674  0.00  0.00    +0.000 NA
ATOM     14  C   UNL     1       0.545  10.349  20.102  0.00  0.00    +0.000 A 
ATOM     15  C   UNL     1       0.983   9.117  20.605  0.00  0.00    +0.000 A 
ATOM     16  C   UNL     1       1.740   8.277  19.774  0.00  0.00    +0.000 A 
ATOM     17  C   UNL     1       2.101   8.710  18.484  0.00  0.00    +0.000 A 
ATOM     18  C   UNL     1       1.676   9.946  17.966  0.00  0.00    +0.000 A 
ATOM     19  C   UNL     1       0.891  10.714  18.814  0.00  0.00    +0.000 A 
ATOM     20  O   UNL     1       0.326  11.931  18.556  0.00  0.00    +0.000 OA
ENDBRANCH   7  16
ENDBRANCH   1   8
BRANCH   6  21
ATOM     21  N   UNL     1       4.438   4.016  18.651  0.00  0.00    +0.000 N 
ATOM     22  C   UNL     1       4.317   3.525  17.355  0.00  0.00    +0.000 C 
ATOM     23  O   UNL     1       3.443   2.741  16.986  0.00  0.00    +0.000 OA
ATOM     24  H   UNL     1       5.062   4.805  18.823  0.00  0.00    +0.000 HD
BRANCH  22  25
ATOM     25  C   UNL     1       5.259   4.001  16.292  0.00  0.00    +0.000 A 
ATOM     26  C   UNL     1       5.044   3.888  14.916  0.00  0.00    +0.000 A 
ATOM     27  C   UNL     1       6.028   4.336  14.018  0.00  0.00    +0.000 A 
ATOM     28  C   UNL     1       7.215   4.906  14.482  0.00  0.00    +0.000 A 
ATOM     29  C   UNL     1       7.423   5.053  15.847  0.00  0.00    +0.000 A 
ATOM     30  C   UNL     1       6.450   4.608  16.741  0.00  0.00    +0.000 A 
ENDBRANCH  22  25
ENDBRANCH   6  21
TORSDOF 4
ENDMDL
MODEL 5
REMARK VINA RESULT:      -8.2      1.511      4.865
REMARK  Name = 
REMARK  5 active torsions:
REMARK  status: ('A' for Active; 'I' for Inactive)
REMARK    1  A    between atoms: C_1  and  C_2
REMARK    2  A    between atoms: C_6  and  N_7
REMARK    3  A    between atoms: C_8  and  C_10
REMARK    4  A    between atoms: C_15  and  N_16
REMARK    5  A    between atoms: C_17  and  C_19
REMARK                            x       y       z     vdW  Elec       q    Type
REMARK                         _______ _______ _______ _____ _____    ______ ____
ROOT
ATOM      1  C   UNL     1       5.191   5.699  16.267  0.00  0.00    +0.000 A 
ATOM      2  C   UNL     1       6.145   6.061  15.290  0.00  0.00    +0.000 A 
ATOM      3  C   UNL     1       6.689   5.110  14.428  0.00  0.00    +0.000 A 
ATOM      4  C   UNL     1       6.287   3.789  14.530  0.00  0.00    +0.000 A 
ATOM      5  C   UNL     1       5.357   3.415  15.499  0.00  0.00    +0.000 A 
ATOM      6  C   UNL     1       4.815   4.339  16.410  0.00  0.00    +0.000 A 
ENDROOT
BRANCH   1   8
ATOM      7  N   UNL     1       3.389   6.562  17.699  0.00  0.00    +0.000 N 
ATOM      8  C   UNL     1       4.671   6.757  17.193  0.00  0.00    +0.000 C 
ATOM      9  O   UNL     1       5.406   7.692  17.484  0.00  0.00    +0.000 OA
ATOM     10  H   UNL     1       3.013   5.623  17.672  0.00  0.00    +0.000 HD
BRANCH   7  16
ATOM     11  C   UNL     1      -0.322  12.546  19.598  0.00  0.00    +0.000 C 
ATOM     12  C   UNL     1       0.352  11.261  19.329  0.00  0.00    +0.000 A 
ATOM     13  N   UNL     1       0.894  10.842  18.204  0.00  0.00    +0.000 NA
ATOM     14  C   UNL     1       1.423   9.620  18.535  0.00  0.00    +0.000 A 
ATOM     15  C   UNL     1       2.156   8.700  17.774  0.00  0.00    +0.000 A 
ATOM     16  C   UNL     1       2.613   7.525  18.389  0.00  0.00    +0.000 A 
ATOM     17  C   UNL     1       2.274   7.259  19.729  0.00  0.00    +0.000 A 
ATOM     18  C   UNL     1       1.534   8.168  20.505  0.00  0.00    +0.000 A 
ATOM     19  C   UNL     1       1.149   9.334  19.860  0.00  0.00    +0.000 A 
ATOM     20  O   UNL     1       0.453  10.387  20.382  0.00  0.00    +0.000 OA
ENDBRANCH   7  16
ENDBRANCH   1   8
BRANCH   6  21
ATOM     21  N   UNL     1       3.933   3.914  17.457  0.00  0.00    +0.000 N 
ATOM     22  C   UNL     1       4.312   3.643  18.769  0.00  0.00    +0.000 C 
ATOM     23  O   UNL     1       5.465   3.723  19.192  0.00  0.00    +0.000 OA
ATOM     24  H   UNL     1       2.940   4.015  17.242  0.00  0.00    +0.000 HD
BRANCH  22  25
ATOM     25  C   UNL     1       3.269   3.280  19.780  0.00  0.00    +0.000 A 
ATOM     26  C   UNL     1       3.505   2.577  20.965  0.00  0.00    +0.000 A 
ATOM     27  C   UNL     1       2.431   2.259  21.813  0.00  0.00    +0.000 A 
ATOM     28  C   UNL     1       1.128   2.646  21.494  0.00  0.00    +0.000 A 
ATOM     29  C   UNL     1       0.887   3.374  20.336  0.00  0.00    +0.000 A 
ATOM     30  C   UNL     1       1.950   3.690  19.492  0.00  0.00    +0.000 A 
ENDBRANCH  22  25
ENDBRANCH   6  21
TORSDOF 4
ENDMDL
MODEL 6
REMARK VINA RESULT:      -8.1      3.318      4.888
REMARK  Name = 
REMARK  5 active torsions:
REMARK  status: ('A' for Active; 'I' for Inactive)
REMARK    1  A    between atoms: C_1  and  C_2
REMARK    2  A    between atoms: C_6  and  N_7
REMARK    3  A    between atoms: C_8  and  C_10
REMARK    4  A    between atoms: C_15  and  N_16
REMARK    5  A    between atoms: C_17  and  C_19
REMARK                            x       y       z     vdW  Elec       q    Type
REMARK                         _______ _______ _______ _____ _____    ______ ____
ROOT
ATOM      1  C   UNL     1       5.321   5.408  17.029  0.00  0.00    +0.000 A 
ATOM      2  C   UNL     1       4.859   4.168  16.533  0.00  0.00    +0.000 A 
ATOM      3  C   UNL     1       5.509   3.528  15.479  0.00  0.00    +0.000 A 
ATOM      4  C   UNL     1       6.626   4.116  14.910  0.00  0.00    +0.000 A 
ATOM      5  C   UNL     1       7.084   5.346  15.381  0.00  0.00    +0.000 A 
ATOM      6  C   UNL     1       6.433   6.039  16.415  0.00  0.00    +0.000 A 
ENDROOT
BRANCH   1   8
ATOM      7  N   UNL     1       3.317   6.605  17.799  0.00  0.00    +0.000 N 
ATOM      8  C   UNL     1       4.557   6.070  18.136  0.00  0.00    +0.000 C 
ATOM      9  O   UNL     1       5.036   6.064  19.263  0.00  0.00    +0.000 OA
ATOM     10  H   UNL     1       2.875   6.267  16.953  0.00  0.00    +0.000 HD
BRANCH   7  16
ATOM     11  C   UNL     1      -0.394  12.292  20.460  0.00  0.00    +0.000 C 
ATOM     12  C   UNL     1       0.279  11.052  20.026  0.00  0.00    +0.000 A 
ATOM     13  N   UNL     1       0.830  10.787  18.858  0.00  0.00    +0.000 NA
ATOM     14  C   UNL     1       1.352   9.530  19.026  0.00  0.00    +0.000 A 
ATOM     15  C   UNL     1       2.088   8.718  18.153  0.00  0.00    +0.000 A 
ATOM     16  C   UNL     1       2.538   7.469  18.607  0.00  0.00    +0.000 A 
ATOM     17  C   UNL     1       2.186   7.025  19.896  0.00  0.00    +0.000 A 
ATOM     18  C   UNL     1       1.441   7.824  20.783  0.00  0.00    +0.000 A 
ATOM     19  C   UNL     1       1.065   9.068  20.297  0.00  0.00    +0.000 A 
ATOM     20  O   UNL     1       0.369  10.044  20.952  0.00  0.00    +0.000 OA
ENDBRANCH   7  16
ENDBRANCH   1   8
BRANCH   6  21
ATOM     21  N   UNL     1       6.866   7.345  16.818  0.00  0.00    +0.000 N 
ATOM     22  C   UNL     1       7.748   7.616  17.860  0.00  0.00    +0.000 C 
ATOM     23  O   UNL     1       8.261   6.759  18.579  0.00  0.00    +0.000 OA
ATOM     24  H   UNL     1       6.645   8.088  16.153  0.00  0.00    +0.000 HD
BRANCH  22  25
ATOM     25  C   UNL     1       8.173   9.028  18.122  0.00  0.00    +0.000 A 
ATOM     26  C   UNL     1       7.750  10.144  17.395  0.00  0.00    +0.000 A 
ATOM     27  C   UNL     1       8.256  11.416  17.712  0.00  0.00    +0.000 A 
ATOM     28  C   UNL     1       9.169  11.583  18.757  0.00  0.00    +0.000 A 
ATOM     29  C   UNL     1       9.569  10.485  19.507  0.00  0.00    +0.000 A 
ATOM     30  C   UNL     1       9.070   9.221  19.193  0.00  0.00    +0.000 A 
ENDBRANCH  22  25
ENDBRANCH   6  21
TORSDOF 4
ENDMDL
MODEL 7
REMARK VINA RESULT:      -8.0      2.169      2.609
REMARK  Name = 
REMARK  5 active torsions:
REMARK  status: ('A' for Active; 'I' for Inactive)
REMARK    1  A    between atoms: C_1  and  C_2
REMARK    2  A    between atoms: C_6  and  N_7
REMARK    3  A    between atoms: C_8  and  C_10
REMARK    4  A    between atoms: C_15  and  N_16
REMARK    5  A    between atoms: C_17  and  C_19
REMARK                            x       y       z     vdW  Elec       q    Type
REMARK                         _______ _______ _______ _____ _____    ______ ____
ROOT
ATOM      1  C   UNL     1       1.976   4.761  19.864  0.00  0.00    +0.000 A 
ATOM      2  C   UNL     1       0.815   3.961  19.954  0.00  0.00    +0.000 A 
ATOM      3  C   UNL     1       0.900   2.570  19.984  0.00  0.00    +0.000 A 
ATOM      4  C   UNL     1       2.142   1.962  19.927  0.00  0.00    +0.000 A 
ATOM      5  C   UNL     1       3.296   2.739  19.824  0.00  0.00    +0.000 A 
ATOM      6  C   UNL     1       3.247   4.142  19.753  0.00  0.00    +0.000 A 
ENDROOT
BRANCH   1   8
ATOM      7  N   UNL     1       1.455   6.891  20.973  0.00  0.00    +0.000 N 
ATOM      8  C   UNL     1       1.821   6.250  19.794  0.00  0.00    +0.000 C 
ATOM      9  O   UNL     1       2.064   6.815  18.735  0.00  0.00    +0.000 OA
ATOM     10  H   UNL     1       1.609   6.396  21.843  0.00  0.00    +0.000 HD
BRANCH   7  16
ATOM     11  C   UNL     1      -1.540  13.142  23.244  0.00  0.00    +0.000 C 
ATOM     12  C   UNL     1      -0.845  11.965  22.689  0.00  0.00    +0.000 A 
ATOM     13  N   UNL     1      -0.670  10.782  23.243  0.00  0.00    +0.000 NA
ATOM     14  C   UNL     1      -0.019  10.063  22.272  0.00  0.00    +0.000 A 
ATOM     15  C   UNL     1       0.408   8.729  22.249  0.00  0.00    +0.000 A 
ATOM     16  C   UNL     1       1.026   8.236  21.090  0.00  0.00    +0.000 A 
ATOM     17  C   UNL     1       1.266   9.099  20.003  0.00  0.00    +0.000 A 
ATOM     18  C   UNL     1       0.849  10.443  20.013  0.00  0.00    +0.000 A 
ATOM     19  C   UNL     1       0.202  10.862  21.166  0.00  0.00    +0.000 A 
ATOM     20  O   UNL     1      -0.325  12.095  21.426  0.00  0.00    +0.000 OA
ENDBRANCH   7  16
ENDBRANCH   1   8
BRANCH   6  21
ATOM     21  N   UNL     1       4.438   4.915  19.553  0.00  0.00    +0.000 N 
ATOM     22  C   UNL     1       5.045   5.154  18.323  0.00  0.00    +0.000 C 
ATOM     23  O   UNL     1       4.637   4.718  17.247  0.00  0.00    +0.000 OA
ATOM     24  H   UNL     1       4.724   5.470  20.360  0.00  0.00    +0.000 HD
BRANCH  22  25
ATOM     25  C   UNL     1       6.247   6.044  18.253  0.00  0.00    +0.000 A 
ATOM     26  C   UNL     1       7.383   5.929  19.060  0.00  0.00    +0.000 A 
ATOM     27  C   UNL     1       8.430   6.856  18.926  0.00  0.00    +0.000 A 
ATOM     28  C   UNL     1       8.358   7.887  17.987  0.00  0.00    +0.000 A 
ATOM     29  C   UNL     1       7.249   7.990  17.158  0.00  0.00    +0.000 A 
ATOM     30  C   UNL     1       6.208   7.073  17.289  0.00  0.00    +0.000 A 
ENDBRANCH  22  25
ENDBRANCH   6  21
TORSDOF 4
ENDMDL
MODEL 8
REMARK VINA RESULT:      -7.8      2.178      2.744
REMARK  Name = 
REMARK  5 active torsions:
REMARK  status: ('A' for Active; 'I' for Inactive)
REMARK    1  A    between atoms: C_1  and  C_2
REMARK    2  A    between atoms: C_6  and  N_7
REMARK    3  A    between atoms: C_8  and  C_10
REMARK    4  A    between atoms: C_15  and  N_16
REMARK    5  A    between atoms: C_17  and  C_19
REMARK                            x       y       z     vdW  Elec       q    Type
REMARK                         _______ _______ _______ _____ _____    ______ ____
ROOT
ATOM      1  C   UNL     1       1.927   5.110  20.251  0.00  0.00    +0.000 A 
ATOM      2  C   UNL     1       0.768   4.321  20.429  0.00  0.00    +0.000 A 
ATOM      3  C   UNL     1       0.842   2.929  20.452  0.00  0.00    +0.000 A 
ATOM      4  C   UNL     1       2.070   2.309  20.299  0.00  0.00    +0.000 A 
ATOM      5  C   UNL     1       3.220   3.076  20.109  0.00  0.00    +0.000 A 
ATOM      6  C   UNL     1       3.180   4.479  20.042  0.00  0.00    +0.000 A 
ENDROOT
BRANCH   1   8
ATOM      7  N   UNL     1       1.196   7.209  21.299  0.00  0.00    +0.000 N 
ATOM      8  C   UNL     1       1.781   6.601  20.193  0.00  0.00    +0.000 C 
ATOM      9  O   UNL     1       2.218   7.194  19.215  0.00  0.00    +0.000 OA
ATOM     10  H   UNL     1       1.185   6.690  22.168  0.00  0.00    +0.000 HD
BRANCH   7  16
ATOM     11  C   UNL     1      -0.188  14.238  19.930  0.00  0.00    +0.000 C 
ATOM     12  C   UNL     1      -0.026  12.821  20.311  0.00  0.00    +0.000 A 
ATOM     13  N   UNL     1       0.492  11.838  19.603  0.00  0.00    +0.000 NA
ATOM     14  C   UNL     1       0.448  10.766  20.458  0.00  0.00    +0.000 A 
ATOM     15  C   UNL     1       0.886   9.445  20.297  0.00  0.00    +0.000 A 
ATOM     16  C   UNL     1       0.747   8.550  21.369  0.00  0.00    +0.000 A 
ATOM     17  C   UNL     1       0.114   8.971  22.555  0.00  0.00    +0.000 A 
ATOM     18  C   UNL     1      -0.338  10.292  22.730  0.00  0.00    +0.000 A 
ATOM     19  C   UNL     1      -0.132  11.144  21.655  0.00  0.00    +0.000 A 
ATOM     20  O   UNL     1      -0.445  12.471  21.570  0.00  0.00    +0.000 OA
ENDBRANCH   7  16
ENDBRANCH   1   8
BRANCH   6  21
ATOM     21  N   UNL     1       4.359   5.240  19.751  0.00  0.00    +0.000 N 
ATOM     22  C   UNL     1       5.060   5.210  18.548  0.00  0.00    +0.000 C 
ATOM     23  O   UNL     1       4.758   4.511  17.582  0.00  0.00    +0.000 OA
ATOM     24  H   UNL     1       4.559   5.985  20.419  0.00  0.00    +0.000 HD
BRANCH  22  25
ATOM     25  C   UNL     1       6.236   6.117  18.356  0.00  0.00    +0.000 A 
ATOM     26  C   UNL     1       7.434   6.046  19.073  0.00  0.00    +0.000 A 
ATOM     27  C   UNL     1       8.450   6.985  18.828  0.00  0.00    +0.000 A 
ATOM     28  C   UNL     1       8.285   7.984  17.866  0.00  0.00    +0.000 A 
ATOM     29  C   UNL     1       7.112   8.042  17.125  0.00  0.00    +0.000 A 
ATOM     30  C   UNL     1       6.101   7.113  17.367  0.00  0.00    +0.000 A 
ENDBRANCH  22  25
ENDBRANCH   6  21
TORSDOF 4
ENDMDL
MODEL 9
REMARK VINA RESULT:      -7.8      1.144      1.522
REMARK  Name = 
REMARK  5 active torsions:
REMARK  status: ('A' for Active; 'I' for Inactive)
REMARK    1  A    between atoms: C_1  and  C_2
REMARK    2  A    between atoms: C_6  and  N_7
REMARK    3  A    between atoms: C_8  and  C_10
REMARK    4  A    between atoms: C_15  and  N_16
REMARK    5  A    between atoms: C_17  and  C_19
REMARK                            x       y       z     vdW  Elec       q    Type
REMARK                         _______ _______ _______ _____ _____    ______ ____
ROOT
ATOM      1  C   UNL     1       2.202   4.437  20.147  0.00  0.00    +0.000 A 
ATOM      2  C   UNL     1       1.401   3.984  21.219  0.00  0.00    +0.000 A 
ATOM      3  C   UNL     1       1.424   2.648  21.620  0.00  0.00    +0.000 A 
ATOM      4  C   UNL     1       2.245   1.752  20.957  0.00  0.00    +0.000 A 
ATOM      5  C   UNL     1       3.031   2.184  19.889  0.00  0.00    +0.000 A 
ATOM      6  C   UNL     1       3.006   3.513  19.432  0.00  0.00    +0.000 A 
ENDROOT
BRANCH   1   8
ATOM      7  N   UNL     1       1.888   6.798  20.752  0.00  0.00    +0.000 N 
ATOM      8  C   UNL     1       2.105   5.875  19.734  0.00  0.00    +0.000 C 
ATOM      9  O   UNL     1       2.265   6.156  18.554  0.00  0.00    +0.000 OA
ATOM     10  H   UNL     1       2.107   6.512  21.698  0.00  0.00    +0.000 HD
BRANCH   7  16
ATOM     11  C   UNL     1       1.115  13.592  18.215  0.00  0.00    +0.000 C 
ATOM     12  C   UNL     1       1.147  12.246  18.820  0.00  0.00    +0.000 A 
ATOM     13  N   UNL     1       1.645  11.135  18.317  0.00  0.00    +0.000 NA
ATOM     14  C   UNL     1       1.460  10.216  19.318  0.00  0.00    +0.000 A 
ATOM     15  C   UNL     1       1.814   8.863  19.398  0.00  0.00    +0.000 A 
ATOM     16  C   UNL     1       1.532   8.158  20.579  0.00  0.00    +0.000 A 
ATOM     17  C   UNL     1       0.843   8.796  21.627  0.00  0.00    +0.000 A 
ATOM     18  C   UNL     1       0.475  10.152  21.561  0.00  0.00    +0.000 A 
ATOM     19  C   UNL     1       0.821  10.811  20.390  0.00  0.00    +0.000 A 
ATOM     20  O   UNL     1       0.611  12.124  20.077  0.00  0.00    +0.000 OA
ENDBRANCH   7  16
ENDBRANCH   1   8
BRANCH   6  21
ATOM     21  N   UNL     1       3.750   3.911  18.273  0.00  0.00    +0.000 N 
ATOM     22  C   UNL     1       5.127   4.109  18.229  0.00  0.00    +0.000 C 
ATOM     23  O   UNL     1       5.881   3.978  19.192  0.00  0.00    +0.000 OA
ATOM     24  H   UNL     1       3.233   3.848  17.396  0.00  0.00    +0.000 HD
BRANCH  22  25
ATOM     25  C   UNL     1       5.783   4.453  16.928  0.00  0.00    +0.000 A 
ATOM     26  C   UNL     1       7.019   5.091  16.792  0.00  0.00    +0.000 A 
ATOM     27  C   UNL     1       7.509   5.398  15.511  0.00  0.00    +0.000 A 
ATOM     28  C   UNL     1       6.781   5.062  14.367  0.00  0.00    +0.000 A 
ATOM     29  C   UNL     1       5.569   4.397  14.490  0.00  0.00    +0.000 A 
ATOM     30  C   UNL     1       5.079   4.093  15.759  0.00  0.00    +0.000 A 
ENDBRANCH  22  25
ENDBRANCH   6  21
TORSDOF 4
ENDMDL
