MODEL 1
REMARK VINA RESULT:      -9.3      0.000      0.000
REMARK  Name = 
REMARK  3 active torsions:
REMARK  status: ('A' for Active; 'I' for Inactive)
REMARK    1  A    between atoms: C_2  and  C_3
REMARK    2  A    between atoms: C_3  and  C_4
REMARK    3  A    between atoms: N_13  and  C_14
REMARK                            x       y       z     vdW  Elec       q    Type
REMARK                         _______ _______ _______ _____ _____    ______ ____
ROOT
ATOM      1  O   UNL     1       1.833   8.099  19.835  0.00  0.00    +0.000 OA
ATOM      2  C   UNL     1       2.206   8.288  18.675  0.00  0.00    +0.000 C 
ATOM      3  N   UNL     1       3.072   7.433  18.042  0.00  0.00    +0.000 N 
ATOM      4  H   UNL     1       3.498   7.813  17.192  0.00  0.00    +0.000 HD
ENDROOT
BRANCH   3   5
ATOM      5  C   UNL     1       3.774   6.349  18.721  0.00  0.00    +0.000 C 
ATOM      6  C   UNL     1       2.821   5.283  19.284  0.00  0.00    +0.000 C 
ATOM      7  C   UNL     1       2.683   3.993  18.438  0.00  0.00    +0.000 C 
ATOM      8  C   UNL     1       3.431   2.771  19.052  0.00  0.00    +0.000 C 
ATOM      9  C   UNL     1       2.353   1.852  19.610  0.00  0.00    +0.000 C 
ATOM     10  C   UNL     1       1.208   2.035  18.635  0.00  0.00    +0.000 C 
ATOM     11  C   UNL     1       1.197   3.540  18.403  0.00  0.00    +0.000 C 
ATOM     12  O   UNL     1       3.102   4.145  17.068  0.00  0.00    +0.000 OA
ATOM     13  C   UNL     1       4.347   4.699  16.941  0.00  0.00    +0.000 A 
ATOM     14  C   UNL     1       5.167   4.229  15.920  0.00  0.00    +0.000 A 
ATOM     15  C   UNL     1       6.439   4.778  15.745  0.00  0.00    +0.000 A 
ATOM     16  C   UNL     1       6.877   5.803  16.584  0.00  0.00    +0.000 A 
ATOM     17  C   UNL     1       6.037   6.293  17.585  0.00  0.00    +0.000 A 
ATOM     18  C   UNL     1       4.760   5.742  17.766  0.00  0.00    +0.000 A 
ENDBRANCH   3   5
BRANCH   2  19
ATOM     19  C   UNL     1       1.616   9.420  17.843  0.00  0.00    +0.000 C 
BRANCH  19  20
ATOM     20  C   UNL     1       0.636  10.354  18.493  0.00  0.00    +0.000 A 
ATOM     21  N   UNL     1       1.006  11.286  19.385  0.00  0.00    +0.000 NA
ATOM     22  N   UNL     1      -0.134  11.944  19.665  0.00  0.00    +0.000 N 
ATOM     23  C   UNL     1      -1.228  11.489  18.982  0.00  0.00    +0.000 A 
ATOM     24  C   UNL     1      -2.563  11.915  18.974  0.00  0.00    +0.000 A 
ATOM     25  C   UNL     1      -3.446  11.231  18.132  0.00  0.00    +0.000 A 
ATOM     26  C   UNL     1      -3.008  10.170  17.341  0.00  0.00    +0.000 A 
ATOM     27  C   UNL     1      -1.667   9.760  17.365  0.00  0.00    +0.000 A 
ATOM     28  C   UNL     1      -0.761  10.437  18.205  0.00  0.00    +0.000 A 
ATOM     29  H   UNL     1      -0.098  12.711  20.325  0.00  0.00    +0.000 HD
ENDBRANCH  19  20
ENDBRANCH   2  19
TORSDOF 3
ENDMDL
MODEL 2
REMARK VINA RESULT:      -9.3      1.188      1.345
REMARK  Name = 
REMARK  3 active torsions:
REMARK  status: ('A' for Active; 'I' for Inactive)
REMARK    1  A    between atoms: C_2  and  C_3
REMARK    2  A    between atoms: C_3  and  C_4
REMARK    3  A    between atoms: N_13  and  C_14
REMARK                            x       y       z     vdW  Elec       q    Type
REMARK                         _______ _______ _______ _____ _____    ______ ____
ROOT
ATOM      1  O   UNL     1       1.691   9.081  19.960  0.00  0.00    +0.000 OA
ATOM      2  C   UNL     1       1.620   8.782  18.767  0.00  0.00    +0.000 C 
ATOM      3  N   UNL     1       2.235   7.666  18.259  0.00  0.00    +0.000 N 
ATOM      4  H   UNL     1       2.316   7.652  17.239  0.00  0.00    +0.000 HD
ENDROOT
BRANCH   3   5
ATOM      5  C   UNL     1       3.172   6.846  19.020  0.00  0.00    +0.000 C 
ATOM      6  C   UNL     1       2.478   5.970  20.075  0.00  0.00    +0.000 C 
ATOM      7  C   UNL     1       2.274   4.485  19.684  0.00  0.00    +0.000 C 
ATOM      8  C   UNL     1       3.254   3.518  20.413  0.00  0.00    +0.000 C 
ATOM      9  C   UNL     1       2.424   2.777  21.452  0.00  0.00    +0.000 C 
ATOM     10  C   UNL     1       1.075   2.638  20.776  0.00  0.00    +0.000 C 
ATOM     11  C   UNL     1       0.869   4.007  20.143  0.00  0.00    +0.000 C 
ATOM     12  O   UNL     1       2.354   4.238  18.268  0.00  0.00    +0.000 OA
ATOM     13  C   UNL     1       3.479   4.760  17.689  0.00  0.00    +0.000 A 
ATOM     14  C   UNL     1       4.086   4.031  16.672  0.00  0.00    +0.000 A 
ATOM     15  C   UNL     1       5.227   4.534  16.044  0.00  0.00    +0.000 A 
ATOM     16  C   UNL     1       5.745   5.771  16.429  0.00  0.00    +0.000 A 
ATOM     17  C   UNL     1       5.112   6.513  17.427  0.00  0.00    +0.000 A 
ATOM     18  C   UNL     1       3.969   6.010  18.062  0.00  0.00    +0.000 A 
ENDBRANCH   3   5
BRANCH   2  19
ATOM     19  C   UNL     1       0.731   9.576  17.818  0.00  0.00    +0.000 C 
BRANCH  19  20
ATOM     20  C   UNL     1      -0.487  10.254  18.373  0.00  0.00    +0.000 A 
ATOM     21  N   UNL     1      -0.491  10.875  19.564  0.00  0.00    +0.000 NA
ATOM     22  N   UNL     1      -1.726  11.401  19.656  0.00  0.00    +0.000 N 
ATOM     23  C   UNL     1      -2.522  11.162  18.570  0.00  0.00    +0.000 A 
ATOM     24  C   UNL     1      -3.835  11.553  18.274  0.00  0.00    +0.000 A 
ATOM     25  C   UNL     1      -4.360  11.147  17.044  0.00  0.00    +0.000 A 
ATOM     26  C   UNL     1      -3.603  10.383  16.157  0.00  0.00    +0.000 A 
ATOM     27  C   UNL     1      -2.291  10.003  16.473  0.00  0.00    +0.000 A 
ATOM     28  C   UNL     1      -1.742  10.404  17.707  0.00  0.00    +0.000 A 
ATOM     29  H   UNL     1      -1.964  11.931  20.485  0.00  0.00    +0.000 HD
ENDBRANCH  19  20
ENDBRANCH   2  19
TORSDOF 3
ENDMDL
MODEL 3
REMARK VINA RESULT:      -9.3      1.245      3.486
REMARK  Name = 
REMARK  3 active torsions:
REMARK  status: ('A' for Active; 'I' for Inactive)
REMARK    1  A    between atoms: C_2  and  C_3
REMARK    2  A    between atoms: C_3  and  C_4
REMARK    3  A    between atoms: N_13  and  C_14
REMARK                            x       y       z     vdW  Elec       q    Type
REMARK                         _______ _______ _______ _____ _____    ______ ____
ROOT
ATOM      1  O   UNL     1       2.165   8.729  17.722  0.00  0.00    +0.000 OA
ATOM      2  C   UNL     1       2.006   8.148  18.797  0.00  0.00    +0.000 C 
ATOM      3  N   UNL     1       2.422   6.855  18.992  0.00  0.00    +0.000 N 
ATOM      4  H   UNL     1       2.024   6.401  19.819  0.00  0.00    +0.000 HD
ENDROOT
BRANCH   3   5
ATOM      5  C   UNL     1       2.906   5.994  17.918  0.00  0.00    +0.000 C 
ATOM      6  C   UNL     1       4.396   6.206  17.610  0.00  0.00    +0.000 C 
ATOM      7  C   UNL     1       5.362   5.154  18.210  0.00  0.00    +0.000 C 
ATOM      8  C   UNL     1       5.914   4.151  17.153  0.00  0.00    +0.000 C 
ATOM      9  C   UNL     1       7.369   4.536  16.924  0.00  0.00    +0.000 C 
ATOM     10  C   UNL     1       7.815   5.016  18.290  0.00  0.00    +0.000 C 
ATOM     11  C   UNL     1       6.635   5.857  18.757  0.00  0.00    +0.000 C 
ATOM     12  O   UNL     1       4.800   4.404  19.304  0.00  0.00    +0.000 OA
ATOM     13  C   UNL     1       3.579   3.859  19.017  0.00  0.00    +0.000 A 
ATOM     14  C   UNL     1       3.291   2.599  19.532  0.00  0.00    +0.000 A 
ATOM     15  C   UNL     1       2.050   2.013  19.276  0.00  0.00    +0.000 A 
ATOM     16  C   UNL     1       1.099   2.697  18.518  0.00  0.00    +0.000 A 
ATOM     17  C   UNL     1       1.382   3.975  18.032  0.00  0.00    +0.000 A 
ATOM     18  C   UNL     1       2.628   4.565  18.284  0.00  0.00    +0.000 A 
ENDBRANCH   3   5
BRANCH   2  19
ATOM     19  C   UNL     1       1.451   8.888  20.007  0.00  0.00    +0.000 C 
BRANCH  19  20
ATOM     20  C   UNL     1       0.721  10.181  19.786  0.00  0.00    +0.000 A 
ATOM     21  N   UNL     1       1.087  11.330  20.376  0.00  0.00    +0.000 NA
ATOM     22  N   UNL     1       0.238  12.244  19.870  0.00  0.00    +0.000 N 
ATOM     23  C   UNL     1      -0.655  11.742  18.965  0.00  0.00    +0.000 A 
ATOM     24  C   UNL     1      -1.663  12.358  18.211  0.00  0.00    +0.000 A 
ATOM     25  C   UNL     1      -2.403  11.545  17.348  0.00  0.00    +0.000 A 
ATOM     26  C   UNL     1      -2.145  10.179  17.250  0.00  0.00    +0.000 A 
ATOM     27  C   UNL     1      -1.131   9.582  18.014  0.00  0.00    +0.000 A 
ATOM     28  C   UNL     1      -0.373  10.384  18.889  0.00  0.00    +0.000 A 
ATOM     29  H   UNL     1       0.330  13.206  20.173  0.00  0.00    +0.000 HD
ENDBRANCH  19  20
ENDBRANCH   2  19
TORSDOF 3
ENDMDL
MODEL 4
REMARK VINA RESULT:      -9.2      1.856      3.970
REMARK  Name = 
REMARK  3 active torsions:
REMARK  status: ('A' for Active; 'I' for Inactive)
REMARK    1  A    between atoms: C_2  and  C_3
REMARK    2  A    between atoms: C_3  and  C_4
REMARK    3  A    between atoms: N_13  and  C_14
REMARK                            x       y       z     vdW  Elec       q    Type
REMARK                         _______ _______ _______ _____ _____    ______ ____
ROOT
ATOM      1  O   UNL     1       1.949   8.704  17.805  0.00  0.00    +0.000 OA
ATOM      2  C   UNL     1       1.920   8.127  18.894  0.00  0.00    +0.000 C 
ATOM      3  N   UNL     1       2.426   6.863  19.060  0.00  0.00    +0.000 N 
ATOM      4  H   UNL     1       2.130   6.397  19.922  0.00  0.00    +0.000 HD
ENDROOT
BRANCH   3   5
ATOM      5  C   UNL     1       2.861   6.018  17.953  0.00  0.00    +0.000 C 
ATOM      6  C   UNL     1       4.340   6.223  17.592  0.00  0.00    +0.000 C 
ATOM      7  C   UNL     1       5.318   5.151  18.136  0.00  0.00    +0.000 C 
ATOM      8  C   UNL     1       5.820   4.163  17.040  0.00  0.00    +0.000 C 
ATOM      9  C   UNL     1       7.269   4.540  16.763  0.00  0.00    +0.000 C 
ATOM     10  C   UNL     1       7.771   4.990  18.119  0.00  0.00    +0.000 C 
ATOM     11  C   UNL     1       6.618   5.833  18.647  0.00  0.00    +0.000 C 
ATOM     12  O   UNL     1       4.791   4.386  19.237  0.00  0.00    +0.000 OA
ATOM     13  C   UNL     1       3.555   3.857  18.986  0.00  0.00    +0.000 A 
ATOM     14  C   UNL     1       3.275   2.590  19.489  0.00  0.00    +0.000 A 
ATOM     15  C   UNL     1       2.020   2.020  19.270  0.00  0.00    +0.000 A 
ATOM     16  C   UNL     1       1.047   2.726  18.561  0.00  0.00    +0.000 A 
ATOM     17  C   UNL     1       1.323   4.010  18.088  0.00  0.00    +0.000 A 
ATOM     18  C   UNL     1       2.583   4.585  18.303  0.00  0.00    +0.000 A 
ENDBRANCH   3   5
BRANCH   2  19
ATOM     19  C   UNL     1       1.434   8.850  20.144  0.00  0.00    +0.000 C 
BRANCH  19  20
ATOM     20  C   UNL     1       0.458   9.979  19.988  0.00  0.00    +0.000 A 
ATOM     21  N   UNL     1       0.145  10.505  18.793  0.00  0.00    +0.000 NA
ATOM     22  N   UNL     1      -0.797  11.424  19.076  0.00  0.00    +0.000 N 
ATOM     23  C   UNL     1      -1.122  11.508  20.401  0.00  0.00    +0.000 A 
ATOM     24  C   UNL     1      -2.052  12.304  21.083  0.00  0.00    +0.000 A 
ATOM     25  C   UNL     1      -2.149  12.129  22.467  0.00  0.00    +0.000 A 
ATOM     26  C   UNL     1      -1.347  11.202  23.132  0.00  0.00    +0.000 A 
ATOM     27  C   UNL     1      -0.422  10.416  22.429  0.00  0.00    +0.000 A 
ATOM     28  C   UNL     1      -0.310  10.576  21.035  0.00  0.00    +0.000 A 
ATOM     29  H   UNL     1      -1.196  11.956  18.311  0.00  0.00    +0.000 HD
ENDBRANCH  19  20
ENDBRANCH   2  19
TORSDOF 3
ENDMDL
MODEL 5
REMARK VINA RESULT:      -9.2      1.779      3.976
REMARK  Name = 
REMARK  3 active torsions:
REMARK  status: ('A' for Active; 'I' for Inactive)
REMARK    1  A    between atoms: C_2  and  C_3
REMARK    2  A    between atoms: C_3  and  C_4
REMARK    3  A    between atoms: N_13  and  C_14
REMARK                            x       y       z     vdW  Elec       q    Type
REMARK                         _______ _______ _______ _____ _____    ______ ____
ROOT
ATOM      1  O   UNL     1       2.112   8.798  17.451  0.00  0.00    +0.000 OA
ATOM      2  C   UNL     1       1.982   8.279  18.561  0.00  0.00    +0.000 C 
ATOM      3  N   UNL     1       2.428   7.009  18.827  0.00  0.00    +0.000 N 
ATOM      4  H   UNL     1       2.054   6.598  19.685  0.00  0.00    +0.000 HD
ENDROOT
BRANCH   3   5
ATOM      5  C   UNL     1       2.915   6.095  17.798  0.00  0.00    +0.000 C 
ATOM      6  C   UNL     1       4.409   6.280  17.494  0.00  0.00    +0.000 C 
ATOM      7  C   UNL     1       5.360   5.249  18.151  0.00  0.00    +0.000 C 
ATOM      8  C   UNL     1       5.912   4.193  17.146  0.00  0.00    +0.000 C 
ATOM      9  C   UNL     1       7.373   4.555  16.913  0.00  0.00    +0.000 C 
ATOM     10  C   UNL     1       7.811   5.094  18.259  0.00  0.00    +0.000 C 
ATOM     11  C   UNL     1       6.635   5.965  18.677  0.00  0.00    +0.000 C 
ATOM     12  O   UNL     1       4.782   4.555  19.274  0.00  0.00    +0.000 OA
ATOM     13  C   UNL     1       3.559   4.008  19.001  0.00  0.00    +0.000 A 
ATOM     14  C   UNL     1       3.255   2.775  19.571  0.00  0.00    +0.000 A 
ATOM     15  C   UNL     1       2.011   2.189  19.330  0.00  0.00    +0.000 A 
ATOM     16  C   UNL     1       1.073   2.845  18.533  0.00  0.00    +0.000 A 
ATOM     17  C   UNL     1       1.371   4.096  17.991  0.00  0.00    +0.000 A 
ATOM     18  C   UNL     1       2.620   4.687  18.227  0.00  0.00    +0.000 A 
ENDBRANCH   3   5
BRANCH   2  19
ATOM     19  C   UNL     1       1.430   9.079  19.734  0.00  0.00    +0.000 C 
BRANCH  19  20
ATOM     20  C   UNL     1       0.471  10.199  19.452  0.00  0.00    +0.000 A 
ATOM     21  N   UNL     1      -0.859  10.063  19.580  0.00  0.00    +0.000 NA
ATOM     22  N   UNL     1      -1.341  11.290  19.309  0.00  0.00    +0.000 N 
ATOM     23  C   UNL     1      -0.382  12.222  19.025  0.00  0.00    +0.000 A 
ATOM     24  C   UNL     1      -0.472  13.588  18.724  0.00  0.00    +0.000 A 
ATOM     25  C   UNL     1       0.726  14.271  18.496  0.00  0.00    +0.000 A 
ATOM     26  C   UNL     1       1.953  13.613  18.566  0.00  0.00    +0.000 A 
ATOM     27  C   UNL     1       2.020  12.245  18.869  0.00  0.00    +0.000 A 
ATOM     28  C   UNL     1       0.825  11.539  19.104  0.00  0.00    +0.000 A 
ATOM     29  H   UNL     1      -2.343  11.433  19.350  0.00  0.00    +0.000 HD
ENDBRANCH  19  20
ENDBRANCH   2  19
TORSDOF 3
ENDMDL
MODEL 6
REMARK VINA RESULT:      -9.0      2.317      4.283
REMARK  Name = 
REMARK  3 active torsions:
REMARK  status: ('A' for Active; 'I' for Inactive)
REMARK    1  A    between atoms: C_2  and  C_3
REMARK    2  A    between atoms: C_3  and  C_4
REMARK    3  A    between atoms: N_13  and  C_14
REMARK                            x       y       z     vdW  Elec       q    Type
REMARK                         _______ _______ _______ _____ _____    ______ ____
ROOT
ATOM      1  O   UNL     1       2.926   8.640  16.834  0.00  0.00    +0.000 OA
ATOM      2  C   UNL     1       2.229   8.303  17.793  0.00  0.00    +0.000 C 
ATOM      3  N   UNL     1       2.203   7.012  18.255  0.00  0.00    +0.000 N 
ATOM      4  H   UNL     1       1.421   6.800  18.880  0.00  0.00    +0.000 HD
ENDROOT
BRANCH   3   5
ATOM      5  C   UNL     1       2.830   5.894  17.557  0.00  0.00    +0.000 C 
ATOM      6  C   UNL     1       4.332   6.109  17.316  0.00  0.00    +0.000 C 
ATOM      7  C   UNL     1       5.280   5.375  18.297  0.00  0.00    +0.000 C 
ATOM      8  C   UNL     1       5.979   4.134  17.666  0.00  0.00    +0.000 C 
ATOM      9  C   UNL     1       7.431   4.534  17.442  0.00  0.00    +0.000 C 
ATOM     10  C   UNL     1       7.717   5.453  18.612  0.00  0.00    +0.000 C 
ATOM     11  C   UNL     1       6.460   6.308  18.689  0.00  0.00    +0.000 C 
ATOM     12  O   UNL     1       4.647   4.970  19.526  0.00  0.00    +0.000 OA
ATOM     13  C   UNL     1       3.486   4.273  19.333  0.00  0.00    +0.000 A 
ATOM     14  C   UNL     1       3.206   3.222  20.202  0.00  0.00    +0.000 A 
ATOM     15  C   UNL     1       2.024   2.494  20.050  0.00  0.00    +0.000 A 
ATOM     16  C   UNL     1       1.123   2.831  19.039  0.00  0.00    +0.000 A 
ATOM     17  C   UNL     1       1.395   3.907  18.192  0.00  0.00    +0.000 A 
ATOM     18  C   UNL     1       2.581   4.638  18.340  0.00  0.00    +0.000 A 
ENDBRANCH   3   5
BRANCH   2  19
ATOM     19  C   UNL     1       1.457   9.343  18.597  0.00  0.00    +0.000 C 
BRANCH  19  20
ATOM     20  C   UNL     1       1.177   9.068  20.045  0.00  0.00    +0.000 A 
ATOM     21  N   UNL     1       1.797   8.094  20.731  0.00  0.00    +0.000 NA
ATOM     22  N   UNL     1       1.325   8.224  21.985  0.00  0.00    +0.000 N 
ATOM     23  C   UNL     1       0.436   9.249  22.148  0.00  0.00    +0.000 A 
ATOM     24  C   UNL     1      -0.246   9.719  23.279  0.00  0.00    +0.000 A 
ATOM     25  C   UNL     1      -1.087  10.821  23.105  0.00  0.00    +0.000 A 
ATOM     26  C   UNL     1      -1.238  11.419  21.855  0.00  0.00    +0.000 A 
ATOM     27  C   UNL     1      -0.547  10.933  20.736  0.00  0.00    +0.000 A 
ATOM     28  C   UNL     1       0.308   9.824  20.891  0.00  0.00    +0.000 A 
ATOM     29  H   UNL     1       1.664   7.586  22.695  0.00  0.00    +0.000 HD
ENDBRANCH  19  20
ENDBRANCH   2  19
TORSDOF 3
ENDMDL
MODEL 7
REMARK VINA RESULT:      -8.9      2.673      8.017
REMARK  Name = 
REMARK  3 active torsions:
REMARK  status: ('A' for Active; 'I' for Inactive)
REMARK    1  A    between atoms: C_2  and  C_3
REMARK    2  A    between atoms: C_3  and  C_4
REMARK    3  A    between atoms: N_13  and  C_14
REMARK                            x       y       z     vdW  Elec       q    Type
REMARK                         _______ _______ _______ _____ _____    ______ ____
ROOT
ATOM      1  O   UNL     1       1.683   8.897  17.098  0.00  0.00    +0.000 OA
ATOM      2  C   UNL     1       1.973   8.674  18.275  0.00  0.00    +0.000 C 
ATOM      3  N   UNL     1       1.371   9.343  19.311  0.00  0.00    +0.000 N 
ATOM      4  H   UNL     1       1.855   9.260  20.209  0.00  0.00    +0.000 HD
ENDROOT
BRANCH   3   5
ATOM      5  C   UNL     1       0.490  10.492  19.124  0.00  0.00    +0.000 C 
ATOM      6  C   UNL     1      -0.695  10.500  20.102  0.00  0.00    +0.000 C 
ATOM      7  C   UNL     1      -0.551  11.443  21.322  0.00  0.00    +0.000 C 
ATOM      8  C   UNL     1      -1.423  12.730  21.211  0.00  0.00    +0.000 C 
ATOM      9  C   UNL     1      -2.572  12.548  22.194  0.00  0.00    +0.000 C 
ATOM     10  C   UNL     1      -1.933  11.774  23.329  0.00  0.00    +0.000 C 
ATOM     11  C   UNL     1      -1.087  10.739  22.600  0.00  0.00    +0.000 C 
ATOM     12  O   UNL     1       0.807  11.832  21.602  0.00  0.00    +0.000 OA
ATOM     13  C   UNL     1       1.467  12.321  20.508  0.00  0.00    +0.000 A 
ATOM     14  C   UNL     1       2.355  13.375  20.701  0.00  0.00    +0.000 A 
ATOM     15  C   UNL     1       3.060  13.895  19.614  0.00  0.00    +0.000 A 
ATOM     16  C   UNL     1       2.884  13.347  18.343  0.00  0.00    +0.000 A 
ATOM     17  C   UNL     1       2.016  12.269  18.162  0.00  0.00    +0.000 A 
ATOM     18  C   UNL     1       1.304  11.747  19.250  0.00  0.00    +0.000 A 
ENDBRANCH   3   5
BRANCH   2  19
ATOM     19  C   UNL     1       2.929   7.546  18.641  0.00  0.00    +0.000 C 
BRANCH  19  20
ATOM     20  C   UNL     1       2.379   6.337  19.341  0.00  0.00    +0.000 A 
ATOM     21  N   UNL     1       1.804   6.400  20.553  0.00  0.00    +0.000 NA
ATOM     22  N   UNL     1       1.390   5.141  20.785  0.00  0.00    +0.000 N 
ATOM     23  C   UNL     1       1.658   4.263  19.772  0.00  0.00    +0.000 A 
ATOM     24  C   UNL     1       1.372   2.900  19.620  0.00  0.00    +0.000 A 
ATOM     25  C   UNL     1       1.778   2.291  18.429  0.00  0.00    +0.000 A 
ATOM     26  C   UNL     1       2.441   3.016  17.441  0.00  0.00    +0.000 A 
ATOM     27  C   UNL     1       2.717   4.381  17.613  0.00  0.00    +0.000 A 
ATOM     28  C   UNL     1       2.315   5.014  18.805  0.00  0.00    +0.000 A 
ATOM     29  H   UNL     1       0.912   4.944  21.657  0.00  0.00    +0.000 HD
ENDBRANCH  19  20
ENDBRANCH   2  19
TORSDOF 3
ENDMDL
MODEL 8
REMARK VINA RESULT:      -8.9      2.493      4.276
REMARK  Name = 
REMARK  3 active torsions:
REMARK  status: ('A' for Active; 'I' for Inactive)
REMARK    1  A    between atoms: C_2  and  C_3
REMARK    2  A    between atoms: C_3  and  C_4
REMARK    3  A    between atoms: N_13  and  C_14
REMARK                            x       y       z     vdW  Elec       q    Type
REMARK                         _______ _______ _______ _____ _____    ______ ____
ROOT
ATOM      1  O   UNL     1       1.149   8.860  19.255  0.00  0.00    +0.000 OA
ATOM      2  C   UNL     1       1.660   8.370  20.263  0.00  0.00    +0.000 C 
ATOM      3  N   UNL     1       2.246   7.130  20.252  0.00  0.00    +0.000 N 
ATOM      4  H   UNL     1       2.411   6.729  21.178  0.00  0.00    +0.000 HD
ENDROOT
BRANCH   3   5
ATOM      5  C   UNL     1       2.155   6.207  19.125  0.00  0.00    +0.000 C 
ATOM      6  C   UNL     1       3.276   6.412  18.094  0.00  0.00    +0.000 C 
ATOM      7  C   UNL     1       4.453   5.408  18.175  0.00  0.00    +0.000 C 
ATOM      8  C   UNL     1       4.434   4.345  17.035  0.00  0.00    +0.000 C 
ATOM      9  C   UNL     1       5.558   4.727  16.082  0.00  0.00    +0.000 C 
ATOM     10  C   UNL     1       6.614   5.296  17.008  0.00  0.00    +0.000 C 
ATOM     11  C   UNL     1       5.800   6.154  17.966  0.00  0.00    +0.000 C 
ATOM     12  O   UNL     1       4.551   4.724  19.438  0.00  0.00    +0.000 OA
ATOM     13  C   UNL     1       3.374   4.151  19.837  0.00  0.00    +0.000 A 
ATOM     14  C   UNL     1       3.435   2.924  20.489  0.00  0.00    +0.000 A 
ATOM     15  C   UNL     1       2.258   2.312  20.926  0.00  0.00    +0.000 A 
ATOM     16  C   UNL     1       1.029   2.939  20.721  0.00  0.00    +0.000 A 
ATOM     17  C   UNL     1       0.977   4.186  20.096  0.00  0.00    +0.000 A 
ATOM     18  C   UNL     1       2.156   4.801  19.652  0.00  0.00    +0.000 A 
ENDBRANCH   3   5
BRANCH   2  19
ATOM     19  C   UNL     1       1.779   9.181  21.548  0.00  0.00    +0.000 C 
BRANCH  19  20
ATOM     20  C   UNL     1       0.539   9.800  22.124  0.00  0.00    +0.000 A 
ATOM     21  N   UNL     1      -0.077   9.311  23.212  0.00  0.00    +0.000 NA
ATOM     22  N   UNL     1      -1.083  10.177  23.437  0.00  0.00    +0.000 N 
ATOM     23  C   UNL     1      -1.140  11.216  22.550  0.00  0.00    +0.000 A 
ATOM     24  C   UNL     1      -2.003  12.316  22.460  0.00  0.00    +0.000 A 
ATOM     25  C   UNL     1      -1.774  13.223  21.421  0.00  0.00    +0.000 A 
ATOM     26  C   UNL     1      -0.731  13.032  20.517  0.00  0.00    +0.000 A 
ATOM     27  C   UNL     1       0.121  11.923  20.625  0.00  0.00    +0.000 A 
ATOM     28  C   UNL     1      -0.091  10.998  21.666  0.00  0.00    +0.000 A 
ATOM     29  H   UNL     1      -1.693  10.011  24.228  0.00  0.00    +0.000 HD
ENDBRANCH  19  20
ENDBRANCH   2  19
TORSDOF 3
ENDMDL
MODEL 9
REMARK VINA RESULT:      -8.8      2.498      4.288
REMARK  Name = 
REMARK  3 active torsions:
REMARK  status: ('A' for Active; 'I' for Inactive)
REMARK    1  A    between atoms: C_2  and  C_3
REMARK    2  A    between atoms: C_3  and  C_4
REMARK    3  A    between atoms: N_13  and  C_14
REMARK                            x       y       z     vdW  Elec       q    Type
REMARK                         _______ _______ _______ _____ _____    ______ ____
ROOT
ATOM      1  O   UNL     1       1.300   8.701  17.753  0.00  0.00    +0.000 OA
ATOM      2  C   UNL     1       1.796   8.501  18.864  0.00  0.00    +0.000 C 
ATOM      3  N   UNL     1       2.456   7.337  19.166  0.00  0.00    +0.000 N 
ATOM      4  H   UNL     1       2.605   7.180  20.166  0.00  0.00    +0.000 HD
ENDROOT
BRANCH   3   5
ATOM      5  C   UNL     1       2.468   6.168  18.292  0.00  0.00    +0.000 C 
ATOM      6  C   UNL     1       3.702   6.120  17.378  0.00  0.00    +0.000 C 
ATOM      7  C   UNL     1       4.836   5.168  17.833  0.00  0.00    +0.000 C 
ATOM      8  C   UNL     1       4.918   3.861  16.988  0.00  0.00    +0.000 C 
ATOM      9  C   UNL     1       6.151   4.003  16.107  0.00  0.00    +0.000 C 
ATOM     10  C   UNL     1       7.111   4.781  16.984  0.00  0.00    +0.000 C 
ATOM     11  C   UNL     1       6.217   5.844  17.606  0.00  0.00    +0.000 C 
ATOM     12  O   UNL     1       4.774   4.811  19.227  0.00  0.00    +0.000 OA
ATOM     13  C   UNL     1       3.546   4.349  19.613  0.00  0.00    +0.000 A 
ATOM     14  C   UNL     1       3.502   3.316  20.545  0.00  0.00    +0.000 A 
ATOM     15  C   UNL     1       2.268   2.827  20.978  0.00  0.00    +0.000 A 
ATOM     16  C   UNL     1       1.086   3.382  20.488  0.00  0.00    +0.000 A 
ATOM     17  C   UNL     1       1.137   4.440  19.579  0.00  0.00    +0.000 A 
ATOM     18  C   UNL     1       2.373   4.933  19.139  0.00  0.00    +0.000 A 
ENDBRANCH   3   5
BRANCH   2  19
ATOM     19  C   UNL     1       1.812   9.601  19.918  0.00  0.00    +0.000 C 
BRANCH  19  20
ATOM     20  C   UNL     1       0.736   9.608  20.965  0.00  0.00    +0.000 A 
ATOM     21  N   UNL     1       0.307   8.489  21.570  0.00  0.00    +0.000 NA
ATOM     22  N   UNL     1      -0.591   8.928  22.472  0.00  0.00    +0.000 N 
ATOM     23  C   UNL     1      -0.755  10.285  22.489  0.00  0.00    +0.000 A 
ATOM     24  C   UNL     1      -1.558  11.116  23.281  0.00  0.00    +0.000 A 
ATOM     25  C   UNL     1      -1.477  12.492  23.049  0.00  0.00    +0.000 A 
ATOM     26  C   UNL     1      -0.632  13.007  22.068  0.00  0.00    +0.000 A 
ATOM     27  C   UNL     1       0.164  12.157  21.286  0.00  0.00    +0.000 A 
ATOM     28  C   UNL     1       0.098  10.767  21.504  0.00  0.00    +0.000 A 
ATOM     29  H   UNL     1      -1.052   8.247  23.063  0.00  0.00    +0.000 HD
ENDBRANCH  19  20
ENDBRANCH   2  19
TORSDOF 3
ENDMDL
