MODEL 1
REMARK VINA RESULT:      -7.9      0.000      0.000
REMARK  Name = 
REMARK  2 active torsions:
REMARK  status: ('A' for Active; 'I' for Inactive)
REMARK    1  A    between atoms: C_1  and  N_2
REMARK    2  A    between atoms: C_7  and  C_8
REMARK                            x       y       z     vdW  Elec       q    Type
REMARK                         _______ _______ _______ _____ _____    ______ ____
ROOT
ATOM      1  C   UNL     1       2.334   6.171  20.000  0.00  0.00    +0.000 C 
ATOM      2  O   UNL     1       1.839   5.370  20.784  0.00  0.00    +0.000 OA
ATOM      3  N   UNL     1       2.025   7.537  20.017  0.00  0.00    +0.000 N 
ATOM      4  C   UNL     1       1.273   8.055  21.160  0.00  0.00    +0.000 C 
ATOM      5  C   UNL     1       0.452   9.297  20.865  0.00  0.00    +0.000 A 
ATOM      6  C   UNL     1      -0.358   9.839  21.875  0.00  0.00    +0.000 A 
ATOM      7  C   UNL     1      -1.127  10.983  21.638  0.00  0.00    +0.000 A 
ATOM      8  C   UNL     1      -1.103  11.600  20.390  0.00  0.00    +0.000 A 
ATOM      9  C   UNL     1      -0.302  11.080  19.380  0.00  0.00    +0.000 A 
ATOM     10  C   UNL     1       0.486   9.941  19.612  0.00  0.00    +0.000 A 
ATOM     11  C   UNL     1       1.343   9.414  18.495  0.00  0.00    +0.000 C 
ATOM     12  F   UNL     1       1.926  10.416  17.765  0.00  0.00    +0.000 F 
ATOM     13  F   UNL     1       0.625   8.685  17.593  0.00  0.00    +0.000 F 
ATOM     14  C   UNL     1       2.472   8.540  19.038  0.00  0.00    +0.000 C 
ENDROOT
BRANCH   1  21
ATOM     15  C   UNL     1       6.323   3.605  15.267  0.00  0.00    +0.000 C 
ATOM     16  N   UNL     1       6.283   4.204  16.576  0.00  0.00    +0.000 N 
ATOM     17  C   UNL     1       7.353   4.479  17.375  0.00  0.00    +0.000 A 
ATOM     18  N   UNL     1       6.977   5.006  18.520  0.00  0.00    +0.000 NA
ATOM     19  C   UNL     1       5.608   5.117  18.440  0.00  0.00    +0.000 A 
ATOM     20  C   UNL     1       4.687   5.621  19.376  0.00  0.00    +0.000 A 
ATOM     21  C   UNL     1       3.329   5.650  19.019  0.00  0.00    +0.000 A 
ATOM     22  C   UNL     1       2.921   5.247  17.738  0.00  0.00    +0.000 A 
ATOM     23  C   UNL     1       3.810   4.668  16.834  0.00  0.00    +0.000 A 
ATOM     24  C   UNL     1       5.150   4.635  17.217  0.00  0.00    +0.000 A 
ENDBRANCH   1  21
TORSDOF 1
ENDMDL
MODEL 2
REMARK VINA RESULT:      -7.8      3.701      9.130
REMARK  Name = 
REMARK  2 active torsions:
REMARK  status: ('A' for Active; 'I' for Inactive)
REMARK    1  A    between atoms: C_1  and  N_2
REMARK    2  A    between atoms: C_7  and  C_8
REMARK                            x       y       z     vdW  Elec       q    Type
REMARK                         _______ _______ _______ _____ _____    ______ ____
ROOT
ATOM      1  C   UNL     1      -0.084  10.261  22.683  0.00  0.00    +0.000 C 
ATOM      2  O   UNL     1       0.437   9.828  23.705  0.00  0.00    +0.000 OA
ATOM      3  N   UNL     1       0.127   9.686  21.424  0.00  0.00    +0.000 N 
ATOM      4  C   UNL     1       0.796   8.386  21.368  0.00  0.00    +0.000 C 
ATOM      5  C   UNL     1       1.537   8.113  20.073  0.00  0.00    +0.000 A 
ATOM      6  C   UNL     1       2.267   6.921  19.939  0.00  0.00    +0.000 A 
ATOM      7  C   UNL     1       2.961   6.636  18.759  0.00  0.00    +0.000 A 
ATOM      8  C   UNL     1       2.941   7.537  17.697  0.00  0.00    +0.000 A 
ATOM      9  C   UNL     1       2.218   8.719  17.810  0.00  0.00    +0.000 A 
ATOM     10  C   UNL     1       1.505   9.007  18.985  0.00  0.00    +0.000 A 
ATOM     11  C   UNL     1       0.731  10.293  19.064  0.00  0.00    +0.000 C 
ATOM     12  F   UNL     1       0.107  10.603  17.885  0.00  0.00    +0.000 F 
ATOM     13  F   UNL     1       1.533  11.363  19.336  0.00  0.00    +0.000 F 
ATOM     14  C   UNL     1      -0.353  10.214  20.137  0.00  0.00    +0.000 C 
ENDROOT
BRANCH   1  21
ATOM     15  C   UNL     1      -3.708  15.874  23.197  0.00  0.00    +0.000 C 
ATOM     16  N   UNL     1      -3.714  14.446  23.386  0.00  0.00    +0.000 N 
ATOM     17  C   UNL     1      -4.762  13.691  23.823  0.00  0.00    +0.000 A 
ATOM     18  N   UNL     1      -4.437  12.419  23.908  0.00  0.00    +0.000 NA
ATOM     19  C   UNL     1      -3.136  12.342  23.466  0.00  0.00    +0.000 A 
ATOM     20  C   UNL     1      -2.291  11.227  23.338  0.00  0.00    +0.000 A 
ATOM     21  C   UNL     1      -1.000  11.429  22.819  0.00  0.00    +0.000 A 
ATOM     22  C   UNL     1      -0.601  12.702  22.383  0.00  0.00    +0.000 A 
ATOM     23  C   UNL     1      -1.397  13.829  22.583  0.00  0.00    +0.000 A 
ATOM     24  C   UNL     1      -2.666  13.605  23.114  0.00  0.00    +0.000 A 
ENDBRANCH   1  21
TORSDOF 1
ENDMDL
MODEL 3
REMARK VINA RESULT:      -7.4      2.722      7.716
REMARK  Name = 
REMARK  2 active torsions:
REMARK  status: ('A' for Active; 'I' for Inactive)
REMARK    1  A    between atoms: C_1  and  N_2
REMARK    2  A    between atoms: C_7  and  C_8
REMARK                            x       y       z     vdW  Elec       q    Type
REMARK                         _______ _______ _______ _____ _____    ______ ____
ROOT
ATOM      1  C   UNL     1       2.011   8.065  18.505  0.00  0.00    +0.000 C 
ATOM      2  O   UNL     1       2.137   8.436  17.343  0.00  0.00    +0.000 OA
ATOM      3  N   UNL     1       2.491   6.832  18.962  0.00  0.00    +0.000 N 
ATOM      4  C   UNL     1       3.380   6.073  18.082  0.00  0.00    +0.000 C 
ATOM      5  C   UNL     1       3.360   4.573  18.306  0.00  0.00    +0.000 A 
ATOM      6  C   UNL     1       4.128   3.745  17.472  0.00  0.00    +0.000 A 
ATOM      7  C   UNL     1       4.134   2.358  17.650  0.00  0.00    +0.000 A 
ATOM      8  C   UNL     1       3.373   1.776  18.661  0.00  0.00    +0.000 A 
ATOM      9  C   UNL     1       2.612   2.581  19.500  0.00  0.00    +0.000 A 
ATOM     10  C   UNL     1       2.611   3.976  19.339  0.00  0.00    +0.000 A 
ATOM     11  C   UNL     1       1.779   4.812  20.271  0.00  0.00    +0.000 C 
ATOM     12  F   UNL     1       1.815   4.350  21.561  0.00  0.00    +0.000 F 
ATOM     13  F   UNL     1       0.458   4.810  19.928  0.00  0.00    +0.000 F 
ATOM     14  C   UNL     1       2.272   6.257  20.299  0.00  0.00    +0.000 C 
ENDROOT
BRANCH   1  21
ATOM     15  C   UNL     1      -0.764  12.726  22.439  0.00  0.00    +0.000 C 
ATOM     16  N   UNL     1      -0.452  11.326  22.312  0.00  0.00    +0.000 N 
ATOM     17  C   UNL     1      -0.747  10.345  23.211  0.00  0.00    +0.000 A 
ATOM     18  N   UNL     1      -0.306   9.173  22.808  0.00  0.00    +0.000 NA
ATOM     19  C   UNL     1       0.260   9.399  21.573  0.00  0.00    +0.000 A 
ATOM     20  C   UNL     1       0.877   8.501  20.686  0.00  0.00    +0.000 A 
ATOM     21  C   UNL     1       1.345   8.999  19.458  0.00  0.00    +0.000 A 
ATOM     22  C   UNL     1       1.138  10.343  19.111  0.00  0.00    +0.000 A 
ATOM     23  C   UNL     1       0.605  11.260  20.015  0.00  0.00    +0.000 A 
ATOM     24  C   UNL     1       0.163  10.745  21.233  0.00  0.00    +0.000 A 
ENDBRANCH   1  21
TORSDOF 1
ENDMDL
MODEL 4
REMARK VINA RESULT:      -7.4      3.742      9.043
REMARK  Name = 
REMARK  2 active torsions:
REMARK  status: ('A' for Active; 'I' for Inactive)
REMARK    1  A    between atoms: C_1  and  N_2
REMARK    2  A    between atoms: C_7  and  C_8
REMARK                            x       y       z     vdW  Elec       q    Type
REMARK                         _______ _______ _______ _____ _____    ______ ____
ROOT
ATOM      1  C   UNL     1      -0.196  10.371  22.683  0.00  0.00    +0.000 C 
ATOM      2  O   UNL     1       0.290   9.926  23.717  0.00  0.00    +0.000 OA
ATOM      3  N   UNL     1       0.034   9.794  21.428  0.00  0.00    +0.000 N 
ATOM      4  C   UNL     1       0.678   8.481  21.386  0.00  0.00    +0.000 C 
ATOM      5  C   UNL     1       1.446   8.195  20.109  0.00  0.00    +0.000 A 
ATOM      6  C   UNL     1       2.155   6.989  19.990  0.00  0.00    +0.000 A 
ATOM      7  C   UNL     1       2.873   6.693  18.828  0.00  0.00    +0.000 A 
ATOM      8  C   UNL     1       2.898   7.596  17.768  0.00  0.00    +0.000 A 
ATOM      9  C   UNL     1       2.196   8.792  17.866  0.00  0.00    +0.000 A 
ATOM     10  C   UNL     1       1.460   9.092  19.022  0.00  0.00    +0.000 A 
ATOM     11  C   UNL     1       0.710  10.394  19.086  0.00  0.00    +0.000 C 
ATOM     12  F   UNL     1       0.122  10.718  17.892  0.00  0.00    +0.000 F 
ATOM     13  F   UNL     1       1.526  11.446  19.380  0.00  0.00    +0.000 F 
ATOM     14  C   UNL     1      -0.403  10.334  20.131  0.00  0.00    +0.000 C 
ENDROOT
BRANCH   1  21
ATOM     15  C   UNL     1      -4.691  15.303  23.294  0.00  0.00    +0.000 C 
ATOM     16  N   UNL     1      -3.339  14.982  22.916  0.00  0.00    +0.000 N 
ATOM     17  C   UNL     1      -2.386  15.859  22.487  0.00  0.00    +0.000 A 
ATOM     18  N   UNL     1      -1.260  15.244  22.199  0.00  0.00    +0.000 NA
ATOM     19  C   UNL     1      -1.479  13.918  22.496  0.00  0.00    +0.000 A 
ATOM     20  C   UNL     1      -0.616  12.814  22.387  0.00  0.00    +0.000 A 
ATOM     21  C   UNL     1      -1.092  11.558  22.798  0.00  0.00    +0.000 A 
ATOM     22  C   UNL     1      -2.372  11.431  23.360  0.00  0.00    +0.000 A 
ATOM     23  C   UNL     1      -3.267  12.500  23.394  0.00  0.00    +0.000 A 
ATOM     24  C   UNL     1      -2.777  13.733  22.966  0.00  0.00    +0.000 A 
ENDBRANCH   1  21
TORSDOF 1
ENDMDL
MODEL 5
REMARK VINA RESULT:      -7.3      2.577      7.706
REMARK  Name = 
REMARK  2 active torsions:
REMARK  status: ('A' for Active; 'I' for Inactive)
REMARK    1  A    between atoms: C_1  and  N_2
REMARK    2  A    between atoms: C_7  and  C_8
REMARK                            x       y       z     vdW  Elec       q    Type
REMARK                         _______ _______ _______ _____ _____    ______ ____
ROOT
ATOM      1  C   UNL     1       1.953   8.800  18.254  0.00  0.00    +0.000 C 
ATOM      2  O   UNL     1       2.042   9.400  17.188  0.00  0.00    +0.000 OA
ATOM      3  N   UNL     1       2.641   7.608  18.511  0.00  0.00    +0.000 N 
ATOM      4  C   UNL     1       3.681   7.199  17.566  0.00  0.00    +0.000 C 
ATOM      5  C   UNL     1       3.935   5.704  17.515  0.00  0.00    +0.000 A 
ATOM      6  C   UNL     1       4.868   5.199  16.596  0.00  0.00    +0.000 A 
ATOM      7  C   UNL     1       5.128   3.827  16.522  0.00  0.00    +0.000 A 
ATOM      8  C   UNL     1       4.459   2.939  17.360  0.00  0.00    +0.000 A 
ATOM      9  C   UNL     1       3.537   3.423  18.281  0.00  0.00    +0.000 A 
ATOM     10  C   UNL     1       3.280   4.800  18.374  0.00  0.00    +0.000 A 
ATOM     11  C   UNL     1       2.279   5.283  19.386  0.00  0.00    +0.000 C 
ATOM     12  F   UNL     1       2.362   4.600  20.571  0.00  0.00    +0.000 F 
ATOM     13  F   UNL     1       0.993   5.111  18.965  0.00  0.00    +0.000 F 
ATOM     14  C   UNL     1       2.493   6.761  19.705  0.00  0.00    +0.000 C 
ENDROOT
BRANCH   1  21
ATOM     15  C   UNL     1      -2.030  11.963  22.616  0.00  0.00    +0.000 C 
ATOM     16  N   UNL     1      -1.059  10.913  22.456  0.00  0.00    +0.000 N 
ATOM     17  C   UNL     1      -0.608  10.069  23.429  0.00  0.00    +0.000 A 
ATOM     18  N   UNL     1       0.296   9.235  22.963  0.00  0.00    +0.000 NA
ATOM     19  C   UNL     1       0.402   9.522  21.620  0.00  0.00    +0.000 A 
ATOM     20  C   UNL     1       1.212   8.934  20.634  0.00  0.00    +0.000 A 
ATOM     21  C   UNL     1       1.096   9.403  19.314  0.00  0.00    +0.000 A 
ATOM     22  C   UNL     1       0.148  10.386  18.991  0.00  0.00    +0.000 A 
ATOM     23  C   UNL     1      -0.600  11.036  19.972  0.00  0.00    +0.000 A 
ATOM     24  C   UNL     1      -0.455  10.563  21.275  0.00  0.00    +0.000 A 
ENDBRANCH   1  21
TORSDOF 1
ENDMDL
MODEL 6
REMARK VINA RESULT:      -7.3      4.160      9.418
REMARK  Name = 
REMARK  2 active torsions:
REMARK  status: ('A' for Active; 'I' for Inactive)
REMARK    1  A    between atoms: C_1  and  N_2
REMARK    2  A    between atoms: C_7  and  C_8
REMARK                            x       y       z     vdW  Elec       q    Type
REMARK                         _______ _______ _______ _____ _____    ______ ____
ROOT
ATOM      1  C   UNL     1      -0.842  11.968  19.903  0.00  0.00    +0.000 C 
ATOM      2  O   UNL     1      -1.291  12.314  18.816  0.00  0.00    +0.000 OA
ATOM      3  N   UNL     1       0.191  11.032  20.033  0.00  0.00    +0.000 N 
ATOM      4  C   UNL     1       0.916  10.639  18.824  0.00  0.00    +0.000 C 
ATOM      5  C   UNL     1       1.538   9.257  18.882  0.00  0.00    +0.000 A 
ATOM      6  C   UNL     1       2.202   8.756  17.751  0.00  0.00    +0.000 A 
ATOM      7  C   UNL     1       2.786   7.486  17.769  0.00  0.00    +0.000 A 
ATOM      8  C   UNL     1       2.715   6.696  18.914  0.00  0.00    +0.000 A 
ATOM      9  C   UNL     1       2.068   7.179  20.044  0.00  0.00    +0.000 A 
ATOM     10  C   UNL     1       1.490   8.458  20.041  0.00  0.00    +0.000 A 
ATOM     11  C   UNL     1       0.804   8.946  21.287  0.00  0.00    +0.000 C 
ATOM     12  F   UNL     1       1.471   8.584  22.428  0.00  0.00    +0.000 F 
ATOM     13  F   UNL     1      -0.449   8.424  21.425  0.00  0.00    +0.000 F 
ATOM     14  C   UNL     1       0.699  10.470  21.294  0.00  0.00    +0.000 C 
ENDROOT
BRANCH   1  21
ATOM     15  C   UNL     1      -2.925  15.230  25.373  0.00  0.00    +0.000 C 
ATOM     16  N   UNL     1      -3.143  14.081  24.532  0.00  0.00    +0.000 N 
ATOM     17  C   UNL     1      -4.106  13.129  24.693  0.00  0.00    +0.000 A 
ATOM     18  N   UNL     1      -4.023  12.198  23.768  0.00  0.00    +0.000 NA
ATOM     19  C   UNL     1      -2.988  12.587  22.948  0.00  0.00    +0.000 A 
ATOM     20  C   UNL     1      -2.468  11.970  21.797  0.00  0.00    +0.000 A 
ATOM     21  C   UNL     1      -1.416  12.610  21.120  0.00  0.00    +0.000 A 
ATOM     22  C   UNL     1      -0.950  13.862  21.552  0.00  0.00    +0.000 A 
ATOM     23  C   UNL     1      -1.398  14.442  22.737  0.00  0.00    +0.000 A 
ATOM     24  C   UNL     1      -2.431  13.781  23.400  0.00  0.00    +0.000 A 
ENDBRANCH   1  21
TORSDOF 1
ENDMDL
MODEL 7
REMARK VINA RESULT:      -7.2      2.298      3.375
REMARK  Name = 
REMARK  2 active torsions:
REMARK  status: ('A' for Active; 'I' for Inactive)
REMARK    1  A    between atoms: C_1  and  N_2
REMARK    2  A    between atoms: C_7  and  C_8
REMARK                            x       y       z     vdW  Elec       q    Type
REMARK                         _______ _______ _______ _____ _____    ______ ____
ROOT
ATOM      1  C   UNL     1       1.718   9.150  18.616  0.00  0.00    +0.000 C 
ATOM      2  O   UNL     1       2.057   9.920  17.724  0.00  0.00    +0.000 OA
ATOM      3  N   UNL     1       0.721   9.463  19.548  0.00  0.00    +0.000 N 
ATOM      4  C   UNL     1      -0.104  10.646  19.299  0.00  0.00    +0.000 C 
ATOM      5  C   UNL     1      -0.688  11.282  20.546  0.00  0.00    +0.000 A 
ATOM      6  C   UNL     1      -1.443  12.460  20.425  0.00  0.00    +0.000 A 
ATOM      7  C   UNL     1      -1.996  13.073  21.554  0.00  0.00    +0.000 A 
ATOM      8  C   UNL     1      -1.803  12.523  22.818  0.00  0.00    +0.000 A 
ATOM      9  C   UNL     1      -1.065  11.354  22.955  0.00  0.00    +0.000 A 
ATOM     10  C   UNL     1      -0.517  10.722  21.827  0.00  0.00    +0.000 A 
ATOM     11  C   UNL     1       0.271   9.456  22.018  0.00  0.00    +0.000 C 
ATOM     12  F   UNL     1      -0.281   8.634  22.965  0.00  0.00    +0.000 F 
ATOM     13  F   UNL     1       1.542   9.698  22.450  0.00  0.00    +0.000 F 
ATOM     14  C   UNL     1       0.343   8.655  20.719  0.00  0.00    +0.000 C 
ENDROOT
BRANCH   1  21
ATOM     15  C   UNL     1       4.561   3.140  19.447  0.00  0.00    +0.000 C 
ATOM     16  N   UNL     1       4.428   4.267  18.561  0.00  0.00    +0.000 N 
ATOM     17  C   UNL     1       5.001   4.404  17.331  0.00  0.00    +0.000 A 
ATOM     18  N   UNL     1       4.701   5.563  16.786  0.00  0.00    +0.000 NA
ATOM     19  C   UNL     1       3.862   6.185  17.683  0.00  0.00    +0.000 A 
ATOM     20  C   UNL     1       3.233   7.440  17.611  0.00  0.00    +0.000 A 
ATOM     21  C   UNL     1       2.388   7.819  18.668  0.00  0.00    +0.000 A 
ATOM     22  C   UNL     1       2.134   6.935  19.728  0.00  0.00    +0.000 A 
ATOM     23  C   UNL     1       2.816   5.726  19.853  0.00  0.00    +0.000 A 
ATOM     24  C   UNL     1       3.661   5.378  18.801  0.00  0.00    +0.000 A 
ENDBRANCH   1  21
TORSDOF 1
ENDMDL
MODEL 8
REMARK VINA RESULT:      -7.2      2.781      7.874
REMARK  Name = 
REMARK  2 active torsions:
REMARK  status: ('A' for Active; 'I' for Inactive)
REMARK    1  A    between atoms: C_1  and  N_2
REMARK    2  A    between atoms: C_7  and  C_8
REMARK                            x       y       z     vdW  Elec       q    Type
REMARK                         _______ _______ _______ _____ _____    ______ ____
ROOT
ATOM      1  C   UNL     1       2.106   7.842  18.693  0.00  0.00    +0.000 C 
ATOM      2  O   UNL     1       2.389   8.287  17.586  0.00  0.00    +0.000 OA
ATOM      3  N   UNL     1       2.517   6.575  19.127  0.00  0.00    +0.000 N 
ATOM      4  C   UNL     1       3.514   5.865  18.325  0.00  0.00    +0.000 C 
ATOM      5  C   UNL     1       3.460   4.354  18.444  0.00  0.00    +0.000 A 
ATOM      6  C   UNL     1       4.331   3.574  17.667  0.00  0.00    +0.000 A 
ATOM      7  C   UNL     1       4.309   2.178  17.753  0.00  0.00    +0.000 A 
ATOM      8  C   UNL     1       3.417   1.540  18.611  0.00  0.00    +0.000 A 
ATOM      9  C   UNL     1       2.553   2.298  19.392  0.00  0.00    +0.000 A 
ATOM     10  C   UNL     1       2.577   3.700  19.325  0.00  0.00    +0.000 A 
ATOM     11  C   UNL     1       1.630   4.482  20.192  0.00  0.00    +0.000 C 
ATOM     12  F   UNL     1       1.490   3.937  21.441  0.00  0.00    +0.000 F 
ATOM     13  F   UNL     1       0.367   4.518  19.675  0.00  0.00    +0.000 F 
ATOM     14  C   UNL     1       2.119   5.917  20.381  0.00  0.00    +0.000 C 
ENDROOT
BRANCH   1  21
ATOM     15  C   UNL     1      -1.379  11.331  23.229  0.00  0.00    +0.000 C 
ATOM     16  N   UNL     1      -0.977  11.267  21.847  0.00  0.00    +0.000 N 
ATOM     17  C   UNL     1      -1.288  12.165  20.869  0.00  0.00    +0.000 A 
ATOM     18  N   UNL     1      -0.785  11.806  19.708  0.00  0.00    +0.000 NA
ATOM     19  C   UNL     1      -0.080  10.650  19.954  0.00  0.00    +0.000 A 
ATOM     20  C   UNL     1       0.662   9.841  19.077  0.00  0.00    +0.000 A 
ATOM     21  C   UNL     1       1.321   8.719  19.607  0.00  0.00    +0.000 A 
ATOM     22  C   UNL     1       1.285   8.459  20.986  0.00  0.00    +0.000 A 
ATOM     23  C   UNL     1       0.484   9.202  21.851  0.00  0.00    +0.000 A 
ATOM     24  C   UNL     1      -0.172  10.301  21.300  0.00  0.00    +0.000 A 
ENDBRANCH   1  21
TORSDOF 1
ENDMDL
MODEL 9
REMARK VINA RESULT:      -7.1      2.693      3.529
REMARK  Name = 
REMARK  2 active torsions:
REMARK  status: ('A' for Active; 'I' for Inactive)
REMARK    1  A    between atoms: C_1  and  N_2
REMARK    2  A    between atoms: C_7  and  C_8
REMARK                            x       y       z     vdW  Elec       q    Type
REMARK                         _______ _______ _______ _____ _____    ______ ____
ROOT
ATOM      1  C   UNL     1       2.142   8.254  18.355  0.00  0.00    +0.000 C 
ATOM      2  O   UNL     1       2.684   8.841  17.425  0.00  0.00    +0.000 OA
ATOM      3  N   UNL     1       1.188   8.862  19.181  0.00  0.00    +0.000 N 
ATOM      4  C   UNL     1       0.651  10.159  18.769  0.00  0.00    +0.000 C 
ATOM      5  C   UNL     1       0.154  11.028  19.909  0.00  0.00    +0.000 A 
ATOM      6  C   UNL     1      -0.322  12.319  19.630  0.00  0.00    +0.000 A 
ATOM      7  C   UNL     1      -0.789  13.146  20.656  0.00  0.00    +0.000 A 
ATOM      8  C   UNL     1      -0.784  12.700  21.975  0.00  0.00    +0.000 A 
ATOM      9  C   UNL     1      -0.323  11.423  22.269  0.00  0.00    +0.000 A 
ATOM     10  C   UNL     1       0.134  10.578  21.244  0.00  0.00    +0.000 A 
ATOM     11  C   UNL     1       0.620   9.202  21.603  0.00  0.00    +0.000 C 
ATOM     12  F   UNL     1      -0.144   8.614  22.577  0.00  0.00    +0.000 F 
ATOM     13  F   UNL     1       1.889   9.216  22.103  0.00  0.00    +0.000 F 
ATOM     14  C   UNL     1       0.586   8.275  20.388  0.00  0.00    +0.000 C 
ENDROOT
BRANCH   1  21
ATOM     15  C   UNL     1       4.288   2.035  19.625  0.00  0.00    +0.000 C 
ATOM     16  N   UNL     1       3.329   2.824  18.895  0.00  0.00    +0.000 N 
ATOM     17  C   UNL     1       2.349   2.353  18.072  0.00  0.00    +0.000 A 
ATOM     18  N   UNL     1       1.654   3.334  17.539  0.00  0.00    +0.000 NA
ATOM     19  C   UNL     1       2.179   4.489  18.074  0.00  0.00    +0.000 A 
ATOM     20  C   UNL     1       1.815   5.829  17.861  0.00  0.00    +0.000 A 
ATOM     21  C   UNL     1       2.505   6.825  18.573  0.00  0.00    +0.000 A 
ATOM     22  C   UNL     1       3.484   6.475  19.516  0.00  0.00    +0.000 A 
ATOM     23  C   UNL     1       3.913   5.158  19.674  0.00  0.00    +0.000 A 
ATOM     24  C   UNL     1       3.224   4.190  18.945  0.00  0.00    +0.000 A 
ENDBRANCH   1  21
TORSDOF 1
ENDMDL
