MODEL 1
REMARK VINA RESULT:      -8.8      0.000      0.000
REMARK  Name = 
REMARK  5 active torsions:
REMARK  status: ('A' for Active; 'I' for Inactive)
REMARK    1  A    between atoms: C_2  and  C_3
REMARK    2  A    between atoms: C_3  and  N_4
REMARK    3  A    between atoms: N_15  and  C_16
REMARK    4  A    between atoms: C_16  and  C_17
REMARK    5  A    between atoms: C_16  and  C_23
REMARK                            x       y       z     vdW  Elec       q    Type
REMARK                         _______ _______ _______ _____ _____    ______ ____
ROOT
ATOM      1  O   UNL     1       1.727   8.203  20.869  0.00  0.00    +0.000 OA
ATOM      2  C   UNL     1       1.778   8.422  19.665  0.00  0.00    +0.000 C 
ATOM      3  N   UNL     1       2.508   7.662  18.776  0.00  0.00    +0.000 N 
ATOM      4  H   UNL     1       2.698   8.072  17.870  0.00  0.00    +0.000 HD
ENDROOT
BRANCH   2   5
ATOM      5  C   UNL     1       1.023   9.584  19.002  0.00  0.00    +0.000 C 
BRANCH   5   6
ATOM      6  N   UNL     1       0.079  10.289  19.858  0.00  0.00    +0.000 N 
ATOM      7  C   UNL     1      -1.185  10.573  19.423  0.00  0.00    +0.000 C 
ATOM      8  O   UNL     1      -1.722  10.138  18.414  0.00  0.00    +0.000 OA
ATOM      9  C   UNL     1      -1.805  11.632  20.297  0.00  0.00    +0.000 C 
ATOM     10  C   UNL     1      -0.693  12.002  21.279  0.00  0.00    +0.000 C 
ATOM     11  C   UNL     1      -1.046  11.660  22.728  0.00  0.00    +0.000 C 
ATOM     12  C   UNL     1      -1.714  12.915  23.287  0.00  0.00    +0.000 C 
ATOM     13  C   UNL     1      -1.234  14.086  22.438  0.00  0.00    +0.000 C 
ATOM     14  C   UNL     1      -0.368  13.499  21.333  0.00  0.00    +0.000 C 
ATOM     15  C   UNL     1       0.499  11.222  20.756  0.00  0.00    +0.000 C 
ATOM     16  O   UNL     1       1.669  11.461  21.027  0.00  0.00    +0.000 OA
ENDBRANCH   5   6
ENDBRANCH   2   5
BRANCH   3  17
ATOM     17  C   UNL     1       3.256   6.462  19.130  0.00  0.00    +0.000 C 
BRANCH  17  18
ATOM     18  C   UNL     1       4.354   6.115  18.117  0.00  0.00    +0.000 A 
ATOM     19  C   UNL     1       5.265   5.081  18.407  0.00  0.00    +0.000 A 
ATOM     20  C   UNL     1       6.174   4.634  17.441  0.00  0.00    +0.000 A 
ATOM     21  C   UNL     1       6.185   5.214  16.175  0.00  0.00    +0.000 A 
ATOM     22 CL   UNL     1       7.261   4.630  14.968  0.00  0.00    +0.000 Cl
ATOM     23  C   UNL     1       5.309   6.250  15.873  0.00  0.00    +0.000 A 
ATOM     24  C   UNL     1       4.401   6.693  16.836  0.00  0.00    +0.000 A 
ENDBRANCH  17  18
BRANCH  17  25
ATOM     25  C   UNL     1       2.295   5.277  19.280  0.00  0.00    +0.000 A 
ATOM     26  C   UNL     1       1.824   4.574  18.156  0.00  0.00    +0.000 A 
ATOM     27  C   UNL     1       1.045   3.425  18.300  0.00  0.00    +0.000 A 
ATOM     28  C   UNL     1       0.713   2.964  19.572  0.00  0.00    +0.000 A 
ATOM     29  C   UNL     1       1.144   3.663  20.697  0.00  0.00    +0.000 A 
ATOM     30  C   UNL     1       1.929   4.813  20.558  0.00  0.00    +0.000 A 
ENDBRANCH  17  25
ENDBRANCH   3  17
TORSDOF 5
ENDMDL
MODEL 2
REMARK VINA RESULT:      -8.7      1.609      2.094
REMARK  Name = 
REMARK  5 active torsions:
REMARK  status: ('A' for Active; 'I' for Inactive)
REMARK    1  A    between atoms: C_2  and  C_3
REMARK    2  A    between atoms: C_3  and  N_4
REMARK    3  A    between atoms: N_15  and  C_16
REMARK    4  A    between atoms: C_16  and  C_17
REMARK    5  A    between atoms: C_16  and  C_23
REMARK                            x       y       z     vdW  Elec       q    Type
REMARK                         _______ _______ _______ _____ _____    ______ ____
ROOT
ATOM      1  O   UNL     1       1.709   8.188  21.027  0.00  0.00    +0.000 OA
ATOM      2  C   UNL     1       1.673   8.368  19.815  0.00  0.00    +0.000 C 
ATOM      3  N   UNL     1       2.361   7.596  18.904  0.00  0.00    +0.000 N 
ATOM      4  H   UNL     1       2.480   7.980  17.974  0.00  0.00    +0.000 HD
ENDROOT
BRANCH   2   5
ATOM      5  C   UNL     1       0.847   9.489  19.168  0.00  0.00    +0.000 C 
BRANCH   5   6
ATOM      6  N   UNL     1       1.033  10.816  19.739  0.00  0.00    +0.000 N 
ATOM      7  C   UNL     1       0.086  11.368  20.555  0.00  0.00    +0.000 C 
ATOM      8  O   UNL     1      -0.879  10.795  21.041  0.00  0.00    +0.000 OA
ATOM      9  C   UNL     1       0.309  12.853  20.673  0.00  0.00    +0.000 C 
ATOM     10  C   UNL     1       1.489  13.127  19.739  0.00  0.00    +0.000 C 
ATOM     11  C   UNL     1       2.725  13.638  20.483  0.00  0.00    +0.000 C 
ATOM     12  C   UNL     1       2.597  15.161  20.478  0.00  0.00    +0.000 C 
ATOM     13  C   UNL     1       1.697  15.525  19.304  0.00  0.00    +0.000 C 
ATOM     14  C   UNL     1       1.228  14.213  18.690  0.00  0.00    +0.000 C 
ATOM     15  C   UNL     1       1.711  11.786  19.066  0.00  0.00    +0.000 C 
ATOM     16  O   UNL     1       2.327  11.618  18.021  0.00  0.00    +0.000 OA
ENDBRANCH   5   6
ENDBRANCH   2   5
BRANCH   3  17
ATOM     17  C   UNL     1       3.162   6.426  19.244  0.00  0.00    +0.000 C 
BRANCH  17  18
ATOM     18  C   UNL     1       4.270   6.135  18.224  0.00  0.00    +0.000 A 
ATOM     19  C   UNL     1       5.195   5.105  18.478  0.00  0.00    +0.000 A 
ATOM     20  C   UNL     1       6.115   4.709  17.500  0.00  0.00    +0.000 A 
ATOM     21  C   UNL     1       6.123   5.338  16.258  0.00  0.00    +0.000 A 
ATOM     22 CL   UNL     1       7.214   4.818  15.035  0.00  0.00    +0.000 Cl
ATOM     23  C   UNL     1       5.233   6.372  15.993  0.00  0.00    +0.000 A 
ATOM     24  C   UNL     1       4.314   6.764  16.967  0.00  0.00    +0.000 A 
ENDBRANCH  17  18
BRANCH  17  25
ATOM     25  C   UNL     1       2.253   5.199  19.388  0.00  0.00    +0.000 A 
ATOM     26  C   UNL     1       1.795   4.496  18.258  0.00  0.00    +0.000 A 
ATOM     27  C   UNL     1       1.068   3.313  18.393  0.00  0.00    +0.000 A 
ATOM     28  C   UNL     1       0.774   2.818  19.662  0.00  0.00    +0.000 A 
ATOM     29  C   UNL     1       1.191   3.516  20.792  0.00  0.00    +0.000 A 
ATOM     30  C   UNL     1       1.926   4.700  20.662  0.00  0.00    +0.000 A 
ENDBRANCH  17  25
ENDBRANCH   3  17
TORSDOF 5
ENDMDL
MODEL 3
REMARK VINA RESULT:      -8.6      1.101      1.334
REMARK  Name = 
REMARK  5 active torsions:
REMARK  status: ('A' for Active; 'I' for Inactive)
REMARK    1  A    between atoms: C_2  and  C_3
REMARK    2  A    between atoms: C_3  and  N_4
REMARK    3  A    between atoms: N_15  and  C_16
REMARK    4  A    between atoms: C_16  and  C_17
REMARK    5  A    between atoms: C_16  and  C_23
REMARK                            x       y       z     vdW  Elec       q    Type
REMARK                         _______ _______ _______ _____ _____    ______ ____
ROOT
ATOM      1  O   UNL     1       1.539   8.603  20.177  0.00  0.00    +0.000 OA
ATOM      2  C   UNL     1       1.597   8.610  18.953  0.00  0.00    +0.000 C 
ATOM      3  N   UNL     1       2.383   7.750  18.217  0.00  0.00    +0.000 N 
ATOM      4  H   UNL     1       2.565   8.005  17.254  0.00  0.00    +0.000 HD
ENDROOT
BRANCH   2   5
ATOM      5  C   UNL     1       0.788   9.591  18.091  0.00  0.00    +0.000 C 
BRANCH   5   6
ATOM      6  N   UNL     1       0.125  10.665  18.817  0.00  0.00    +0.000 N 
ATOM      7  C   UNL     1      -1.233  10.811  18.767  0.00  0.00    +0.000 C 
ATOM      8  O   UNL     1      -2.034  10.010  18.307  0.00  0.00    +0.000 OA
ATOM      9  C   UNL     1      -1.620  12.188  19.240  0.00  0.00    +0.000 C 
ATOM     10  C   UNL     1      -0.283  12.879  19.508  0.00  0.00    +0.000 C 
ATOM     11  C   UNL     1      -0.090  13.243  20.981  0.00  0.00    +0.000 C 
ATOM     12  C   UNL     1      -0.648  14.659  21.124  0.00  0.00    +0.000 C 
ATOM     13  C   UNL     1      -0.600  15.294  19.739  0.00  0.00    +0.000 C 
ATOM     14  C   UNL     1      -0.105  14.218  18.782  0.00  0.00    +0.000 C 
ATOM     15  C   UNL     1       0.731  11.869  19.005  0.00  0.00    +0.000 C 
ATOM     16  O   UNL     1       1.895  12.124  18.722  0.00  0.00    +0.000 OA
ENDBRANCH   5   6
ENDBRANCH   2   5
BRANCH   3  17
ATOM     17  C   UNL     1       3.193   6.677  18.782  0.00  0.00    +0.000 C 
BRANCH  17  18
ATOM     18  C   UNL     1       4.353   6.254  17.872  0.00  0.00    +0.000 A 
ATOM     19  C   UNL     1       5.215   5.219  18.282  0.00  0.00    +0.000 A 
ATOM     20  C   UNL     1       6.181   4.702  17.411  0.00  0.00    +0.000 A 
ATOM     21  C   UNL     1       6.298   5.213  16.121  0.00  0.00    +0.000 A 
ATOM     22 CL   UNL     1       7.445   4.543  15.029  0.00  0.00    +0.000 Cl
ATOM     23  C   UNL     1       5.473   6.249  15.702  0.00  0.00    +0.000 A 
ATOM     24  C   UNL     1       4.508   6.761  16.570  0.00  0.00    +0.000 A 
ENDBRANCH  17  18
BRANCH  17  25
ATOM     25  C   UNL     1       2.306   5.465  19.090  0.00  0.00    +0.000 A 
ATOM     26  C   UNL     1       1.827   4.633  18.061  0.00  0.00    +0.000 A 
ATOM     27  C   UNL     1       1.120   3.465  18.351  0.00  0.00    +0.000 A 
ATOM     28  C   UNL     1       0.868   3.114  19.675  0.00  0.00    +0.000 A 
ATOM     29  C   UNL     1       1.306   3.941  20.706  0.00  0.00    +0.000 A 
ATOM     30  C   UNL     1       2.021   5.110  20.421  0.00  0.00    +0.000 A 
ENDBRANCH  17  25
ENDBRANCH   3  17
TORSDOF 5
ENDMDL
MODEL 4
REMARK VINA RESULT:      -8.6      1.819      2.369
REMARK  Name = 
REMARK  5 active torsions:
REMARK  status: ('A' for Active; 'I' for Inactive)
REMARK    1  A    between atoms: C_2  and  C_3
REMARK    2  A    between atoms: C_3  and  N_4
REMARK    3  A    between atoms: N_15  and  C_16
REMARK    4  A    between atoms: C_16  and  C_17
REMARK    5  A    between atoms: C_16  and  C_23
REMARK                            x       y       z     vdW  Elec       q    Type
REMARK                         _______ _______ _______ _____ _____    ______ ____
ROOT
ATOM      1  O   UNL     1       1.815   8.532  21.360  0.00  0.00    +0.000 OA
ATOM      2  C   UNL     1       1.461   8.404  20.194  0.00  0.00    +0.000 C 
ATOM      3  N   UNL     1       1.968   7.451  19.338  0.00  0.00    +0.000 N 
ATOM      4  H   UNL     1       1.814   7.595  18.347  0.00  0.00    +0.000 HD
ENDROOT
BRANCH   2   5
ATOM      5  C   UNL     1       0.397   9.305  19.548  0.00  0.00    +0.000 C 
BRANCH   5   6
ATOM      6  N   UNL     1       0.856  10.626  19.141  0.00  0.00    +0.000 N 
ATOM      7  C   UNL     1       1.829  10.769  18.192  0.00  0.00    +0.000 C 
ATOM      8  O   UNL     1       2.273   9.890  17.468  0.00  0.00    +0.000 OA
ATOM      9  C   UNL     1       2.401  12.162  18.247  0.00  0.00    +0.000 C 
ATOM     10  C   UNL     1       1.680  12.813  19.427  0.00  0.00    +0.000 C 
ATOM     11  C   UNL     1       0.806  13.996  19.006  0.00  0.00    +0.000 C 
ATOM     12  C   UNL     1       1.710  15.224  19.109  0.00  0.00    +0.000 C 
ATOM     13  C   UNL     1       2.820  14.873  20.093  0.00  0.00    +0.000 C 
ATOM     14  C   UNL     1       2.613  13.417  20.484  0.00  0.00    +0.000 C 
ATOM     15  C   UNL     1       0.886  11.665  20.020  0.00  0.00    +0.000 C 
ATOM     16  O   UNL     1       0.423  11.642  21.153  0.00  0.00    +0.000 OA
ENDBRANCH   5   6
ENDBRANCH   2   5
BRANCH   3  17
ATOM     17  C   UNL     1       2.934   6.426  19.715  0.00  0.00    +0.000 C 
BRANCH  17  18
ATOM     18  C   UNL     1       4.049   6.237  18.678  0.00  0.00    +0.000 A 
ATOM     19  C   UNL     1       5.099   5.337  18.944  0.00  0.00    +0.000 A 
ATOM     20  C   UNL     1       6.041   5.022  17.956  0.00  0.00    +0.000 A 
ATOM     21  C   UNL     1       5.945   5.602  16.695  0.00  0.00    +0.000 A 
ATOM     22 CL   UNL     1       7.066   5.175  15.462  0.00  0.00    +0.000 Cl
ATOM     23  C   UNL     1       4.930   6.508  16.416  0.00  0.00    +0.000 A 
ATOM     24  C   UNL     1       3.989   6.820  17.399  0.00  0.00    +0.000 A 
ENDBRANCH  17  18
BRANCH  17  25
ATOM     25  C   UNL     1       2.213   5.095  19.951  0.00  0.00    +0.000 A 
ATOM     26  C   UNL     1       1.602   4.400  18.892  0.00  0.00    +0.000 A 
ATOM     27  C   UNL     1       1.050   3.133  19.087  0.00  0.00    +0.000 A 
ATOM     28  C   UNL     1       1.087   2.543  20.348  0.00  0.00    +0.000 A 
ATOM     29  C   UNL     1       1.660   3.228  21.416  0.00  0.00    +0.000 A 
ATOM     30  C   UNL     1       2.220   4.497  21.225  0.00  0.00    +0.000 A 
ENDBRANCH  17  25
ENDBRANCH   3  17
TORSDOF 5
ENDMDL
MODEL 5
REMARK VINA RESULT:      -8.4      0.883      1.320
REMARK  Name = 
REMARK  5 active torsions:
REMARK  status: ('A' for Active; 'I' for Inactive)
REMARK    1  A    between atoms: C_2  and  C_3
REMARK    2  A    between atoms: C_3  and  N_4
REMARK    3  A    between atoms: N_15  and  C_16
REMARK    4  A    between atoms: C_16  and  C_17
REMARK    5  A    between atoms: C_16  and  C_23
REMARK                            x       y       z     vdW  Elec       q    Type
REMARK                         _______ _______ _______ _____ _____    ______ ____
ROOT
ATOM      1  O   UNL     1       1.664   8.529  20.119  0.00  0.00    +0.000 OA
ATOM      2  C   UNL     1       1.673   8.542  18.893  0.00  0.00    +0.000 C 
ATOM      3  N   UNL     1       2.454   7.707  18.123  0.00  0.00    +0.000 N 
ATOM      4  H   UNL     1       2.590   7.970  17.155  0.00  0.00    +0.000 HD
ENDROOT
BRANCH   2   5
ATOM      5  C   UNL     1       0.803   9.502  18.069  0.00  0.00    +0.000 C 
BRANCH   5   6
ATOM      6  N   UNL     1      -0.129  10.318  18.833  0.00  0.00    +0.000 N 
ATOM      7  C   UNL     1      -1.447  10.396  18.479  0.00  0.00    +0.000 C 
ATOM      8  O   UNL     1      -2.023   9.696  17.659  0.00  0.00    +0.000 OA
ATOM      9  C   UNL     1      -2.090  11.585  19.146  0.00  0.00    +0.000 C 
ATOM     10  C   UNL     1      -0.939  12.258  19.895  0.00  0.00    +0.000 C 
ATOM     11  C   UNL     1      -1.135  12.246  21.412  0.00  0.00    +0.000 C 
ATOM     12  C   UNL     1      -1.870  13.546  21.734  0.00  0.00    +0.000 C 
ATOM     13  C   UNL     1      -1.578  14.513  20.593  0.00  0.00    +0.000 C 
ATOM     14  C   UNL     1      -0.756  13.745  19.569  0.00  0.00    +0.000 C 
ATOM     15  C   UNL     1       0.273  11.467  19.443  0.00  0.00    +0.000 C 
ATOM     16  O   UNL     1       1.433  11.849  19.528  0.00  0.00    +0.000 OA
ENDBRANCH   5   6
ENDBRANCH   2   5
BRANCH   3  17
ATOM     17  C   UNL     1       3.316   6.656  18.650  0.00  0.00    +0.000 C 
BRANCH  17  18
ATOM     18  C   UNL     1       4.425   6.240  17.676  0.00  0.00    +0.000 A 
ATOM     19  C   UNL     1       5.296   5.190  18.023  0.00  0.00    +0.000 A 
ATOM     20  C   UNL     1       6.212   4.681  17.094  0.00  0.00    +0.000 A 
ATOM     21  C   UNL     1       6.270   5.216  15.810  0.00  0.00    +0.000 A 
ATOM     22 CL   UNL     1       7.354   4.557  14.649  0.00  0.00    +0.000 Cl
ATOM     23  C   UNL     1       5.435   6.267  15.453  0.00  0.00    +0.000 A 
ATOM     24  C   UNL     1       4.520   6.772  16.377  0.00  0.00    +0.000 A 
ENDBRANCH  17  18
BRANCH  17  25
ATOM     25  C   UNL     1       2.472   5.434  19.028  0.00  0.00    +0.000 A 
ATOM     26  C   UNL     1       2.166   5.148  20.371  0.00  0.00    +0.000 A 
ATOM     27  C   UNL     1       1.301   4.105  20.706  0.00  0.00    +0.000 A 
ATOM     28  C   UNL     1       0.737   3.320  19.703  0.00  0.00    +0.000 A 
ATOM     29  C   UNL     1       1.052   3.567  18.370  0.00  0.00    +0.000 A 
ATOM     30  C   UNL     1       1.914   4.615  18.029  0.00  0.00    +0.000 A 
ENDBRANCH  17  25
ENDBRANCH   3  17
TORSDOF 5
ENDMDL
MODEL 6
REMARK VINA RESULT:      -8.3      1.119      1.648
REMARK  Name = 
REMARK  5 active torsions:
REMARK  status: ('A' for Active; 'I' for Inactive)
REMARK    1  A    between atoms: C_2  and  C_3
REMARK    2  A    between atoms: C_3  and  N_4
REMARK    3  A    between atoms: N_15  and  C_16
REMARK    4  A    between atoms: C_16  and  C_17
REMARK    5  A    between atoms: C_16  and  C_23
REMARK                            x       y       z     vdW  Elec       q    Type
REMARK                         _______ _______ _______ _____ _____    ______ ____
ROOT
ATOM      1  O   UNL     1       2.037   8.608  20.022  0.00  0.00    +0.000 OA
ATOM      2  C   UNL     1       1.856   8.525  18.812  0.00  0.00    +0.000 C 
ATOM      3  N   UNL     1       2.419   7.551  18.017  0.00  0.00    +0.000 N 
ATOM      4  H   UNL     1       2.428   7.722  17.019  0.00  0.00    +0.000 HD
ENDROOT
BRANCH   2   5
ATOM      5  C   UNL     1       0.968   9.511  18.039  0.00  0.00    +0.000 C 
BRANCH   5   6
ATOM      6  N   UNL     1       0.510  10.668  18.793  0.00  0.00    +0.000 N 
ATOM      7  C   UNL     1       1.323  11.750  18.982  0.00  0.00    +0.000 C 
ATOM      8  O   UNL     1       2.389  11.965  18.424  0.00  0.00    +0.000 OA
ATOM      9  C   UNL     1       0.792  12.605  20.104  0.00  0.00    +0.000 C 
ATOM     10  C   UNL     1      -0.423  11.832  20.617  0.00  0.00    +0.000 C 
ATOM     11  C   UNL     1      -1.735  12.594  20.417  0.00  0.00    +0.000 C 
ATOM     12  C   UNL     1      -1.931  13.402  21.699  0.00  0.00    +0.000 C 
ATOM     13  C   UNL     1      -1.133  12.700  22.791  0.00  0.00    +0.000 C 
ATOM     14  C   UNL     1      -0.402  11.544  22.122  0.00  0.00    +0.000 C 
ATOM     15  C   UNL     1      -0.361  10.535  19.832  0.00  0.00    +0.000 C 
ATOM     16  O   UNL     1      -0.933   9.498  20.142  0.00  0.00    +0.000 OA
ENDBRANCH   5   6
ENDBRANCH   2   5
BRANCH   3  17
ATOM     17  C   UNL     1       3.243   6.452  18.508  0.00  0.00    +0.000 C 
BRANCH  17  18
ATOM     18  C   UNL     1       4.222   5.916  17.456  0.00  0.00    +0.000 A 
ATOM     19  C   UNL     1       4.610   4.563  17.495  0.00  0.00    +0.000 A 
ATOM     20  C   UNL     1       5.372   4.005  16.461  0.00  0.00    +0.000 A 
ATOM     21  C   UNL     1       5.756   4.792  15.378  0.00  0.00    +0.000 A 
ATOM     22 CL   UNL     1       6.643   4.098  14.079  0.00  0.00    +0.000 Cl
ATOM     23  C   UNL     1       5.403   6.135  15.329  0.00  0.00    +0.000 A 
ATOM     24  C   UNL     1       4.641   6.690  16.358  0.00  0.00    +0.000 A 
ENDBRANCH  17  18
BRANCH  17  25
ATOM     25  C   UNL     1       2.347   5.315  19.010  0.00  0.00    +0.000 A 
ATOM     26  C   UNL     1       1.697   4.449  18.112  0.00  0.00    +0.000 A 
ATOM     27  C   UNL     1       0.978   3.344  18.570  0.00  0.00    +0.000 A 
ATOM     28  C   UNL     1       0.885   3.093  19.937  0.00  0.00    +0.000 A 
ATOM     29  C   UNL     1       1.494   3.956  20.843  0.00  0.00    +0.000 A 
ATOM     30  C   UNL     1       2.221   5.062  20.389  0.00  0.00    +0.000 A 
ENDBRANCH  17  25
ENDBRANCH   3  17
TORSDOF 5
ENDMDL
MODEL 7
REMARK VINA RESULT:      -8.2      3.596      8.944
REMARK  Name = 
REMARK  5 active torsions:
REMARK  status: ('A' for Active; 'I' for Inactive)
REMARK    1  A    between atoms: C_2  and  C_3
REMARK    2  A    between atoms: C_3  and  N_4
REMARK    3  A    between atoms: N_15  and  C_16
REMARK    4  A    between atoms: C_16  and  C_17
REMARK    5  A    between atoms: C_16  and  C_23
REMARK                            x       y       z     vdW  Elec       q    Type
REMARK                         _______ _______ _______ _____ _____    ______ ____
ROOT
ATOM      1  O   UNL     1       2.066   7.990  19.989  0.00  0.00    +0.000 OA
ATOM      2  C   UNL     1       2.034   8.332  18.812  0.00  0.00    +0.000 C 
ATOM      3  N   UNL     1       1.296   9.397  18.342  0.00  0.00    +0.000 N 
ATOM      4  H   UNL     1       1.127   9.432  17.344  0.00  0.00    +0.000 HD
ENDROOT
BRANCH   2   5
ATOM      5  C   UNL     1       2.825   7.602  17.717  0.00  0.00    +0.000 C 
BRANCH   5   6
ATOM      6  N   UNL     1       3.445   6.348  18.120  0.00  0.00    +0.000 N 
ATOM      7  C   UNL     1       4.746   6.074  17.802  0.00  0.00    +0.000 C 
ATOM      8  O   UNL     1       5.564   6.860  17.346  0.00  0.00    +0.000 OA
ATOM      9  C   UNL     1       5.016   4.600  17.959  0.00  0.00    +0.000 C 
ATOM     10  C   UNL     1       3.657   4.013  18.344  0.00  0.00    +0.000 C 
ATOM     11  C   UNL     1       3.655   3.399  19.745  0.00  0.00    +0.000 C 
ATOM     12  C   UNL     1       4.033   1.932  19.545  0.00  0.00    +0.000 C 
ATOM     13  C   UNL     1       3.681   1.579  18.105  0.00  0.00    +0.000 C 
ATOM     14  C   UNL     1       3.189   2.860  17.448  0.00  0.00    +0.000 C 
ATOM     15  C   UNL     1       2.721   5.198  18.210  0.00  0.00    +0.000 C 
ATOM     16  O   UNL     1       1.504   5.124  18.102  0.00  0.00    +0.000 OA
ENDBRANCH   5   6
ENDBRANCH   2   5
BRANCH   3  17
ATOM     17  C   UNL     1       0.515  10.299  19.179  0.00  0.00    +0.000 C 
BRANCH  17  18
ATOM     18  C   UNL     1      -0.903  10.541  18.645  0.00  0.00    +0.000 A 
ATOM     19  C   UNL     1      -1.743  11.462  19.298  0.00  0.00    +0.000 A 
ATOM     20  C   UNL     1      -2.978  11.824  18.746  0.00  0.00    +0.000 A 
ATOM     21  C   UNL     1      -3.388  11.270  17.537  0.00  0.00    +0.000 A 
ATOM     22 CL   UNL     1      -4.878  11.753  16.827  0.00  0.00    +0.000 Cl
ATOM     23  C   UNL     1      -2.585  10.342  16.885  0.00  0.00    +0.000 A 
ATOM     24  C   UNL     1      -1.353   9.984  17.434  0.00  0.00    +0.000 A 
ENDBRANCH  17  18
BRANCH  17  25
ATOM     25  C   UNL     1       1.249  11.636  19.327  0.00  0.00    +0.000 A 
ATOM     26  C   UNL     1       1.336  12.285  20.572  0.00  0.00    +0.000 A 
ATOM     27  C   UNL     1       2.103  13.440  20.730  0.00  0.00    +0.000 A 
ATOM     28  C   UNL     1       2.788  13.974  19.641  0.00  0.00    +0.000 A 
ATOM     29  C   UNL     1       2.689  13.365  18.394  0.00  0.00    +0.000 A 
ATOM     30  C   UNL     1       1.926  12.204  18.231  0.00  0.00    +0.000 A 
ENDBRANCH  17  25
ENDBRANCH   3  17
TORSDOF 5
ENDMDL
MODEL 8
REMARK VINA RESULT:      -8.2      0.983      1.772
REMARK  Name = 
REMARK  5 active torsions:
REMARK  status: ('A' for Active; 'I' for Inactive)
REMARK    1  A    between atoms: C_2  and  C_3
REMARK    2  A    between atoms: C_3  and  N_4
REMARK    3  A    between atoms: N_15  and  C_16
REMARK    4  A    between atoms: C_16  and  C_17
REMARK    5  A    between atoms: C_16  and  C_23
REMARK                            x       y       z     vdW  Elec       q    Type
REMARK                         _______ _______ _______ _____ _____    ______ ____
ROOT
ATOM      1  O   UNL     1       1.937   8.674  20.208  0.00  0.00    +0.000 OA
ATOM      2  C   UNL     1       1.752   8.542  19.004  0.00  0.00    +0.000 C 
ATOM      3  N   UNL     1       2.362   7.575  18.235  0.00  0.00    +0.000 N 
ATOM      4  H   UNL     1       2.354   7.714  17.232  0.00  0.00    +0.000 HD
ENDROOT
BRANCH   2   5
ATOM      5  C   UNL     1       0.805   9.452  18.207  0.00  0.00    +0.000 C 
BRANCH   5   6
ATOM      6  N   UNL     1       0.389  10.672  18.884  0.00  0.00    +0.000 N 
ATOM      7  C   UNL     1       1.237  11.739  18.991  0.00  0.00    +0.000 C 
ATOM      8  O   UNL     1       2.303  11.882  18.409  0.00  0.00    +0.000 OA
ATOM      9  C   UNL     1       0.744  12.684  20.056  0.00  0.00    +0.000 C 
ATOM     10  C   UNL     1      -0.489  11.986  20.631  0.00  0.00    +0.000 C 
ATOM     11  C   UNL     1      -1.779  12.773  20.391  0.00  0.00    +0.000 C 
ATOM     12  C   UNL     1      -1.937  13.673  21.615  0.00  0.00    +0.000 C 
ATOM     13  C   UNL     1      -1.149  13.023  22.746  0.00  0.00    +0.000 C 
ATOM     14  C   UNL     1      -0.460  11.803  22.153  0.00  0.00    +0.000 C 
ATOM     15  C   UNL     1      -0.474  10.638  19.937  0.00  0.00    +0.000 C 
ATOM     16  O   UNL     1      -1.073   9.642  20.323  0.00  0.00    +0.000 OA
ENDBRANCH   5   6
ENDBRANCH   2   5
BRANCH   3  17
ATOM     17  C   UNL     1       3.250   6.541  18.753  0.00  0.00    +0.000 C 
BRANCH  17  18
ATOM     18  C   UNL     1       4.379   6.174  17.783  0.00  0.00    +0.000 A 
ATOM     19  C   UNL     1       5.287   5.153  18.127  0.00  0.00    +0.000 A 
ATOM     20  C   UNL     1       6.226   4.686  17.201  0.00  0.00    +0.000 A 
ATOM     21  C   UNL     1       6.272   5.232  15.921  0.00  0.00    +0.000 A 
ATOM     22 CL   UNL     1       7.387   4.622  14.762  0.00  0.00    +0.000 Cl
ATOM     23  C   UNL     1       5.401   6.254  15.566  0.00  0.00    +0.000 A 
ATOM     24  C   UNL     1       4.462   6.718  16.488  0.00  0.00    +0.000 A 
ENDBRANCH  17  18
BRANCH  17  25
ATOM     25  C   UNL     1       2.438   5.288  19.103  0.00  0.00    +0.000 A 
ATOM     26  C   UNL     1       2.169   4.945  20.440  0.00  0.00    +0.000 A 
ATOM     27  C   UNL     1       1.332   3.873  20.754  0.00  0.00    +0.000 A 
ATOM     28  C   UNL     1       0.759   3.116  19.734  0.00  0.00    +0.000 A 
ATOM     29  C   UNL     1       1.038   3.420  18.405  0.00  0.00    +0.000 A 
ATOM     30  C   UNL     1       1.872   4.498  18.085  0.00  0.00    +0.000 A 
ENDBRANCH  17  25
ENDBRANCH   3  17
TORSDOF 5
ENDMDL
MODEL 9
REMARK VINA RESULT:      -8.1      1.584      2.316
REMARK  Name = 
REMARK  5 active torsions:
REMARK  status: ('A' for Active; 'I' for Inactive)
REMARK    1  A    between atoms: C_2  and  C_3
REMARK    2  A    between atoms: C_3  and  N_4
REMARK    3  A    between atoms: N_15  and  C_16
REMARK    4  A    between atoms: C_16  and  C_17
REMARK    5  A    between atoms: C_16  and  C_23
REMARK                            x       y       z     vdW  Elec       q    Type
REMARK                         _______ _______ _______ _____ _____    ______ ____
ROOT
ATOM      1  O   UNL     1       2.034   8.032  20.227  0.00  0.00    +0.000 OA
ATOM      2  C   UNL     1       1.948   8.179  19.013  0.00  0.00    +0.000 C 
ATOM      3  N   UNL     1       2.610   7.391  18.097  0.00  0.00    +0.000 N 
ATOM      4  H   UNL     1       2.687   7.750  17.153  0.00  0.00    +0.000 HD
ENDROOT
BRANCH   2   5
ATOM      5  C   UNL     1       1.081   9.271  18.370  0.00  0.00    +0.000 C 
BRANCH   5   6
ATOM      6  N   UNL     1       0.994  10.521  19.111  0.00  0.00    +0.000 N 
ATOM      7  C   UNL     1      -0.173  10.901  19.712  0.00  0.00    +0.000 C 
ATOM      8  O   UNL     1      -1.170  10.210  19.868  0.00  0.00    +0.000 OA
ATOM      9  C   UNL     1      -0.127  12.370  20.045  0.00  0.00    +0.000 C 
ATOM     10  C   UNL     1       1.216  12.837  19.482  0.00  0.00    +0.000 C 
ATOM     11  C   UNL     1       2.175  13.324  20.570  0.00  0.00    +0.000 C 
ATOM     12  C   UNL     1       1.909  14.824  20.700  0.00  0.00    +0.000 C 
ATOM     13  C   UNL     1       1.297  15.279  19.381  0.00  0.00    +0.000 C 
ATOM     14  C   UNL     1       1.121  14.031  18.527  0.00  0.00    +0.000 C 
ATOM     15  C   UNL     1       1.723  11.612  18.746  0.00  0.00    +0.000 C 
ATOM     16  O   UNL     1       2.591  11.620  17.883  0.00  0.00    +0.000 OA
ENDBRANCH   5   6
ENDBRANCH   2   5
BRANCH   3  17
ATOM     17  C   UNL     1       3.440   6.241  18.436  0.00  0.00    +0.000 C 
BRANCH  17  18
ATOM     18  C   UNL     1       4.290   5.742  17.261  0.00  0.00    +0.000 A 
ATOM     19  C   UNL     1       4.697   6.649  16.264  0.00  0.00    +0.000 A 
ATOM     20  C   UNL     1       5.603   6.263  15.269  0.00  0.00    +0.000 A 
ATOM     21  C   UNL     1       6.112   4.968  15.257  0.00  0.00    +0.000 A 
ATOM     22 CL   UNL     1       7.268   4.505  14.071  0.00  0.00    +0.000 Cl
ATOM     23  C   UNL     1       5.709   4.049  16.219  0.00  0.00    +0.000 A 
ATOM     24  C   UNL     1       4.808   4.435  17.212  0.00  0.00    +0.000 A 
ENDBRANCH  17  18
BRANCH  17  25
ATOM     25  C   UNL     1       2.559   5.101  18.960  0.00  0.00    +0.000 A 
ATOM     26  C   UNL     1       2.528   4.775  20.328  0.00  0.00    +0.000 A 
ATOM     27  C   UNL     1       1.638   3.818  20.819  0.00  0.00    +0.000 A 
ATOM     28  C   UNL     1       0.773   3.160  19.948  0.00  0.00    +0.000 A 
ATOM     29  C   UNL     1       0.811   3.446  18.587  0.00  0.00    +0.000 A 
ATOM     30  C   UNL     1       1.696   4.409  18.089  0.00  0.00    +0.000 A 
ENDBRANCH  17  25
ENDBRANCH   3  17
TORSDOF 5
ENDMDL
