MODEL 1
REMARK VINA RESULT:      -8.5      0.000      0.000
REMARK  Name = 
REMARK  8 active torsions:
REMARK  status: ('A' for Active; 'I' for Inactive)
REMARK    1  A    between atoms: C_1  and  N_2
REMARK    2  A    between atoms: C_6  and  C_7
REMARK    3  A    between atoms: C_7  and  C_8
REMARK    4  A    between atoms: C_8  and  C_9
REMARK    5  A    between atoms: C_13  and  N_14
REMARK    6  A    between atoms: N_14  and  C_15
REMARK    7  A    between atoms: C_15  and  C_16
REMARK    8  A    between atoms: C_23  and  C_24
REMARK                            x       y       z     vdW  Elec       q    Type
REMARK                         _______ _______ _______ _____ _____    ______ ____
ROOT
ATOM      1  C   UNL     1       1.112   9.854  19.404  0.00  0.00    +0.000 A 
ATOM      2  C   UNL     1       1.682   9.841  18.115  0.00  0.00    +0.000 A 
ATOM      3  C   UNL     1       2.316   8.720  17.603  0.00  0.00    +0.000 A 
ATOM      4  C   UNL     1       2.438   7.586  18.390  0.00  0.00    +0.000 A 
ATOM      5  C   UNL     1       2.010   7.566  19.729  0.00  0.00    +0.000 A 
ATOM      6  C   UNL     1       1.293   8.682  20.192  0.00  0.00    +0.000 A 
ENDROOT
BRANCH   1   7
ATOM      7  C   UNL     1       0.279  11.146  19.901  0.00  0.00    +0.000 C 
ATOM      8  C   UNL     1      -0.683  10.892  21.104  0.00  0.00    +0.000 C 
ATOM      9  O   UNL     1      -0.041  11.896  21.910  0.00  0.00    +0.000 OA
ATOM     10  C   UNL     1       0.972  12.109  20.903  0.00  0.00    +0.000 C 
BRANCH   7  11
ATOM     11  C   UNL     1      -0.508  11.798  18.744  0.00  0.00    +0.000 C 
BRANCH  11  17
ATOM     12  C   UNL     1      -3.492  12.455  19.516  0.00  0.00    +0.000 C 
ATOM     13  N   UNL     1      -3.028  11.404  18.647  0.00  0.00    +0.000 N 
ATOM     14  C   UNL     1      -3.834  10.546  17.962  0.00  0.00    +0.000 A 
ATOM     15  N   UNL     1      -3.097   9.711  17.272  0.00  0.00    +0.000 NA
ATOM     16  N   UNL     1      -1.781  10.045  17.483  0.00  0.00    +0.000 NA
ATOM     17  C   UNL     1      -1.737  11.069  18.313  0.00  0.00    +0.000 A 
ENDBRANCH  11  17
ENDBRANCH   7  11
ENDBRANCH   1   7
BRANCH   5  18
ATOM     18  N   UNL     1       2.218   6.430  20.568  0.00  0.00    +0.000 N 
ATOM     19  H   UNL     1       3.078   6.533  21.105  0.00  0.00    +0.000 HD
BRANCH  18  20
ATOM     20  C   UNL     1       2.072   5.180  19.820  0.00  0.00    +0.000 C 
BRANCH  20  21
ATOM     21  C   UNL     1       3.375   4.510  19.432  0.00  0.00    +0.000 A 
ATOM     22  C   UNL     1       3.346   3.100  20.002  0.00  0.00    +0.000 A 
ATOM     23  N   UNL     1       2.489   2.167  19.722  0.00  0.00    +0.000 NA
ATOM     24  C   UNL     1       1.493   2.494  18.828  0.00  0.00    +0.000 A 
ATOM     25  O   UNL     1       0.331   2.611  19.208  0.00  0.00    +0.000 OA
ATOM     26  N   UNL     1       1.818   2.749  17.519  0.00  0.00    +0.000 NA
ATOM     27  C   UNL     1       2.811   3.532  17.236  0.00  0.00    +0.000 A 
ATOM     28  C   UNL     1       3.714   4.319  18.135  0.00  0.00    +0.000 A 
BRANCH  28  29
ATOM     29  C   UNL     1       5.118   4.426  17.644  0.00  0.00    +0.000 C 
ATOM     30  F   UNL     1       5.371   3.636  16.571  0.00  0.00    +0.000 F 
ATOM     31  F   UNL     1       5.406   5.696  17.270  0.00  0.00    +0.000 F 
ATOM     32  F   UNL     1       6.018   4.081  18.600  0.00  0.00    +0.000 F 
ENDBRANCH  28  29
ENDBRANCH  20  21
ENDBRANCH  18  20
ENDBRANCH   5  18
TORSDOF 7
ENDMDL
MODEL 2
REMARK VINA RESULT:      -8.5      2.260      2.772
REMARK  Name = 
REMARK  8 active torsions:
REMARK  status: ('A' for Active; 'I' for Inactive)
REMARK    1  A    between atoms: C_1  and  N_2
REMARK    2  A    between atoms: C_6  and  C_7
REMARK    3  A    between atoms: C_7  and  C_8
REMARK    4  A    between atoms: C_8  and  C_9
REMARK    5  A    between atoms: C_13  and  N_14
REMARK    6  A    between atoms: N_14  and  C_15
REMARK    7  A    between atoms: C_15  and  C_16
REMARK    8  A    between atoms: C_23  and  C_24
REMARK                            x       y       z     vdW  Elec       q    Type
REMARK                         _______ _______ _______ _____ _____    ______ ____
ROOT
ATOM      1  C   UNL     1       0.904  10.307  19.546  0.00  0.00    +0.000 A 
ATOM      2  C   UNL     1       1.457  10.428  18.255  0.00  0.00    +0.000 A 
ATOM      3  C   UNL     1       2.139   9.385  17.647  0.00  0.00    +0.000 A 
ATOM      4  C   UNL     1       2.327   8.198  18.338  0.00  0.00    +0.000 A 
ATOM      5  C   UNL     1       1.919   8.049  19.675  0.00  0.00    +0.000 A 
ATOM      6  C   UNL     1       1.154   9.086  20.234  0.00  0.00    +0.000 A 
ENDROOT
BRANCH   1   7
ATOM      7  C   UNL     1       0.015  11.511  20.155  0.00  0.00    +0.000 C 
ATOM      8  C   UNL     1      -0.890  11.120  21.365  0.00  0.00    +0.000 C 
ATOM      9  O   UNL     1      -0.281  12.105  22.219  0.00  0.00    +0.000 OA
ATOM     10  C   UNL     1       0.685  12.444  21.200  0.00  0.00    +0.000 C 
BRANCH   7  11
ATOM     11  C   UNL     1      -0.847  12.191  19.068  0.00  0.00    +0.000 C 
BRANCH  11  17
ATOM     12  C   UNL     1      -3.892  12.626  19.754  0.00  0.00    +0.000 C 
ATOM     13  N   UNL     1      -3.330  11.632  18.877  0.00  0.00    +0.000 N 
ATOM     14  C   UNL     1      -4.053  10.739  18.145  0.00  0.00    +0.000 A 
ATOM     15  N   UNL     1      -3.239   9.973  17.461  0.00  0.00    +0.000 NA
ATOM     16  N   UNL     1      -1.957  10.389  17.724  0.00  0.00    +0.000 NA
ATOM     17  C   UNL     1      -2.009  11.392  18.579  0.00  0.00    +0.000 A 
ENDBRANCH  11  17
ENDBRANCH   7  11
ENDBRANCH   1   7
BRANCH   5  18
ATOM     18  N   UNL     1       2.194   6.860  20.417  0.00  0.00    +0.000 N 
ATOM     19  H   UNL     1       2.515   7.089  21.356  0.00  0.00    +0.000 HD
BRANCH  18  20
ATOM     20  C   UNL     1       3.039   5.939  19.654  0.00  0.00    +0.000 C 
BRANCH  20  21
ATOM     21  C   UNL     1       2.362   4.650  19.232  0.00  0.00    +0.000 A 
ATOM     22  C   UNL     1       2.842   4.327  17.825  0.00  0.00    +0.000 A 
ATOM     23  N   UNL     1       4.065   4.104  17.454  0.00  0.00    +0.000 NA
ATOM     24  C   UNL     1       5.030   4.184  18.434  0.00  0.00    +0.000 A 
ATOM     25  O   UNL     1       5.838   5.109  18.436  0.00  0.00    +0.000 OA
ATOM     26  N   UNL     1       5.045   3.255  19.445  0.00  0.00    +0.000 NA
ATOM     27  C   UNL     1       3.947   2.948  20.061  0.00  0.00    +0.000 A 
ATOM     28  C   UNL     1       2.560   3.493  19.907  0.00  0.00    +0.000 A 
BRANCH  28  29
ATOM     29  C   UNL     1       1.483   2.481  20.107  0.00  0.00    +0.000 C 
ATOM     30  F   UNL     1       1.398   2.037  21.385  0.00  0.00    +0.000 F 
ATOM     31  F   UNL     1       0.270   2.996  19.791  0.00  0.00    +0.000 F 
ATOM     32  F   UNL     1       1.664   1.387  19.326  0.00  0.00    +0.000 F 
ENDBRANCH  28  29
ENDBRANCH  20  21
ENDBRANCH  18  20
ENDBRANCH   5  18
TORSDOF 7
ENDMDL
MODEL 3
REMARK VINA RESULT:      -8.4      2.734      3.376
REMARK  Name = 
REMARK  8 active torsions:
REMARK  status: ('A' for Active; 'I' for Inactive)
REMARK    1  A    between atoms: C_1  and  N_2
REMARK    2  A    between atoms: C_6  and  C_7
REMARK    3  A    between atoms: C_7  and  C_8
REMARK    4  A    between atoms: C_8  and  C_9
REMARK    5  A    between atoms: C_13  and  N_14
REMARK    6  A    between atoms: N_14  and  C_15
REMARK    7  A    between atoms: C_15  and  C_16
REMARK    8  A    between atoms: C_23  and  C_24
REMARK                            x       y       z     vdW  Elec       q    Type
REMARK                         _______ _______ _______ _____ _____    ______ ____
ROOT
ATOM      1  C   UNL     1       0.760  10.024  19.811  0.00  0.00    +0.000 A 
ATOM      2  C   UNL     1       1.114  10.254  18.466  0.00  0.00    +0.000 A 
ATOM      3  C   UNL     1       1.793   9.309  17.713  0.00  0.00    +0.000 A 
ATOM      4  C   UNL     1       2.179   8.115  18.303  0.00  0.00    +0.000 A 
ATOM      5  C   UNL     1       1.976   7.868  19.671  0.00  0.00    +0.000 A 
ATOM      6  C   UNL     1       1.209   8.802  20.388  0.00  0.00    +0.000 A 
ENDROOT
BRANCH   1   7
ATOM      7  C   UNL     1      -0.136  11.110  20.602  0.00  0.00    +0.000 C 
ATOM      8  C   UNL     1      -0.858  10.571  21.877  0.00  0.00    +0.000 C 
ATOM      9  O   UNL     1      -0.226  11.547  22.725  0.00  0.00    +0.000 OA
ATOM     10  C   UNL     1       0.583  12.028  21.628  0.00  0.00    +0.000 C 
BRANCH   7  11
ATOM     11  C   UNL     1      -1.170  11.784  19.674  0.00  0.00    +0.000 C 
BRANCH  11  17
ATOM     12  C   UNL     1      -2.477  14.135  21.316  0.00  0.00    +0.000 C 
ATOM     13  N   UNL     1      -1.547  14.248  20.222  0.00  0.00    +0.000 N 
ATOM     14  C   UNL     1      -1.032  15.420  19.754  0.00  0.00    +0.000 A 
ATOM     15  N   UNL     1      -0.226  15.173  18.751  0.00  0.00    +0.000 NA
ATOM     16  N   UNL     1      -0.185  13.811  18.575  0.00  0.00    +0.000 NA
ATOM     17  C   UNL     1      -0.982  13.249  19.464  0.00  0.00    +0.000 A 
ENDBRANCH  11  17
ENDBRANCH   7  11
ENDBRANCH   1   7
BRANCH   5  18
ATOM     18  N   UNL     1       2.455   6.678  20.300  0.00  0.00    +0.000 N 
ATOM     19  H   UNL     1       2.864   6.892  21.208  0.00  0.00    +0.000 HD
BRANCH  18  20
ATOM     20  C   UNL     1       3.288   5.892  19.387  0.00  0.00    +0.000 C 
BRANCH  20  21
ATOM     21  C   UNL     1       2.608   4.677  18.787  0.00  0.00    +0.000 A 
ATOM     22  C   UNL     1       3.414   4.268  17.563  0.00  0.00    +0.000 A 
ATOM     23  N   UNL     1       4.657   3.899  17.540  0.00  0.00    +0.000 NA
ATOM     24  C   UNL     1       5.321   3.894  18.747  0.00  0.00    +0.000 A 
ATOM     25  O   UNL     1       6.198   4.722  18.977  0.00  0.00    +0.000 OA
ATOM     26  N   UNL     1       4.952   2.995  19.716  0.00  0.00    +0.000 NA
ATOM     27  C   UNL     1       3.700   2.829  20.006  0.00  0.00    +0.000 A 
ATOM     28  C   UNL     1       2.481   3.522  19.482  0.00  0.00    +0.000 A 
BRANCH  28  29
ATOM     29  C   UNL     1       1.281   2.643  19.372  0.00  0.00    +0.000 C 
ATOM     30  F   UNL     1       0.533   2.895  18.270  0.00  0.00    +0.000 F 
ATOM     31  F   UNL     1       1.640   1.338  19.311  0.00  0.00    +0.000 F 
ATOM     32  F   UNL     1       0.455   2.776  20.440  0.00  0.00    +0.000 F 
ENDBRANCH  28  29
ENDBRANCH  20  21
ENDBRANCH  18  20
ENDBRANCH   5  18
TORSDOF 7
ENDMDL
MODEL 4
REMARK VINA RESULT:      -8.4      3.793      8.548
REMARK  Name = 
REMARK  8 active torsions:
REMARK  status: ('A' for Active; 'I' for Inactive)
REMARK    1  A    between atoms: C_1  and  N_2
REMARK    2  A    between atoms: C_6  and  C_7
REMARK    3  A    between atoms: C_7  and  C_8
REMARK    4  A    between atoms: C_8  and  C_9
REMARK    5  A    between atoms: C_13  and  N_14
REMARK    6  A    between atoms: N_14  and  C_15
REMARK    7  A    between atoms: C_15  and  C_16
REMARK    8  A    between atoms: C_23  and  C_24
REMARK                            x       y       z     vdW  Elec       q    Type
REMARK                         _______ _______ _______ _____ _____    ______ ____
ROOT
ATOM      1  C   UNL     1       3.707   6.027  18.304  0.00  0.00    +0.000 A 
ATOM      2  C   UNL     1       3.322   5.766  19.635  0.00  0.00    +0.000 A 
ATOM      3  C   UNL     1       2.414   6.569  20.308  0.00  0.00    +0.000 A 
ATOM      4  C   UNL     1       1.897   7.690  19.678  0.00  0.00    +0.000 A 
ATOM      5  C   UNL     1       2.332   8.086  18.401  0.00  0.00    +0.000 A 
ATOM      6  C   UNL     1       3.182   7.208  17.709  0.00  0.00    +0.000 A 
ENDROOT
BRANCH   1   7
ATOM      7  C   UNL     1       4.673   4.989  17.531  0.00  0.00    +0.000 C 
ATOM      8  C   UNL     1       5.752   5.645  16.614  0.00  0.00    +0.000 C 
ATOM      9  O   UNL     1       6.831   5.005  17.317  0.00  0.00    +0.000 OA
ATOM     10  C   UNL     1       5.918   4.457  18.293  0.00  0.00    +0.000 C 
BRANCH   7  11
ATOM     11  C   UNL     1       3.866   3.955  16.715  0.00  0.00    +0.000 C 
BRANCH  11  17
ATOM     12  C   UNL     1       3.843   1.456  18.635  0.00  0.00    +0.000 C 
ATOM     13  N   UNL     1       2.724   2.287  18.273  0.00  0.00    +0.000 N 
ATOM     14  C   UNL     1       1.460   2.150  18.764  0.00  0.00    +0.000 A 
ATOM     15  N   UNL     1       0.683   3.058  18.227  0.00  0.00    +0.000 NA
ATOM     16  N   UNL     1       1.455   3.826  17.390  0.00  0.00    +0.000 NA
ATOM     17  C   UNL     1       2.690   3.363  17.416  0.00  0.00    +0.000 A 
ENDBRANCH  11  17
ENDBRANCH   7  11
ENDBRANCH   1   7
BRANCH   5  18
ATOM     18  N   UNL     1       1.868   9.291  17.789  0.00  0.00    +0.000 N 
ATOM     19  H   UNL     1       2.582   9.679  17.174  0.00  0.00    +0.000 HD
BRANCH  18  20
ATOM     20  C   UNL     1       1.303  10.208  18.780  0.00  0.00    +0.000 C 
BRANCH  20  21
ATOM     21  C   UNL     1      -0.212  10.233  18.839  0.00  0.00    +0.000 A 
ATOM     22  C   UNL     1      -0.605  10.315  20.306  0.00  0.00    +0.000 A 
ATOM     23  N   UNL     1      -0.305  11.263  21.139  0.00  0.00    +0.000 NA
ATOM     24  C   UNL     1       0.465  12.294  20.647  0.00  0.00    +0.000 A 
ATOM     25  O   UNL     1       1.630  12.428  21.011  0.00  0.00    +0.000 OA
ATOM     26  N   UNL     1      -0.061  13.136  19.698  0.00  0.00    +0.000 NA
ATOM     27  C   UNL     1      -0.689  12.650  18.674  0.00  0.00    +0.000 A 
ATOM     28  C   UNL     1      -0.926  11.229  18.264  0.00  0.00    +0.000 A 
BRANCH  28  29
ATOM     29  C   UNL     1      -2.243  10.999  17.602  0.00  0.00    +0.000 C 
ATOM     30  F   UNL     1      -2.621   9.698  17.602  0.00  0.00    +0.000 F 
ATOM     31  F   UNL     1      -3.226  11.692  18.225  0.00  0.00    +0.000 F 
ATOM     32  F   UNL     1      -2.236  11.401  16.306  0.00  0.00    +0.000 F 
ENDBRANCH  28  29
ENDBRANCH  20  21
ENDBRANCH  18  20
ENDBRANCH   5  18
TORSDOF 7
ENDMDL
MODEL 5
REMARK VINA RESULT:      -8.4      2.620      3.347
REMARK  Name = 
REMARK  8 active torsions:
REMARK  status: ('A' for Active; 'I' for Inactive)
REMARK    1  A    between atoms: C_1  and  N_2
REMARK    2  A    between atoms: C_6  and  C_7
REMARK    3  A    between atoms: C_7  and  C_8
REMARK    4  A    between atoms: C_8  and  C_9
REMARK    5  A    between atoms: C_13  and  N_14
REMARK    6  A    between atoms: N_14  and  C_15
REMARK    7  A    between atoms: C_15  and  C_16
REMARK    8  A    between atoms: C_23  and  C_24
REMARK                            x       y       z     vdW  Elec       q    Type
REMARK                         _______ _______ _______ _____ _____    ______ ____
ROOT
ATOM      1  C   UNL     1      -0.167   9.780  19.455  0.00  0.00    +0.000 A 
ATOM      2  C   UNL     1      -0.078   9.471  20.828  0.00  0.00    +0.000 A 
ATOM      3  C   UNL     1       0.932   8.669  21.336  0.00  0.00    +0.000 A 
ATOM      4  C   UNL     1       1.861   8.111  20.472  0.00  0.00    +0.000 A 
ATOM      5  C   UNL     1       1.760   8.267  19.079  0.00  0.00    +0.000 A 
ATOM      6  C   UNL     1       0.783   9.156  18.599  0.00  0.00    +0.000 A 
ENDROOT
BRANCH   1   7
ATOM      7  C   UNL     1      -1.291  10.818  18.938  0.00  0.00    +0.000 C 
ATOM      8  C   UNL     1      -1.685  11.932  19.959  0.00  0.00    +0.000 C 
ATOM      9  O   UNL     1      -1.327  12.984  19.044  0.00  0.00    +0.000 OA
ATOM     10  C   UNL     1      -0.818  12.028  18.088  0.00  0.00    +0.000 C 
BRANCH   7  11
ATOM     11  C   UNL     1      -2.566  10.089  18.458  0.00  0.00    +0.000 C 
BRANCH  11  17
ATOM     12  C   UNL     1      -4.892  11.798  17.192  0.00  0.00    +0.000 C 
ATOM     13  N   UNL     1      -3.895  11.029  16.492  0.00  0.00    +0.000 N 
ATOM     14  C   UNL     1      -3.767  10.968  15.137  0.00  0.00    +0.000 A 
ATOM     15  N   UNL     1      -2.768  10.178  14.828  0.00  0.00    +0.000 NA
ATOM     16  N   UNL     1      -2.209   9.735  16.002  0.00  0.00    +0.000 NA
ATOM     17  C   UNL     1      -2.888  10.249  17.010  0.00  0.00    +0.000 A 
ENDBRANCH  11  17
ENDBRANCH   7  11
ENDBRANCH   1   7
BRANCH   5  18
ATOM     18  N   UNL     1       2.662   7.617  18.182  0.00  0.00    +0.000 N 
ATOM     19  H   UNL     1       2.224   7.474  17.273  0.00  0.00    +0.000 HD
BRANCH  18  20
ATOM     20  C   UNL     1       3.267   6.435  18.798  0.00  0.00    +0.000 C 
BRANCH  20  21
ATOM     21  C   UNL     1       2.379   5.208  18.838  0.00  0.00    +0.000 A 
ATOM     22  C   UNL     1       2.642   4.418  17.565  0.00  0.00    +0.000 A 
ATOM     23  N   UNL     1       3.772   3.900  17.193  0.00  0.00    +0.000 NA
ATOM     24  C   UNL     1       4.848   4.102  18.030  0.00  0.00    +0.000 A 
ATOM     25  O   UNL     1       5.767   4.843  17.693  0.00  0.00    +0.000 OA
ATOM     26  N   UNL     1       4.856   3.516  19.272  0.00  0.00    +0.000 NA
ATOM     27  C   UNL     1       3.807   3.584  20.029  0.00  0.00    +0.000 A 
ATOM     28  C   UNL     1       2.498   4.280  19.817  0.00  0.00    +0.000 A 
BRANCH  28  29
ATOM     29  C   UNL     1       1.326   3.559  20.392  0.00  0.00    +0.000 C 
ATOM     30  F   UNL     1       0.190   4.298  20.390  0.00  0.00    +0.000 F 
ATOM     31  F   UNL     1       1.058   2.431  19.690  0.00  0.00    +0.000 F 
ATOM     32  F   UNL     1       1.542   3.183  21.677  0.00  0.00    +0.000 F 
ENDBRANCH  28  29
ENDBRANCH  20  21
ENDBRANCH  18  20
ENDBRANCH   5  18
TORSDOF 7
ENDMDL
MODEL 6
REMARK VINA RESULT:      -8.3      1.291      1.872
REMARK  Name = 
REMARK  8 active torsions:
REMARK  status: ('A' for Active; 'I' for Inactive)
REMARK    1  A    between atoms: C_1  and  N_2
REMARK    2  A    between atoms: C_6  and  C_7
REMARK    3  A    between atoms: C_7  and  C_8
REMARK    4  A    between atoms: C_8  and  C_9
REMARK    5  A    between atoms: C_13  and  N_14
REMARK    6  A    between atoms: N_14  and  C_15
REMARK    7  A    between atoms: C_15  and  C_16
REMARK    8  A    between atoms: C_23  and  C_24
REMARK                            x       y       z     vdW  Elec       q    Type
REMARK                         _______ _______ _______ _____ _____    ______ ____
ROOT
ATOM      1  C   UNL     1       1.181   9.638  19.379  0.00  0.00    +0.000 A 
ATOM      2  C   UNL     1       1.621   9.664  18.040  0.00  0.00    +0.000 A 
ATOM      3  C   UNL     1       2.283   8.592  17.463  0.00  0.00    +0.000 A 
ATOM      4  C   UNL     1       2.565   7.471  18.229  0.00  0.00    +0.000 A 
ATOM      5  C   UNL     1       2.274   7.424  19.603  0.00  0.00    +0.000 A 
ATOM      6  C   UNL     1       1.526   8.486  20.140  0.00  0.00    +0.000 A 
ENDROOT
BRANCH   1   7
ATOM      7  C   UNL     1       0.309  10.866  19.961  0.00  0.00    +0.000 C 
ATOM      8  C   UNL     1      -0.826  10.462  20.954  0.00  0.00    +0.000 C 
ATOM      9  O   UNL     1      -0.293  11.291  22.001  0.00  0.00    +0.000 OA
ATOM     10  C   UNL     1       0.863  11.621  21.200  0.00  0.00    +0.000 C 
BRANCH   7  11
ATOM     11  C   UNL     1      -0.284  11.734  18.830  0.00  0.00    +0.000 C 
BRANCH  11  17
ATOM     12  C   UNL     1      -1.975   9.883  16.920  0.00  0.00    +0.000 C 
ATOM     13  N   UNL     1      -2.475  10.840  17.872  0.00  0.00    +0.000 N 
ATOM     14  C   UNL     1      -3.793  11.057  18.141  0.00  0.00    +0.000 A 
ATOM     15  N   UNL     1      -3.905  11.995  19.049  0.00  0.00    +0.000 NA
ATOM     16  N   UNL     1      -2.636  12.382  19.406  0.00  0.00    +0.000 NA
ATOM     17  C   UNL     1      -1.770  11.685  18.697  0.00  0.00    +0.000 A 
ENDBRANCH  11  17
ENDBRANCH   7  11
ENDBRANCH   1   7
BRANCH   5  18
ATOM     18  N   UNL     1       2.647   6.309  20.413  0.00  0.00    +0.000 N 
ATOM     19  H   UNL     1       3.367   6.576  21.083  0.00  0.00    +0.000 HD
BRANCH  18  20
ATOM     20  C   UNL     1       2.934   5.129  19.595  0.00  0.00    +0.000 C 
BRANCH  20  21
ATOM     21  C   UNL     1       4.396   4.731  19.536  0.00  0.00    +0.000 A 
ATOM     22  C   UNL     1       4.448   3.212  19.472  0.00  0.00    +0.000 A 
ATOM     23  N   UNL     1       3.943   2.456  18.547  0.00  0.00    +0.000 NA
ATOM     24  C   UNL     1       3.275   3.095  17.526  0.00  0.00    +0.000 A 
ATOM     25  O   UNL     1       2.054   3.001  17.426  0.00  0.00    +0.000 OA
ATOM     26  N   UNL     1       3.977   3.890  16.654  0.00  0.00    +0.000 NA
ATOM     27  C   UNL     1       4.832   4.753  17.106  0.00  0.00    +0.000 A 
ATOM     28  C   UNL     1       5.194   5.118  18.513  0.00  0.00    +0.000 A 
BRANCH  28  29
ATOM     29  C   UNL     1       6.631   5.470  18.699  0.00  0.00    +0.000 C 
ATOM     30  F   UNL     1       6.997   5.552  20.001  0.00  0.00    +0.000 F 
ATOM     31  F   UNL     1       7.435   4.543  18.125  0.00  0.00    +0.000 F 
ATOM     32  F   UNL     1       6.938   6.665  18.134  0.00  0.00    +0.000 F 
ENDBRANCH  28  29
ENDBRANCH  20  21
ENDBRANCH  18  20
ENDBRANCH   5  18
TORSDOF 7
ENDMDL
MODEL 7
REMARK VINA RESULT:      -8.3      3.210      4.161
REMARK  Name = 
REMARK  8 active torsions:
REMARK  status: ('A' for Active; 'I' for Inactive)
REMARK    1  A    between atoms: C_1  and  N_2
REMARK    2  A    between atoms: C_6  and  C_7
REMARK    3  A    between atoms: C_7  and  C_8
REMARK    4  A    between atoms: C_8  and  C_9
REMARK    5  A    between atoms: C_13  and  N_14
REMARK    6  A    between atoms: N_14  and  C_15
REMARK    7  A    between atoms: C_15  and  C_16
REMARK    8  A    between atoms: C_23  and  C_24
REMARK                            x       y       z     vdW  Elec       q    Type
REMARK                         _______ _______ _______ _____ _____    ______ ____
ROOT
ATOM      1  C   UNL     1       0.539  10.052  19.736  0.00  0.00    +0.000 A 
ATOM      2  C   UNL     1       0.419   9.527  21.040  0.00  0.00    +0.000 A 
ATOM      3  C   UNL     1       1.064   8.361  21.424  0.00  0.00    +0.000 A 
ATOM      4  C   UNL     1       1.816   7.659  20.495  0.00  0.00    +0.000 A 
ATOM      5  C   UNL     1       1.876   8.050  19.147  0.00  0.00    +0.000 A 
ATOM      6  C   UNL     1       1.288   9.279  18.805  0.00  0.00    +0.000 A 
ENDROOT
BRANCH   1   7
ATOM      7  C   UNL     1      -0.135  11.476  19.380  0.00  0.00    +0.000 C 
ATOM      8  C   UNL     1      -1.209  11.436  18.248  0.00  0.00    +0.000 C 
ATOM      9  O   UNL     1      -2.224  11.987  19.105  0.00  0.00    +0.000 OA
ATOM     10  C   UNL     1      -1.338  11.941  20.245  0.00  0.00    +0.000 C 
BRANCH   7  11
ATOM     11  C   UNL     1       0.929  12.543  19.041  0.00  0.00    +0.000 C 
BRANCH  11  17
ATOM     12  C   UNL     1       0.031  15.563  19.129  0.00  0.00    +0.000 C 
ATOM     13  N   UNL     1       0.768  14.844  20.135  0.00  0.00    +0.000 N 
ATOM     14  C   UNL     1       1.151  15.357  21.338  0.00  0.00    +0.000 A 
ATOM     15  N   UNL     1       1.808  14.446  22.013  0.00  0.00    +0.000 NA
ATOM     16  N   UNL     1       1.832  13.302  21.253  0.00  0.00    +0.000 NA
ATOM     17  C   UNL     1       1.204  13.539  20.118  0.00  0.00    +0.000 A 
ENDBRANCH  11  17
ENDBRANCH   7  11
ENDBRANCH   1   7
BRANCH   5  18
ATOM     18  N   UNL     1       2.575   7.276  18.170  0.00  0.00    +0.000 N 
ATOM     19  H   UNL     1       1.970   7.066  17.378  0.00  0.00    +0.000 HD
BRANCH  18  20
ATOM     20  C   UNL     1       3.255   6.133  18.783  0.00  0.00    +0.000 C 
BRANCH  20  21
ATOM     21  C   UNL     1       2.489   4.827  18.726  0.00  0.00    +0.000 A 
ATOM     22  C   UNL     1       2.927   4.101  17.462  0.00  0.00    +0.000 A 
ATOM     23  N   UNL     1       4.127   3.703  17.173  0.00  0.00    +0.000 NA
ATOM     24  C   UNL     1       5.109   3.982  18.097  0.00  0.00    +0.000 A 
ATOM     25  O   UNL     1       5.976   4.817  17.851  0.00  0.00    +0.000 OA
ATOM     26  N   UNL     1       5.077   3.366  19.324  0.00  0.00    +0.000 NA
ATOM     27  C   UNL     1       3.970   3.313  19.995  0.00  0.00    +0.000 A 
ATOM     28  C   UNL     1       2.621   3.887  19.692  0.00  0.00    +0.000 A 
BRANCH  28  29
ATOM     29  C   UNL     1       1.482   3.043  20.156  0.00  0.00    +0.000 C 
ATOM     30  F   UNL     1       1.395   1.857  19.504  0.00  0.00    +0.000 F 
ATOM     31  F   UNL     1       1.598   2.756  21.475  0.00  0.00    +0.000 F 
ATOM     32  F   UNL     1       0.288   3.665  19.990  0.00  0.00    +0.000 F 
ENDBRANCH  28  29
ENDBRANCH  20  21
ENDBRANCH  18  20
ENDBRANCH   5  18
TORSDOF 7
ENDMDL
MODEL 8
REMARK VINA RESULT:      -8.3      2.323      2.982
REMARK  Name = 
REMARK  8 active torsions:
REMARK  status: ('A' for Active; 'I' for Inactive)
REMARK    1  A    between atoms: C_1  and  N_2
REMARK    2  A    between atoms: C_6  and  C_7
REMARK    3  A    between atoms: C_7  and  C_8
REMARK    4  A    between atoms: C_8  and  C_9
REMARK    5  A    between atoms: C_13  and  N_14
REMARK    6  A    between atoms: N_14  and  C_15
REMARK    7  A    between atoms: C_15  and  C_16
REMARK    8  A    between atoms: C_23  and  C_24
REMARK                            x       y       z     vdW  Elec       q    Type
REMARK                         _______ _______ _______ _____ _____    ______ ____
ROOT
ATOM      1  C   UNL     1       0.944  10.303  19.528  0.00  0.00    +0.000 A 
ATOM      2  C   UNL     1       1.410  10.365  18.198  0.00  0.00    +0.000 A 
ATOM      3  C   UNL     1       2.023   9.284  17.584  0.00  0.00    +0.000 A 
ATOM      4  C   UNL     1       2.230   8.117  18.303  0.00  0.00    +0.000 A 
ATOM      5  C   UNL     1       1.911   8.025  19.669  0.00  0.00    +0.000 A 
ATOM      6  C   UNL     1       1.211   9.100  20.241  0.00  0.00    +0.000 A 
ENDROOT
BRANCH   1   7
ATOM      7  C   UNL     1       0.129  11.550  20.151  0.00  0.00    +0.000 C 
ATOM      8  C   UNL     1      -0.876  11.183  21.288  0.00  0.00    +0.000 C 
ATOM      9  O   UNL     1      -0.236  12.066  22.226  0.00  0.00    +0.000 OA
ATOM     10  C   UNL     1       0.814  12.368  21.280  0.00  0.00    +0.000 C 
BRANCH   7  11
ATOM     11  C   UNL     1      -0.606  12.357  19.058  0.00  0.00    +0.000 C 
BRANCH  11  17
ATOM     12  C   UNL     1      -2.050  10.266  17.193  0.00  0.00    +0.000 C 
ATOM     13  N   UNL     1      -2.664  11.156  18.143  0.00  0.00    +0.000 N 
ATOM     14  C   UNL     1      -3.996  11.191  18.431  0.00  0.00    +0.000 A 
ATOM     15  N   UNL     1      -4.224  12.116  19.331  0.00  0.00    +0.000 NA
ATOM     16  N   UNL     1      -3.017  12.679  19.665  0.00  0.00    +0.000 NA
ATOM     17  C   UNL     1      -2.072  12.101  18.949  0.00  0.00    +0.000 A 
ENDBRANCH  11  17
ENDBRANCH   7  11
ENDBRANCH   1   7
BRANCH   5  18
ATOM     18  N   UNL     1       2.208   6.855  20.433  0.00  0.00    +0.000 N 
ATOM     19  H   UNL     1       2.539   7.108  21.362  0.00  0.00    +0.000 HD
BRANCH  18  20
ATOM     20  C   UNL     1       3.052   5.927  19.679  0.00  0.00    +0.000 C 
BRANCH  20  21
ATOM     21  C   UNL     1       2.369   4.643  19.250  0.00  0.00    +0.000 A 
ATOM     22  C   UNL     1       2.859   4.316  17.848  0.00  0.00    +0.000 A 
ATOM     23  N   UNL     1       4.084   4.082  17.489  0.00  0.00    +0.000 NA
ATOM     24  C   UNL     1       5.040   4.154  18.478  0.00  0.00    +0.000 A 
ATOM     25  O   UNL     1       5.856   5.072  18.488  0.00  0.00    +0.000 OA
ATOM     26  N   UNL     1       5.037   3.225  19.489  0.00  0.00    +0.000 NA
ATOM     27  C   UNL     1       3.930   2.928  20.094  0.00  0.00    +0.000 A 
ATOM     28  C   UNL     1       2.550   3.485  19.927  0.00  0.00    +0.000 A 
BRANCH  28  29
ATOM     29  C   UNL     1       1.462   2.482  20.116  0.00  0.00    +0.000 C 
ATOM     30  F   UNL     1       0.237   2.952  19.778  0.00  0.00    +0.000 F 
ATOM     31  F   UNL     1       1.681   1.380  19.358  0.00  0.00    +0.000 F 
ATOM     32  F   UNL     1       1.376   2.065  21.405  0.00  0.00    +0.000 F 
ENDBRANCH  28  29
ENDBRANCH  20  21
ENDBRANCH  18  20
ENDBRANCH   5  18
TORSDOF 7
ENDMDL
MODEL 9
REMARK VINA RESULT:      -8.3      2.966      3.826
REMARK  Name = 
REMARK  8 active torsions:
REMARK  status: ('A' for Active; 'I' for Inactive)
REMARK    1  A    between atoms: C_1  and  N_2
REMARK    2  A    between atoms: C_6  and  C_7
REMARK    3  A    between atoms: C_7  and  C_8
REMARK    4  A    between atoms: C_8  and  C_9
REMARK    5  A    between atoms: C_13  and  N_14
REMARK    6  A    between atoms: N_14  and  C_15
REMARK    7  A    between atoms: C_15  and  C_16
REMARK    8  A    between atoms: C_23  and  C_24
REMARK                            x       y       z     vdW  Elec       q    Type
REMARK                         _______ _______ _______ _____ _____    ______ ____
ROOT
ATOM      1  C   UNL     1       0.722   9.728  19.859  0.00  0.00    +0.000 A 
ATOM      2  C   UNL     1       0.620   8.878  20.979  0.00  0.00    +0.000 A 
ATOM      3  C   UNL     1       1.319   7.684  21.062  0.00  0.00    +0.000 A 
ATOM      4  C   UNL     1       2.113   7.282  19.998  0.00  0.00    +0.000 A 
ATOM      5  C   UNL     1       2.162   8.012  18.798  0.00  0.00    +0.000 A 
ATOM      6  C   UNL     1       1.516   9.259  18.774  0.00  0.00    +0.000 A 
ENDROOT
BRANCH   1   7
ATOM      7  C   UNL     1      -0.020  11.162  19.870  0.00  0.00    +0.000 C 
ATOM      8  C   UNL     1       0.315  12.091  18.660  0.00  0.00    +0.000 C 
ATOM      9  O   UNL     1      -1.068  12.190  18.273  0.00  0.00    +0.000 OA
ATOM     10  C   UNL     1      -1.457  11.236  19.286  0.00  0.00    +0.000 C 
BRANCH   7  11
ATOM     11  C   UNL     1       0.233  11.927  21.188  0.00  0.00    +0.000 C 
BRANCH  11  17
ATOM     12  C   UNL     1      -1.689  14.425  21.209  0.00  0.00    +0.000 C 
ATOM     13  N   UNL     1      -1.804  13.231  22.006  0.00  0.00    +0.000 N 
ATOM     14  C   UNL     1      -2.821  12.967  22.873  0.00  0.00    +0.000 A 
ATOM     15  N   UNL     1      -2.620  11.803  23.440  0.00  0.00    +0.000 NA
ATOM     16  N   UNL     1      -1.465  11.277  22.914  0.00  0.00    +0.000 NA
ATOM     17  C   UNL     1      -0.970  12.138  22.046  0.00  0.00    +0.000 A 
ENDBRANCH  11  17
ENDBRANCH   7  11
ENDBRANCH   1   7
BRANCH   5  18
ATOM     18  N   UNL     1       2.906   7.551  17.668  0.00  0.00    +0.000 N 
ATOM     19  H   UNL     1       2.286   7.367  16.881  0.00  0.00    +0.000 HD
BRANCH  18  20
ATOM     20  C   UNL     1       3.818   6.467  18.037  0.00  0.00    +0.000 C 
BRANCH  20  21
ATOM     21  C   UNL     1       3.405   5.091  17.556  0.00  0.00    +0.000 A 
ATOM     22  C   UNL     1       4.528   4.565  16.674  0.00  0.00    +0.000 A 
ATOM     23  N   UNL     1       5.758   4.350  17.029  0.00  0.00    +0.000 NA
ATOM     24  C   UNL     1       6.083   4.645  18.335  0.00  0.00    +0.000 A 
ATOM     25  O   UNL     1       6.810   5.601  18.593  0.00  0.00    +0.000 OA
ATOM     26  N   UNL     1       5.538   3.900  19.352  0.00  0.00    +0.000 NA
ATOM     27  C   UNL     1       4.268   3.641  19.358  0.00  0.00    +0.000 A 
ATOM     28  C   UNL     1       3.182   4.075  18.423  0.00  0.00    +0.000 A 
BRANCH  28  29
ATOM     29  C   UNL     1       2.117   3.053  18.211  0.00  0.00    +0.000 C 
ATOM     30  F   UNL     1       1.903   2.271  19.297  0.00  0.00    +0.000 F 
ATOM     31  F   UNL     1       0.933   3.642  17.915  0.00  0.00    +0.000 F 
ATOM     32  F   UNL     1       2.412   2.218  17.184  0.00  0.00    +0.000 F 
ENDBRANCH  28  29
ENDBRANCH  20  21
ENDBRANCH  18  20
ENDBRANCH   5  18
TORSDOF 7
ENDMDL
