MODEL 1
REMARK VINA RESULT:      -9.0      0.000      0.000
REMARK  Name = 
REMARK  4 active torsions:
REMARK  status: ('A' for Active; 'I' for Inactive)
REMARK    1  A    between atoms: C_2  and  C_17
REMARK    2  A    between atoms: N_3  and  C_4
REMARK    3  A    between atoms: C_9  and  C_10
REMARK    4  A    between atoms: C_10  and  C_11
REMARK                            x       y       z     vdW  Elec       q    Type
REMARK                         _______ _______ _______ _____ _____    ______ ____
ROOT
ATOM      1  O   UNL     1       3.025   8.025  16.889  0.00  0.00    +0.000 OA
ATOM      2  C   UNL     1       2.972   7.524  18.012  0.00  0.00    +0.000 C 
ATOM      3  N   UNL     1       3.704   6.409  18.407  0.00  0.00    +0.000 N 
ATOM      4  H   UNL     1       3.514   5.990  19.306  0.00  0.00    +0.000 HD
ENDROOT
BRANCH   2   5
ATOM      5  C   UNL     1       2.007   8.192  18.942  0.00  0.00    +0.000 A 
ATOM      6  C   UNL     1       1.893   7.584  20.203  0.00  0.00    +0.000 A 
ATOM      7  C   UNL     1       1.175   8.178  21.233  0.00  0.00    +0.000 A 
ATOM      8  C   UNL     1       0.541   9.384  21.038  0.00  0.00    +0.000 A 
ATOM      9  N   UNL     1      -0.099   9.926  22.090  0.00  0.00    +0.000 NA
ATOM     10  C   UNL     1      -0.687  11.116  21.879  0.00  0.00    +0.000 A 
ATOM     11  C   UNL     1      -0.655  11.734  20.648  0.00  0.00    +0.000 A 
ATOM     12  N   UNL     1      -0.016  11.195  19.571  0.00  0.00    +0.000 NA
ATOM     13  C   UNL     1       0.598  10.009  19.763  0.00  0.00    +0.000 A 
ATOM     14  C   UNL     1       1.328   9.396  18.723  0.00  0.00    +0.000 A 
ENDBRANCH   2   5
BRANCH   3  15
ATOM     15  C   UNL     1       4.683   5.763  17.575  0.00  0.00    +0.000 A 
ATOM     16  C   UNL     1       5.904   6.392  17.262  0.00  0.00    +0.000 A 
ATOM     17  C   UNL     1       6.862   5.803  16.432  0.00  0.00    +0.000 A 
ATOM     18  C   UNL     1       6.649   4.533  15.929  0.00  0.00    +0.000 A 
ATOM     19  C   UNL     1       5.468   3.867  16.247  0.00  0.00    +0.000 A 
ATOM     20  C   UNL     1       4.461   4.473  17.042  0.00  0.00    +0.000 A 
BRANCH  20  21
ATOM     21  C   UNL     1       3.164   3.705  17.188  0.00  0.00    +0.000 C 
BRANCH  21  22
ATOM     22  C   UNL     1       2.628   3.549  18.593  0.00  0.00    +0.000 A 
ATOM     23  C   UNL     1       1.339   3.964  18.954  0.00  0.00    +0.000 A 
ATOM     24  C   UNL     1       0.867   3.764  20.253  0.00  0.00    +0.000 A 
ATOM     25  C   UNL     1       1.670   3.137  21.204  0.00  0.00    +0.000 A 
ATOM     26  C   UNL     1       2.947   2.707  20.858  0.00  0.00    +0.000 A 
ATOM     27  C   UNL     1       3.422   2.906  19.559  0.00  0.00    +0.000 A 
ENDBRANCH  21  22
ENDBRANCH  20  21
ENDBRANCH   3  15
TORSDOF 4
ENDMDL
MODEL 2
REMARK VINA RESULT:      -9.0      1.115      1.844
REMARK  Name = 
REMARK  4 active torsions:
REMARK  status: ('A' for Active; 'I' for Inactive)
REMARK    1  A    between atoms: C_2  and  C_17
REMARK    2  A    between atoms: N_3  and  C_4
REMARK    3  A    between atoms: C_9  and  C_10
REMARK    4  A    between atoms: C_10  and  C_11
REMARK                            x       y       z     vdW  Elec       q    Type
REMARK                         _______ _______ _______ _____ _____    ______ ____
ROOT
ATOM      1  O   UNL     1       1.920   6.292  17.647  0.00  0.00    +0.000 OA
ATOM      2  C   UNL     1       2.708   7.070  18.182  0.00  0.00    +0.000 C 
ATOM      3  N   UNL     1       4.092   6.983  18.068  0.00  0.00    +0.000 N 
ATOM      4  H   UNL     1       4.671   7.586  18.634  0.00  0.00    +0.000 HD
ENDROOT
BRANCH   2   5
ATOM      5  C   UNL     1       2.061   8.125  19.023  0.00  0.00    +0.000 A 
ATOM      6  C   UNL     1       1.626   9.256  18.312  0.00  0.00    +0.000 A 
ATOM      7  C   UNL     1       0.856  10.241  18.916  0.00  0.00    +0.000 A 
ATOM      8  C   UNL     1       0.504  10.139  20.242  0.00  0.00    +0.000 A 
ATOM      9  N   UNL     1      -0.281  11.104  20.753  0.00  0.00    +0.000 NA
ATOM     10  C   UNL     1      -0.630  10.966  22.043  0.00  0.00    +0.000 A 
ATOM     11  C   UNL     1      -0.189   9.906  22.806  0.00  0.00    +0.000 A 
ATOM     12  N   UNL     1       0.612   8.923  22.305  0.00  0.00    +0.000 NA
ATOM     13  C   UNL     1       0.961   9.030  21.006  0.00  0.00    +0.000 A 
ATOM     14  C   UNL     1       1.745   8.037  20.383  0.00  0.00    +0.000 A 
ENDBRANCH   2   5
BRANCH   3  15
ATOM     15  C   UNL     1       4.764   6.024  17.232  0.00  0.00    +0.000 A 
ATOM     16  C   UNL     1       5.047   6.306  15.881  0.00  0.00    +0.000 A 
ATOM     17  C   UNL     1       5.671   5.385  15.035  0.00  0.00    +0.000 A 
ATOM     18  C   UNL     1       6.083   4.163  15.533  0.00  0.00    +0.000 A 
ATOM     19  C   UNL     1       5.851   3.864  16.874  0.00  0.00    +0.000 A 
ATOM     20  C   UNL     1       5.170   4.767  17.731  0.00  0.00    +0.000 A 
BRANCH  20  21
ATOM     21  C   UNL     1       4.848   4.261  19.122  0.00  0.00    +0.000 C 
BRANCH  21  22
ATOM     22  C   UNL     1       3.428   3.798  19.358  0.00  0.00    +0.000 A 
ATOM     23  C   UNL     1       2.670   4.234  20.454  0.00  0.00    +0.000 A 
ATOM     24  C   UNL     1       1.347   3.814  20.614  0.00  0.00    +0.000 A 
ATOM     25  C   UNL     1       0.762   2.964  19.677  0.00  0.00    +0.000 A 
ATOM     26  C   UNL     1       1.497   2.534  18.577  0.00  0.00    +0.000 A 
ATOM     27  C   UNL     1       2.819   2.952  18.415  0.00  0.00    +0.000 A 
ENDBRANCH  21  22
ENDBRANCH  20  21
ENDBRANCH   3  15
TORSDOF 4
ENDMDL
MODEL 3
REMARK VINA RESULT:      -8.9      0.576      1.100
REMARK  Name = 
REMARK  4 active torsions:
REMARK  status: ('A' for Active; 'I' for Inactive)
REMARK    1  A    between atoms: C_2  and  C_17
REMARK    2  A    between atoms: N_3  and  C_4
REMARK    3  A    between atoms: C_9  and  C_10
REMARK    4  A    between atoms: C_10  and  C_11
REMARK                            x       y       z     vdW  Elec       q    Type
REMARK                         _______ _______ _______ _____ _____    ______ ____
ROOT
ATOM      1  O   UNL     1       2.620   8.456  17.183  0.00  0.00    +0.000 OA
ATOM      2  C   UNL     1       2.568   7.865  18.260  0.00  0.00    +0.000 C 
ATOM      3  N   UNL     1       3.248   6.684  18.539  0.00  0.00    +0.000 N 
ATOM      4  H   UNL     1       3.058   6.199  19.404  0.00  0.00    +0.000 HD
ENDROOT
BRANCH   2   5
ATOM      5  C   UNL     1       1.662   8.498  19.270  0.00  0.00    +0.000 A 
ATOM      6  C   UNL     1       1.662   7.874  20.529  0.00  0.00    +0.000 A 
ATOM      7  C   UNL     1       1.012   8.439  21.618  0.00  0.00    +0.000 A 
ATOM      8  C   UNL     1       0.336   9.631  21.489  0.00  0.00    +0.000 A 
ATOM      9  N   UNL     1      -0.233  10.146  22.593  0.00  0.00    +0.000 NA
ATOM     10  C   UNL     1      -0.865  11.323  22.444  0.00  0.00    +0.000 A 
ATOM     11  C   UNL     1      -0.943  11.955  21.222  0.00  0.00    +0.000 A 
ATOM     12  N   UNL     1      -0.377  11.443  20.092  0.00  0.00    +0.000 NA
ATOM     13  C   UNL     1       0.278  10.271  20.221  0.00  0.00    +0.000 A 
ATOM     14  C   UNL     1       0.939   9.687  19.120  0.00  0.00    +0.000 A 
ENDBRANCH   2   5
BRANCH   3  15
ATOM     15  C   UNL     1       4.171   6.062  17.627  0.00  0.00    +0.000 A 
ATOM     16  C   UNL     1       5.335   6.730  17.198  0.00  0.00    +0.000 A 
ATOM     17  C   UNL     1       6.235   6.166  16.289  0.00  0.00    +0.000 A 
ATOM     18  C   UNL     1       6.024   4.883  15.821  0.00  0.00    +0.000 A 
ATOM     19  C   UNL     1       4.902   4.179  16.251  0.00  0.00    +0.000 A 
ATOM     20  C   UNL     1       3.950   4.759  17.129  0.00  0.00    +0.000 A 
BRANCH  20  21
ATOM     21  C   UNL     1       2.701   3.947  17.400  0.00  0.00    +0.000 C 
BRANCH  21  22
ATOM     22  C   UNL     1       2.466   3.530  18.834  0.00  0.00    +0.000 A 
ATOM     23  C   UNL     1       3.447   2.880  19.595  0.00  0.00    +0.000 A 
ATOM     24  C   UNL     1       3.204   2.548  20.930  0.00  0.00    +0.000 A 
ATOM     25  C   UNL     1       1.986   2.871  21.524  0.00  0.00    +0.000 A 
ATOM     26  C   UNL     1       1.007   3.529  20.786  0.00  0.00    +0.000 A 
ATOM     27  C   UNL     1       1.247   3.861  19.451  0.00  0.00    +0.000 A 
ENDBRANCH  21  22
ENDBRANCH  20  21
ENDBRANCH   3  15
TORSDOF 4
ENDMDL
MODEL 4
REMARK VINA RESULT:      -8.8      1.104      1.338
REMARK  Name = 
REMARK  4 active torsions:
REMARK  status: ('A' for Active; 'I' for Inactive)
REMARK    1  A    between atoms: C_2  and  C_17
REMARK    2  A    between atoms: N_3  and  C_4
REMARK    3  A    between atoms: C_9  and  C_10
REMARK    4  A    between atoms: C_10  and  C_11
REMARK                            x       y       z     vdW  Elec       q    Type
REMARK                         _______ _______ _______ _____ _____    ______ ____
ROOT
ATOM      1  O   UNL     1       1.844   6.263  17.663  0.00  0.00    +0.000 OA
ATOM      2  C   UNL     1       2.580   7.097  18.190  0.00  0.00    +0.000 C 
ATOM      3  N   UNL     1       3.967   7.085  18.098  0.00  0.00    +0.000 N 
ATOM      4  H   UNL     1       4.503   7.733  18.657  0.00  0.00    +0.000 HD
ENDROOT
BRANCH   2   5
ATOM      5  C   UNL     1       1.862   8.135  18.996  0.00  0.00    +0.000 A 
ATOM      6  C   UNL     1       1.719   7.822  20.358  0.00  0.00    +0.000 A 
ATOM      7  C   UNL     1       1.233   8.752  21.268  0.00  0.00    +0.000 A 
ATOM      8  C   UNL     1       0.866  10.011  20.853  0.00  0.00    +0.000 A 
ATOM      9  N   UNL     1       0.447  10.878  21.793  0.00  0.00    +0.000 NA
ATOM     10  C   UNL     1       0.118  12.108  21.363  0.00  0.00    +0.000 A 
ATOM     11  C   UNL     1       0.187  12.455  20.031  0.00  0.00    +0.000 A 
ATOM     12  N   UNL     1       0.604  11.587  19.066  0.00  0.00    +0.000 NA
ATOM     13  C   UNL     1       0.956  10.350  19.476  0.00  0.00    +0.000 A 
ATOM     14  C   UNL     1       1.448   9.398  18.559  0.00  0.00    +0.000 A 
ENDBRANCH   2   5
BRANCH   3  15
ATOM     15  C   UNL     1       4.705   6.145  17.296  0.00  0.00    +0.000 A 
ATOM     16  C   UNL     1       5.004   6.415  15.946  0.00  0.00    +0.000 A 
ATOM     17  C   UNL     1       5.691   5.511  15.132  0.00  0.00    +0.000 A 
ATOM     18  C   UNL     1       6.152   4.321  15.663  0.00  0.00    +0.000 A 
ATOM     19  C   UNL     1       5.904   4.035  17.004  0.00  0.00    +0.000 A 
ATOM     20  C   UNL     1       5.160   4.918  17.828  0.00  0.00    +0.000 A 
BRANCH  20  21
ATOM     21  C   UNL     1       4.831   4.423  19.222  0.00  0.00    +0.000 C 
BRANCH  21  22
ATOM     22  C   UNL     1       3.431   3.895  19.436  0.00  0.00    +0.000 A 
ATOM     23  C   UNL     1       2.645   4.277  20.532  0.00  0.00    +0.000 A 
ATOM     24  C   UNL     1       1.340   3.798  20.671  0.00  0.00    +0.000 A 
ATOM     25  C   UNL     1       0.800   2.942  19.714  0.00  0.00    +0.000 A 
ATOM     26  C   UNL     1       1.563   2.564  18.612  0.00  0.00    +0.000 A 
ATOM     27  C   UNL     1       2.868   3.042  18.471  0.00  0.00    +0.000 A 
ENDBRANCH  21  22
ENDBRANCH  20  21
ENDBRANCH   3  15
TORSDOF 4
ENDMDL
MODEL 5
REMARK VINA RESULT:      -8.8      0.951      1.663
REMARK  Name = 
REMARK  4 active torsions:
REMARK  status: ('A' for Active; 'I' for Inactive)
REMARK    1  A    between atoms: C_2  and  C_17
REMARK    2  A    between atoms: N_3  and  C_4
REMARK    3  A    between atoms: C_9  and  C_10
REMARK    4  A    between atoms: C_10  and  C_11
REMARK                            x       y       z     vdW  Elec       q    Type
REMARK                         _______ _______ _______ _____ _____    ______ ____
ROOT
ATOM      1  O   UNL     1       2.336   8.471  17.007  0.00  0.00    +0.000 OA
ATOM      2  C   UNL     1       2.441   8.083  18.170  0.00  0.00    +0.000 C 
ATOM      3  N   UNL     1       3.144   6.947  18.556  0.00  0.00    +0.000 N 
ATOM      4  H   UNL     1       3.081   6.631  19.513  0.00  0.00    +0.000 HD
ENDROOT
BRANCH   2   5
ATOM      5  C   UNL     1       1.704   8.920  19.169  0.00  0.00    +0.000 A 
ATOM      6  C   UNL     1       1.042  10.033  18.625  0.00  0.00    +0.000 A 
ATOM      7  C   UNL     1       0.176  10.806  19.388  0.00  0.00    +0.000 A 
ATOM      8  C   UNL     1      -0.049  10.505  20.712  0.00  0.00    +0.000 A 
ATOM      9  N   UNL     1      -0.933  11.266  21.381  0.00  0.00    +0.000 NA
ATOM     10  C   UNL     1      -1.152  10.933  22.665  0.00  0.00    +0.000 A 
ATOM     11  C   UNL     1      -0.491   9.885  23.267  0.00  0.00    +0.000 A 
ATOM     12  N   UNL     1       0.412   9.108  22.605  0.00  0.00    +0.000 NA
ATOM     13  C   UNL     1       0.636   9.411  21.309  0.00  0.00    +0.000 A 
ATOM     14  C   UNL     1       1.515   8.635  20.526  0.00  0.00    +0.000 A 
ENDBRANCH   2   5
BRANCH   3  15
ATOM     15  C   UNL     1       3.912   6.138  17.647  0.00  0.00    +0.000 A 
ATOM     16  C   UNL     1       5.094   6.627  17.057  0.00  0.00    +0.000 A 
ATOM     17  C   UNL     1       5.846   5.878  16.147  0.00  0.00    +0.000 A 
ATOM     18  C   UNL     1       5.465   4.586  15.840  0.00  0.00    +0.000 A 
ATOM     19  C   UNL     1       4.320   4.058  16.431  0.00  0.00    +0.000 A 
ATOM     20  C   UNL     1       3.516   4.824  17.314  0.00  0.00    +0.000 A 
BRANCH  20  21
ATOM     21  C   UNL     1       2.219   4.187  17.769  0.00  0.00    +0.000 C 
BRANCH  21  22
ATOM     22  C   UNL     1       2.202   3.626  19.173  0.00  0.00    +0.000 A 
ATOM     23  C   UNL     1       1.042   3.614  19.961  0.00  0.00    +0.000 A 
ATOM     24  C   UNL     1       1.058   3.049  21.238  0.00  0.00    +0.000 A 
ATOM     25  C   UNL     1       2.226   2.479  21.740  0.00  0.00    +0.000 A 
ATOM     26  C   UNL     1       3.382   2.470  20.965  0.00  0.00    +0.000 A 
ATOM     27  C   UNL     1       3.369   3.034  19.687  0.00  0.00    +0.000 A 
ENDBRANCH  21  22
ENDBRANCH  20  21
ENDBRANCH   3  15
TORSDOF 4
ENDMDL
MODEL 6
REMARK VINA RESULT:      -8.7      0.912      1.332
REMARK  Name = 
REMARK  4 active torsions:
REMARK  status: ('A' for Active; 'I' for Inactive)
REMARK    1  A    between atoms: C_2  and  C_17
REMARK    2  A    between atoms: N_3  and  C_4
REMARK    3  A    between atoms: C_9  and  C_10
REMARK    4  A    between atoms: C_10  and  C_11
REMARK                            x       y       z     vdW  Elec       q    Type
REMARK                         _______ _______ _______ _____ _____    ______ ____
ROOT
ATOM      1  O   UNL     1       3.891   6.245  19.687  0.00  0.00    +0.000 OA
ATOM      2  C   UNL     1       3.262   6.806  18.790  0.00  0.00    +0.000 C 
ATOM      3  N   UNL     1       3.538   6.662  17.434  0.00  0.00    +0.000 N 
ATOM      4  H   UNL     1       3.054   7.249  16.769  0.00  0.00    +0.000 HD
ENDROOT
BRANCH   2   5
ATOM      5  C   UNL     1       2.174   7.714  19.272  0.00  0.00    +0.000 A 
ATOM      6  C   UNL     1       1.732   7.455  20.579  0.00  0.00    +0.000 A 
ATOM      7  C   UNL     1       0.855   8.311  21.232  0.00  0.00    +0.000 A 
ATOM      8  C   UNL     1       0.384   9.442  20.604  0.00  0.00    +0.000 A 
ATOM      9  N   UNL     1      -0.426  10.252  21.308  0.00  0.00    +0.000 NA
ATOM     10  C   UNL     1      -0.850  11.362  20.680  0.00  0.00    +0.000 A 
ATOM     11  C   UNL     1      -0.492  11.641  19.379  0.00  0.00    +0.000 A 
ATOM     12  N   UNL     1       0.323  10.827  18.649  0.00  0.00    +0.000 NA
ATOM     13  C   UNL     1       0.777   9.716  19.265  0.00  0.00    +0.000 A 
ATOM     14  C   UNL     1       1.665   8.837  18.611  0.00  0.00    +0.000 A 
ENDBRANCH   2   5
BRANCH   3  15
ATOM     15  C   UNL     1       4.534   5.764  16.914  0.00  0.00    +0.000 A 
ATOM     16  C   UNL     1       5.812   6.227  16.544  0.00  0.00    +0.000 A 
ATOM     17  C   UNL     1       6.791   5.386  16.008  0.00  0.00    +0.000 A 
ATOM     18  C   UNL     1       6.537   4.034  15.874  0.00  0.00    +0.000 A 
ATOM     19  C   UNL     1       5.295   3.535  16.261  0.00  0.00    +0.000 A 
ATOM     20  C   UNL     1       4.272   4.385  16.756  0.00  0.00    +0.000 A 
BRANCH  20  21
ATOM     21  C   UNL     1       2.922   3.743  16.998  0.00  0.00    +0.000 C 
BRANCH  21  22
ATOM     22  C   UNL     1       2.556   3.467  18.439  0.00  0.00    +0.000 A 
ATOM     23  C   UNL     1       3.452   2.872  19.339  0.00  0.00    +0.000 A 
ATOM     24  C   UNL     1       3.090   2.672  20.673  0.00  0.00    +0.000 A 
ATOM     25  C   UNL     1       1.835   3.073  21.128  0.00  0.00    +0.000 A 
ATOM     26  C   UNL     1       0.940   3.678  20.251  0.00  0.00    +0.000 A 
ATOM     27  C   UNL     1       1.300   3.879  18.916  0.00  0.00    +0.000 A 
ENDBRANCH  21  22
ENDBRANCH  20  21
ENDBRANCH   3  15
TORSDOF 4
ENDMDL
MODEL 7
REMARK VINA RESULT:      -8.5      0.728      1.736
REMARK  Name = 
REMARK  4 active torsions:
REMARK  status: ('A' for Active; 'I' for Inactive)
REMARK    1  A    between atoms: C_2  and  C_17
REMARK    2  A    between atoms: N_3  and  C_4
REMARK    3  A    between atoms: C_9  and  C_10
REMARK    4  A    between atoms: C_10  and  C_11
REMARK                            x       y       z     vdW  Elec       q    Type
REMARK                         _______ _______ _______ _____ _____    ______ ____
ROOT
ATOM      1  O   UNL     1       2.788   8.041  16.812  0.00  0.00    +0.000 OA
ATOM      2  C   UNL     1       2.898   7.711  17.993  0.00  0.00    +0.000 C 
ATOM      3  N   UNL     1       3.656   6.633  18.437  0.00  0.00    +0.000 N 
ATOM      4  H   UNL     1       3.598   6.357  19.406  0.00  0.00    +0.000 HD
ENDROOT
BRANCH   2   5
ATOM      5  C   UNL     1       2.104   8.550  18.945  0.00  0.00    +0.000 A 
ATOM      6  C   UNL     1       1.459   9.651  18.358  0.00  0.00    +0.000 A 
ATOM      7  C   UNL     1       0.548  10.422  19.069  0.00  0.00    +0.000 A 
ATOM      8  C   UNL     1       0.260  10.131  20.382  0.00  0.00    +0.000 A 
ATOM      9  N   UNL     1      -0.664  10.889  20.999  0.00  0.00    +0.000 NA
ATOM     10  C   UNL     1      -0.945  10.567  22.273  0.00  0.00    +0.000 A 
ATOM     11  C   UNL     1      -0.305   9.531  22.918  0.00  0.00    +0.000 A 
ATOM     12  N   UNL     1       0.638   8.757  22.309  0.00  0.00    +0.000 NA
ATOM     13  C   UNL     1       0.924   9.050  21.023  0.00  0.00    +0.000 A 
ATOM     14  C   UNL     1       1.849   8.275  20.293  0.00  0.00    +0.000 A 
ENDBRANCH   2   5
BRANCH   3  15
ATOM     15  C   UNL     1       4.479   5.828  17.574  0.00  0.00    +0.000 A 
ATOM     16  C   UNL     1       5.732   6.288  17.124  0.00  0.00    +0.000 A 
ATOM     17  C   UNL     1       6.542   5.544  16.261  0.00  0.00    +0.000 A 
ATOM     18  C   UNL     1       6.142   4.283  15.861  0.00  0.00    +0.000 A 
ATOM     19  C   UNL     1       4.924   3.781  16.314  0.00  0.00    +0.000 A 
ATOM     20  C   UNL     1       4.066   4.547  17.145  0.00  0.00    +0.000 A 
BRANCH  20  21
ATOM     21  C   UNL     1       2.707   3.949  17.443  0.00  0.00    +0.000 C 
BRANCH  21  22
ATOM     22  C   UNL     1       2.458   3.519  18.871  0.00  0.00    +0.000 A 
ATOM     23  C   UNL     1       3.424   2.842  19.629  0.00  0.00    +0.000 A 
ATOM     24  C   UNL     1       3.170   2.498  20.958  0.00  0.00    +0.000 A 
ATOM     25  C   UNL     1       1.955   2.835  21.551  0.00  0.00    +0.000 A 
ATOM     26  C   UNL     1       0.991   3.520  20.817  0.00  0.00    +0.000 A 
ATOM     27  C   UNL     1       1.242   3.864  19.487  0.00  0.00    +0.000 A 
ENDBRANCH  21  22
ENDBRANCH  20  21
ENDBRANCH   3  15
TORSDOF 4
ENDMDL
MODEL 8
REMARK VINA RESULT:      -8.5      1.495      3.947
REMARK  Name = 
REMARK  4 active torsions:
REMARK  status: ('A' for Active; 'I' for Inactive)
REMARK    1  A    between atoms: C_2  and  C_17
REMARK    2  A    between atoms: N_3  and  C_4
REMARK    3  A    between atoms: C_9  and  C_10
REMARK    4  A    between atoms: C_10  and  C_11
REMARK                            x       y       z     vdW  Elec       q    Type
REMARK                         _______ _______ _______ _____ _____    ______ ____
ROOT
ATOM      1  O   UNL     1       3.401   6.269  20.083  0.00  0.00    +0.000 OA
ATOM      2  C   UNL     1       2.559   6.525  19.222  0.00  0.00    +0.000 C 
ATOM      3  N   UNL     1       2.144   5.629  18.243  0.00  0.00    +0.000 N 
ATOM      4  H   UNL     1       1.540   5.956  17.502  0.00  0.00    +0.000 HD
ENDROOT
BRANCH   2   5
ATOM      5  C   UNL     1       2.026   7.923  19.276  0.00  0.00    +0.000 A 
ATOM      6  C   UNL     1       2.127   8.634  18.069  0.00  0.00    +0.000 A 
ATOM      7  C   UNL     1       1.526   9.876  17.905  0.00  0.00    +0.000 A 
ATOM      8  C   UNL     1       0.817  10.450  18.935  0.00  0.00    +0.000 A 
ATOM      9  N   UNL     1       0.221  11.632  18.696  0.00  0.00    +0.000 NA
ATOM     10  C   UNL     1      -0.486  12.158  19.711  0.00  0.00    +0.000 A 
ATOM     11  C   UNL     1      -0.576  11.532  20.935  0.00  0.00    +0.000 A 
ATOM     12  N   UNL     1       0.027  10.337  21.196  0.00  0.00    +0.000 NA
ATOM     13  C   UNL     1       0.728   9.779  20.186  0.00  0.00    +0.000 A 
ATOM     14  C   UNL     1       1.346   8.521  20.342  0.00  0.00    +0.000 A 
ENDBRANCH   2   5
BRANCH   3  15
ATOM     15  C   UNL     1       2.582   4.261  18.177  0.00  0.00    +0.000 A 
ATOM     16  C   UNL     1       1.931   3.250  18.913  0.00  0.00    +0.000 A 
ATOM     17  C   UNL     1       2.351   1.917  18.895  0.00  0.00    +0.000 A 
ATOM     18  C   UNL     1       3.410   1.542  18.090  0.00  0.00    +0.000 A 
ATOM     19  C   UNL     1       4.055   2.508  17.322  0.00  0.00    +0.000 A 
ATOM     20  C   UNL     1       3.676   3.874  17.372  0.00  0.00    +0.000 A 
BRANCH  20  21
ATOM     21  C   UNL     1       4.552   4.845  16.608  0.00  0.00    +0.000 C 
BRANCH  21  22
ATOM     22  C   UNL     1       5.695   5.469  17.375  0.00  0.00    +0.000 A 
ATOM     23  C   UNL     1       6.184   4.921  18.570  0.00  0.00    +0.000 A 
ATOM     24  C   UNL     1       7.269   5.505  19.227  0.00  0.00    +0.000 A 
ATOM     25  C   UNL     1       7.887   6.636  18.696  0.00  0.00    +0.000 A 
ATOM     26  C   UNL     1       7.422   7.184  17.504  0.00  0.00    +0.000 A 
ATOM     27  C   UNL     1       6.337   6.602  16.844  0.00  0.00    +0.000 A 
ENDBRANCH  21  22
ENDBRANCH  20  21
ENDBRANCH   3  15
TORSDOF 4
ENDMDL
MODEL 9
REMARK VINA RESULT:      -8.3      1.185      1.464
REMARK  Name = 
REMARK  4 active torsions:
REMARK  status: ('A' for Active; 'I' for Inactive)
REMARK    1  A    between atoms: C_2  and  C_17
REMARK    2  A    between atoms: N_3  and  C_4
REMARK    3  A    between atoms: C_9  and  C_10
REMARK    4  A    between atoms: C_10  and  C_11
REMARK                            x       y       z     vdW  Elec       q    Type
REMARK                         _______ _______ _______ _____ _____    ______ ____
ROOT
ATOM      1  O   UNL     1       1.950   8.896  17.335  0.00  0.00    +0.000 OA
ATOM      2  C   UNL     1       2.051   8.471  18.485  0.00  0.00    +0.000 C 
ATOM      3  N   UNL     1       2.812   7.364  18.845  0.00  0.00    +0.000 N 
ATOM      4  H   UNL     1       2.747   7.008  19.788  0.00  0.00    +0.000 HD
ENDROOT
BRANCH   2   5
ATOM      5  C   UNL     1       1.242   9.222  19.496  0.00  0.00    +0.000 A 
ATOM      6  C   UNL     1       1.190   8.623  20.765  0.00  0.00    +0.000 A 
ATOM      7  C   UNL     1       0.628   9.278  21.854  0.00  0.00    +0.000 A 
ATOM      8  C   UNL     1       0.094  10.538  21.712  0.00  0.00    +0.000 A 
ATOM      9  N   UNL     1      -0.392  11.134  22.815  0.00  0.00    +0.000 NA
ATOM     10  C   UNL     1      -0.885  12.374  22.653  0.00  0.00    +0.000 A 
ATOM     11  C   UNL     1      -0.909  12.991  21.421  0.00  0.00    +0.000 A 
ATOM     12  N   UNL     1      -0.425  12.399  20.293  0.00  0.00    +0.000 NA
ATOM     13  C   UNL     1       0.091  11.160  20.434  0.00  0.00    +0.000 A 
ATOM     14  C   UNL     1       0.661  10.485  19.335  0.00  0.00    +0.000 A 
ENDBRANCH   2   5
BRANCH   3  15
ATOM     15  C   UNL     1       3.649   6.639  17.926  0.00  0.00    +0.000 A 
ATOM     16  C   UNL     1       4.860   7.185  17.455  0.00  0.00    +0.000 A 
ATOM     17  C   UNL     1       5.679   6.519  16.540  0.00  0.00    +0.000 A 
ATOM     18  C   UNL     1       5.337   5.253  16.105  0.00  0.00    +0.000 A 
ATOM     19  C   UNL     1       4.165   4.667  16.577  0.00  0.00    +0.000 A 
ATOM     20  C   UNL     1       3.294   5.352  17.463  0.00  0.00    +0.000 A 
BRANCH  20  21
ATOM     21  C   UNL     1       1.981   4.668  17.781  0.00  0.00    +0.000 C 
BRANCH  21  22
ATOM     22  C   UNL     1       1.913   3.915  19.090  0.00  0.00    +0.000 A 
ATOM     23  C   UNL     1       2.087   4.549  20.329  0.00  0.00    +0.000 A 
ATOM     24  C   UNL     1       1.975   3.824  21.518  0.00  0.00    +0.000 A 
ATOM     25  C   UNL     1       1.678   2.463  21.486  0.00  0.00    +0.000 A 
ATOM     26  C   UNL     1       1.489   1.823  20.266  0.00  0.00    +0.000 A 
ATOM     27  C   UNL     1       1.600   2.545  19.075  0.00  0.00    +0.000 A 
ENDBRANCH  21  22
ENDBRANCH  20  21
ENDBRANCH   3  15
TORSDOF 4
ENDMDL
