MODEL 1
REMARK VINA RESULT:      -8.4      0.000      0.000
REMARK  Name = 
REMARK  5 active torsions:
REMARK  status: ('A' for Active; 'I' for Inactive)
REMARK    1  A    between atoms: C_1  and  C_2
REMARK    2  A    between atoms: C_5  and  N_6
REMARK    3  A    between atoms: C_7  and  C_9
REMARK    4  A    between atoms: C_18  and  S_19
REMARK    5  A    between atoms: S_19  and  N_22
REMARK                            x       y       z     vdW  Elec       q    Type
REMARK                         _______ _______ _______ _____ _____    ______ ____
ROOT
ATOM      1  C   UNL     1      -1.198  11.136  22.720  0.00  0.00    +0.000 C 
ATOM      2  C   UNL     1      -0.230  10.351  21.880  0.00  0.00    +0.000 A 
ATOM      3  C   UNL     1       0.444   9.310  22.537  0.00  0.00    +0.000 A 
ATOM      4  C   UNL     1       1.280   8.431  21.855  0.00  0.00    +0.000 A 
ATOM      5  C   UNL     1       1.444   8.536  20.478  0.00  0.00    +0.000 A 
ATOM      6  C   UNL     1       0.817   9.594  19.808  0.00  0.00    +0.000 A 
ATOM      7  C   UNL     1       0.035  10.539  20.499  0.00  0.00    +0.000 A 
ENDROOT
BRANCH   5   8
ATOM      8  N   UNL     1       2.188   7.604  19.725  0.00  0.00    +0.000 N 
ATOM      9  C   UNL     1       2.155   6.225  19.866  0.00  0.00    +0.000 C 
ATOM     10  O   UNL     1       1.523   5.614  20.724  0.00  0.00    +0.000 OA
ATOM     11  H   UNL     1       2.816   7.993  19.026  0.00  0.00    +0.000 HD
BRANCH   9  12
ATOM     12  C   UNL     1       2.996   5.417  18.940  0.00  0.00    +0.000 A 
ATOM     13  C   UNL     1       4.395   5.488  19.082  0.00  0.00    +0.000 A 
ATOM     14  C   UNL     1       5.233   4.790  18.211  0.00  0.00    +0.000 A 
ATOM     15  C   UNL     1       4.674   4.011  17.205  0.00  0.00    +0.000 A 
ATOM     16  F   UNL     1       5.477   3.352  16.360  0.00  0.00    +0.000 F 
ATOM     17  C   UNL     1       3.297   3.910  17.059  0.00  0.00    +0.000 A 
ATOM     18  C   UNL     1       2.467   4.613  17.927  0.00  0.00    +0.000 A 
ATOM     19  F   UNL     1       1.140   4.509  17.753  0.00  0.00    +0.000 F 
ENDBRANCH   9  12
ENDBRANCH   5   8
BRANCH   7  20
ATOM     20  S   UNL     1      -0.698  11.864  19.494  0.00  0.00    +0.000 S 
ATOM     21  O   UNL     1      -1.152  12.875  20.427  0.00  0.00    +0.000 OA
ATOM     22  O   UNL     1       0.254  12.198  18.461  0.00  0.00    +0.000 OA
BRANCH  20  23
ATOM     23  N   UNL     1      -2.073  11.177  18.744  0.00  0.00    +0.000 NA
ATOM     24  C   UNL     1      -3.329  11.931  18.924  0.00  0.00    +0.000 C 
ATOM     25  C   UNL     1      -4.516  11.443  18.111  0.00  0.00    +0.000 C 
ATOM     26  C   UNL     1      -4.146  11.020  16.706  0.00  0.00    +0.000 C 
ATOM     27  C   UNL     1      -3.082   9.945  16.770  0.00  0.00    +0.000 C 
ATOM     28  C   UNL     1      -1.832  10.378  17.526  0.00  0.00    +0.000 C 
ENDBRANCH  20  23
ENDBRANCH   7  20
TORSDOF 4
ENDMDL
MODEL 2
REMARK VINA RESULT:      -8.3      1.128      1.129
REMARK  Name = 
REMARK  5 active torsions:
REMARK  status: ('A' for Active; 'I' for Inactive)
REMARK    1  A    between atoms: C_1  and  C_2
REMARK    2  A    between atoms: C_5  and  N_6
REMARK    3  A    between atoms: C_7  and  C_9
REMARK    4  A    between atoms: C_18  and  S_19
REMARK    5  A    between atoms: S_19  and  N_22
REMARK                            x       y       z     vdW  Elec       q    Type
REMARK                         _______ _______ _______ _____ _____    ______ ____
ROOT
ATOM      1  C   UNL     1      -1.225  11.255  22.760  0.00  0.00    +0.000 C 
ATOM      2  C   UNL     1      -0.270  10.437  21.938  0.00  0.00    +0.000 A 
ATOM      3  C   UNL     1       0.390   9.401  22.618  0.00  0.00    +0.000 A 
ATOM      4  C   UNL     1       1.212   8.495  21.955  0.00  0.00    +0.000 A 
ATOM      5  C   UNL     1       1.376   8.567  20.576  0.00  0.00    +0.000 A 
ATOM      6  C   UNL     1       0.764   9.618  19.882  0.00  0.00    +0.000 A 
ATOM      7  C   UNL     1      -0.004  10.589  20.553  0.00  0.00    +0.000 A 
ENDROOT
BRANCH   5   8
ATOM      8  N   UNL     1       2.106   7.608  19.844  0.00  0.00    +0.000 N 
ATOM      9  C   UNL     1       2.338   7.625  18.477  0.00  0.00    +0.000 C 
ATOM     10  O   UNL     1       1.875   8.446  17.688  0.00  0.00    +0.000 OA
ATOM     11  H   UNL     1       2.480   6.826  20.377  0.00  0.00    +0.000 HD
BRANCH   9  12
ATOM     12  C   UNL     1       3.170   6.530  17.904  0.00  0.00    +0.000 A 
ATOM     13  C   UNL     1       4.402   6.872  17.316  0.00  0.00    +0.000 A 
ATOM     14  C   UNL     1       5.200   5.893  16.721  0.00  0.00    +0.000 A 
ATOM     15  C   UNL     1       4.773   4.571  16.724  0.00  0.00    +0.000 A 
ATOM     16  F   UNL     1       5.531   3.633  16.141  0.00  0.00    +0.000 F 
ATOM     17  C   UNL     1       3.570   4.208  17.316  0.00  0.00    +0.000 A 
ATOM     18  C   UNL     1       2.776   5.189  17.902  0.00  0.00    +0.000 A 
ATOM     19  F   UNL     1       1.612   4.813  18.453  0.00  0.00    +0.000 F 
ENDBRANCH   9  12
ENDBRANCH   5   8
BRANCH   7  20
ATOM     20  S   UNL     1      -0.719  11.902  19.519  0.00  0.00    +0.000 S 
ATOM     21  O   UNL     1      -1.162  12.937  20.429  0.00  0.00    +0.000 OA
ATOM     22  O   UNL     1       0.240  12.203  18.481  0.00  0.00    +0.000 OA
BRANCH  20  23
ATOM     23  N   UNL     1      -2.100  11.216  18.780  0.00  0.00    +0.000 NA
ATOM     24  C   UNL     1      -3.351  11.979  18.956  0.00  0.00    +0.000 C 
ATOM     25  C   UNL     1      -4.544  11.491  18.153  0.00  0.00    +0.000 C 
ATOM     26  C   UNL     1      -4.182  11.052  16.750  0.00  0.00    +0.000 C 
ATOM     27  C   UNL     1      -3.124   9.970  16.822  0.00  0.00    +0.000 C 
ATOM     28  C   UNL     1      -1.869  10.403  17.570  0.00  0.00    +0.000 C 
ENDBRANCH  20  23
ENDBRANCH   7  20
TORSDOF 4
ENDMDL
MODEL 3
REMARK VINA RESULT:      -8.2      1.641      2.342
REMARK  Name = 
REMARK  5 active torsions:
REMARK  status: ('A' for Active; 'I' for Inactive)
REMARK    1  A    between atoms: C_1  and  C_2
REMARK    2  A    between atoms: C_5  and  N_6
REMARK    3  A    between atoms: C_7  and  C_9
REMARK    4  A    between atoms: C_18  and  S_19
REMARK    5  A    between atoms: S_19  and  N_22
REMARK                            x       y       z     vdW  Elec       q    Type
REMARK                         _______ _______ _______ _____ _____    ______ ____
ROOT
ATOM      1  C   UNL     1      -0.471   9.613  21.861  0.00  0.00    +0.000 C 
ATOM      2  C   UNL     1       0.541   9.057  20.901  0.00  0.00    +0.000 A 
ATOM      3  C   UNL     1       0.995   7.757  21.175  0.00  0.00    +0.000 A 
ATOM      4  C   UNL     1       1.843   7.076  20.307  0.00  0.00    +0.000 A 
ATOM      5  C   UNL     1       2.240   7.656  19.107  0.00  0.00    +0.000 A 
ATOM      6  C   UNL     1       1.837   8.969  18.832  0.00  0.00    +0.000 A 
ATOM      7  C   UNL     1       1.046   9.698  19.740  0.00  0.00    +0.000 A 
ENDROOT
BRANCH   5   8
ATOM      8  N   UNL     1       3.004   6.967  18.142  0.00  0.00    +0.000 N 
ATOM      9  C   UNL     1       3.969   6.004  18.399  0.00  0.00    +0.000 C 
ATOM     10  O   UNL     1       4.352   5.662  19.515  0.00  0.00    +0.000 OA
ATOM     11  H   UNL     1       2.835   7.220  17.172  0.00  0.00    +0.000 HD
BRANCH   9  12
ATOM     12  C   UNL     1       4.638   5.369  17.229  0.00  0.00    +0.000 A 
ATOM     13  C   UNL     1       5.068   6.202  16.179  0.00  0.00    +0.000 A 
ATOM     14  C   UNL     1       5.657   5.657  15.037  0.00  0.00    +0.000 A 
ATOM     15  C   UNL     1       5.828   4.281  14.948  0.00  0.00    +0.000 A 
ATOM     16  F   UNL     1       6.379   3.756  13.847  0.00  0.00    +0.000 F 
ATOM     17  C   UNL     1       5.429   3.442  15.980  0.00  0.00    +0.000 A 
ATOM     18  C   UNL     1       4.837   3.991  17.114  0.00  0.00    +0.000 A 
ATOM     19  F   UNL     1       4.448   3.156  18.089  0.00  0.00    +0.000 F 
ENDBRANCH   9  12
ENDBRANCH   5   8
BRANCH   7  20
ATOM     20  S   UNL     1       0.620  11.396  19.251  0.00  0.00    +0.000 S 
ATOM     21  O   UNL     1       0.388  12.125  20.480  0.00  0.00    +0.000 OA
ATOM     22  O   UNL     1       1.627  11.841  18.316  0.00  0.00    +0.000 OA
BRANCH  20  23
ATOM     23  N   UNL     1      -0.866  11.282  18.412  0.00  0.00    +0.000 NA
ATOM     24  C   UNL     1      -1.005  10.102  17.537  0.00  0.00    +0.000 C 
ATOM     25  C   UNL     1      -2.382   9.882  16.935  0.00  0.00    +0.000 C 
ATOM     26  C   UNL     1      -3.511  10.179  17.898  0.00  0.00    +0.000 C 
ATOM     27  C   UNL     1      -3.382  11.603  18.397  0.00  0.00    +0.000 C 
ATOM     28  C   UNL     1      -2.043  11.888  19.066  0.00  0.00    +0.000 C 
ENDBRANCH  20  23
ENDBRANCH   7  20
TORSDOF 4
ENDMDL
MODEL 4
REMARK VINA RESULT:      -8.1      4.050      8.480
REMARK  Name = 
REMARK  5 active torsions:
REMARK  status: ('A' for Active; 'I' for Inactive)
REMARK    1  A    between atoms: C_1  and  C_2
REMARK    2  A    between atoms: C_5  and  N_6
REMARK    3  A    between atoms: C_7  and  C_9
REMARK    4  A    between atoms: C_18  and  S_19
REMARK    5  A    between atoms: S_19  and  N_22
REMARK                            x       y       z     vdW  Elec       q    Type
REMARK                         _______ _______ _______ _____ _____    ______ ____
ROOT
ATOM      1  C   UNL     1       5.181   4.840  15.400  0.00  0.00    +0.000 C 
ATOM      2  C   UNL     1       4.498   5.481  16.574  0.00  0.00    +0.000 A 
ATOM      3  C   UNL     1       4.733   6.855  16.743  0.00  0.00    +0.000 A 
ATOM      4  C   UNL     1       4.074   7.598  17.718  0.00  0.00    +0.000 A 
ATOM      5  C   UNL     1       3.123   7.002  18.538  0.00  0.00    +0.000 A 
ATOM      6  C   UNL     1       2.904   5.624  18.420  0.00  0.00    +0.000 A 
ATOM      7  C   UNL     1       3.623   4.845  17.493  0.00  0.00    +0.000 A 
ENDROOT
BRANCH   5   8
ATOM      8  N   UNL     1       2.347   7.732  19.463  0.00  0.00    +0.000 N 
ATOM      9  C   UNL     1       1.510   8.798  19.168  0.00  0.00    +0.000 C 
ATOM     10  O   UNL     1       1.378   9.311  18.059  0.00  0.00    +0.000 OA
ATOM     11  H   UNL     1       2.430   7.452  20.437  0.00  0.00    +0.000 HD
BRANCH   9  12
ATOM     12  C   UNL     1       0.749   9.409  20.293  0.00  0.00    +0.000 A 
ATOM     13  C   UNL     1       0.864   8.823  21.567  0.00  0.00    +0.000 A 
ATOM     14  C   UNL     1       0.135   9.325  22.647  0.00  0.00    +0.000 A 
ATOM     15  C   UNL     1      -0.698  10.420  22.457  0.00  0.00    +0.000 A 
ATOM     16  F   UNL     1      -1.409  10.893  23.489  0.00  0.00    +0.000 F 
ATOM     17  C   UNL     1      -0.812  11.027  21.214  0.00  0.00    +0.000 A 
ATOM     18  C   UNL     1      -0.088  10.518  20.139  0.00  0.00    +0.000 A 
ATOM     19  F   UNL     1      -0.228  11.115  18.945  0.00  0.00    +0.000 F 
ENDBRANCH   9  12
ENDBRANCH   5   8
BRANCH   7  20
ATOM     20  S   UNL     1       3.241   3.068  17.469  0.00  0.00    +0.000 S 
ATOM     21  O   UNL     1       2.174   2.897  16.506  0.00  0.00    +0.000 OA
ATOM     22  O   UNL     1       4.491   2.361  17.309  0.00  0.00    +0.000 OA
BRANCH  20  23
ATOM     23  N   UNL     1       2.622   2.702  19.020  0.00  0.00    +0.000 NA
ATOM     24  C   UNL     1       3.635   2.558  20.084  0.00  0.00    +0.000 C 
ATOM     25  C   UNL     1       3.097   2.422  21.498  0.00  0.00    +0.000 C 
ATOM     26  C   UNL     1       1.911   3.320  21.775  0.00  0.00    +0.000 C 
ATOM     27  C   UNL     1       0.815   3.028  20.771  0.00  0.00    +0.000 C 
ATOM     28  C   UNL     1       1.264   3.195  19.324  0.00  0.00    +0.000 C 
ENDBRANCH  20  23
ENDBRANCH   7  20
TORSDOF 4
ENDMDL
MODEL 5
REMARK VINA RESULT:      -8.0      1.877      2.637
REMARK  Name = 
REMARK  5 active torsions:
REMARK  status: ('A' for Active; 'I' for Inactive)
REMARK    1  A    between atoms: C_1  and  C_2
REMARK    2  A    between atoms: C_5  and  N_6
REMARK    3  A    between atoms: C_7  and  C_9
REMARK    4  A    between atoms: C_18  and  S_19
REMARK    5  A    between atoms: S_19  and  N_22
REMARK                            x       y       z     vdW  Elec       q    Type
REMARK                         _______ _______ _______ _____ _____    ______ ____
ROOT
ATOM      1  C   UNL     1      -0.341   9.344  21.896  0.00  0.00    +0.000 C 
ATOM      2  C   UNL     1       0.646   8.804  20.901  0.00  0.00    +0.000 A 
ATOM      3  C   UNL     1       1.055   7.476  21.105  0.00  0.00    +0.000 A 
ATOM      4  C   UNL     1       1.874   6.812  20.197  0.00  0.00    +0.000 A 
ATOM      5  C   UNL     1       2.285   7.439  19.026  0.00  0.00    +0.000 A 
ATOM      6  C   UNL     1       1.927   8.777  18.821  0.00  0.00    +0.000 A 
ATOM      7  C   UNL     1       1.167   9.486  19.771  0.00  0.00    +0.000 A 
ENDROOT
BRANCH   5   8
ATOM      8  N   UNL     1       3.020   6.774  18.022  0.00  0.00    +0.000 N 
ATOM      9  C   UNL     1       4.139   5.980  18.219  0.00  0.00    +0.000 C 
ATOM     10  O   UNL     1       4.701   5.797  19.296  0.00  0.00    +0.000 OA
ATOM     11  H   UNL     1       2.698   6.911  17.067  0.00  0.00    +0.000 HD
BRANCH   9  12
ATOM     12  C   UNL     1       4.747   5.337  17.020  0.00  0.00    +0.000 A 
ATOM     13  C   UNL     1       4.924   3.940  17.035  0.00  0.00    +0.000 A 
ATOM     14  C   UNL     1       5.532   3.291  15.959  0.00  0.00    +0.000 A 
ATOM     15  C   UNL     1       5.954   4.034  14.864  0.00  0.00    +0.000 A 
ATOM     16  F   UNL     1       6.551   3.415  13.838  0.00  0.00    +0.000 F 
ATOM     17  C   UNL     1       5.772   5.410  14.819  0.00  0.00    +0.000 A 
ATOM     18  C   UNL     1       5.170   6.053  15.897  0.00  0.00    +0.000 A 
ATOM     19  F   UNL     1       5.020   7.385  15.834  0.00  0.00    +0.000 F 
ENDBRANCH   9  12
ENDBRANCH   5   8
BRANCH   7  20
ATOM     20  S   UNL     1       0.797  11.220  19.373  0.00  0.00    +0.000 S 
ATOM     21  O   UNL     1       0.612  11.896  20.640  0.00  0.00    +0.000 OA
ATOM     22  O   UNL     1       1.807  11.673  18.443  0.00  0.00    +0.000 OA
BRANCH  20  23
ATOM     23  N   UNL     1      -0.704  11.203  18.555  0.00  0.00    +0.000 NA
ATOM     24  C   UNL     1      -0.912  10.059  17.645  0.00  0.00    +0.000 C 
ATOM     25  C   UNL     1      -2.306   9.923  17.059  0.00  0.00    +0.000 C 
ATOM     26  C   UNL     1      -3.406  10.241  18.049  0.00  0.00    +0.000 C 
ATOM     27  C   UNL     1      -3.203  11.641  18.591  0.00  0.00    +0.000 C 
ATOM     28  C   UNL     1      -1.842  11.841  19.247  0.00  0.00    +0.000 C 
ENDBRANCH  20  23
ENDBRANCH   7  20
TORSDOF 4
ENDMDL
MODEL 6
REMARK VINA RESULT:      -8.0      3.878      8.488
REMARK  Name = 
REMARK  5 active torsions:
REMARK  status: ('A' for Active; 'I' for Inactive)
REMARK    1  A    between atoms: C_1  and  C_2
REMARK    2  A    between atoms: C_5  and  N_6
REMARK    3  A    between atoms: C_7  and  C_9
REMARK    4  A    between atoms: C_18  and  S_19
REMARK    5  A    between atoms: S_19  and  N_22
REMARK                            x       y       z     vdW  Elec       q    Type
REMARK                         _______ _______ _______ _____ _____    ______ ____
ROOT
ATOM      1  C   UNL     1       5.486   4.356  15.425  0.00  0.00    +0.000 C 
ATOM      2  C   UNL     1       4.760   5.122  16.494  0.00  0.00    +0.000 A 
ATOM      3  C   UNL     1       5.084   6.485  16.597  0.00  0.00    +0.000 A 
ATOM      4  C   UNL     1       4.406   7.337  17.463  0.00  0.00    +0.000 A 
ATOM      5  C   UNL     1       3.348   6.867  18.234  0.00  0.00    +0.000 A 
ATOM      6  C   UNL     1       3.036   5.503  18.182  0.00  0.00    +0.000 A 
ATOM      7  C   UNL     1       3.767   4.614  17.371  0.00  0.00    +0.000 A 
ENDROOT
BRANCH   5   8
ATOM      8  N   UNL     1       2.558   7.711  19.042  0.00  0.00    +0.000 N 
ATOM      9  C   UNL     1       1.743   8.741  18.596  0.00  0.00    +0.000 C 
ATOM     10  O   UNL     1       1.648   9.117  17.430  0.00  0.00    +0.000 OA
ATOM     11  H   UNL     1       2.611   7.550  20.044  0.00  0.00    +0.000 HD
BRANCH   9  12
ATOM     12  C   UNL     1       0.960   9.491  19.616  0.00  0.00    +0.000 A 
ATOM     13  C   UNL     1       0.653  10.840  19.357  0.00  0.00    +0.000 A 
ATOM     14  C   UNL     1      -0.037  11.605  20.299  0.00  0.00    +0.000 A 
ATOM     15  C   UNL     1      -0.430  11.020  21.496  0.00  0.00    +0.000 A 
ATOM     16  F   UNL     1      -1.079  11.756  22.407  0.00  0.00    +0.000 F 
ATOM     17  C   UNL     1      -0.156   9.686  21.765  0.00  0.00    +0.000 A 
ATOM     18  C   UNL     1       0.538   8.930  20.824  0.00  0.00    +0.000 A 
ATOM     19  F   UNL     1       0.802   7.647  21.117  0.00  0.00    +0.000 F 
ENDBRANCH   9  12
ENDBRANCH   5   8
BRANCH   7  20
ATOM     20  S   UNL     1       3.255   2.871  17.424  0.00  0.00    +0.000 S 
ATOM     21  O   UNL     1       2.178   2.737  16.466  0.00  0.00    +0.000 OA
ATOM     22  O   UNL     1       4.448   2.067  17.299  0.00  0.00    +0.000 OA
BRANCH  20  23
ATOM     23  N   UNL     1       2.609   2.620  18.988  0.00  0.00    +0.000 NA
ATOM     24  C   UNL     1       3.604   2.558  20.076  0.00  0.00    +0.000 C 
ATOM     25  C   UNL     1       3.043   2.527  21.487  0.00  0.00    +0.000 C 
ATOM     26  C   UNL     1       1.851   3.441  21.677  0.00  0.00    +0.000 C 
ATOM     27  C   UNL     1       0.773   3.072  20.678  0.00  0.00    +0.000 C 
ATOM     28  C   UNL     1       1.246   3.132  19.231  0.00  0.00    +0.000 C 
ENDBRANCH  20  23
ENDBRANCH   7  20
TORSDOF 4
ENDMDL
MODEL 7
REMARK VINA RESULT:      -7.9      2.055      3.555
REMARK  Name = 
REMARK  5 active torsions:
REMARK  status: ('A' for Active; 'I' for Inactive)
REMARK    1  A    between atoms: C_1  and  C_2
REMARK    2  A    between atoms: C_5  and  N_6
REMARK    3  A    between atoms: C_7  and  C_9
REMARK    4  A    between atoms: C_18  and  S_19
REMARK    5  A    between atoms: S_19  and  N_22
REMARK                            x       y       z     vdW  Elec       q    Type
REMARK                         _______ _______ _______ _____ _____    ______ ____
ROOT
ATOM      1  C   UNL     1      -1.931  12.562  18.956  0.00  0.00    +0.000 C 
ATOM      2  C   UNL     1      -0.890  11.490  18.797  0.00  0.00    +0.000 A 
ATOM      3  C   UNL     1      -1.234  10.424  17.951  0.00  0.00    +0.000 A 
ATOM      4  C   UNL     1      -0.325   9.424  17.623  0.00  0.00    +0.000 A 
ATOM      5  C   UNL     1       0.981   9.472  18.099  0.00  0.00    +0.000 A 
ATOM      6  C   UNL     1       1.335  10.500  18.981  0.00  0.00    +0.000 A 
ATOM      7  C   UNL     1       0.401  11.473  19.386  0.00  0.00    +0.000 A 
ENDROOT
BRANCH   5   8
ATOM      8  N   UNL     1       1.971   8.546  17.707  0.00  0.00    +0.000 N 
ATOM      9  C   UNL     1       2.445   7.486  18.465  0.00  0.00    +0.000 C 
ATOM     10  O   UNL     1       2.123   7.242  19.625  0.00  0.00    +0.000 OA
ATOM     11  H   UNL     1       2.378   8.689  16.787  0.00  0.00    +0.000 HD
BRANCH   9  12
ATOM     12  C   UNL     1       3.472   6.601  17.846  0.00  0.00    +0.000 A 
ATOM     13  C   UNL     1       4.663   7.191  17.383  0.00  0.00    +0.000 A 
ATOM     14  C   UNL     1       5.638   6.417  16.752  0.00  0.00    +0.000 A 
ATOM     15  C   UNL     1       5.429   5.053  16.593  0.00  0.00    +0.000 A 
ATOM     16  F   UNL     1       6.358   4.312  15.974  0.00  0.00    +0.000 F 
ATOM     17  C   UNL     1       4.271   4.447  17.059  0.00  0.00    +0.000 A 
ATOM     18  C   UNL     1       3.299   5.224  17.683  0.00  0.00    +0.000 A 
ATOM     19  F   UNL     1       2.183   4.615  18.111  0.00  0.00    +0.000 F 
ENDBRANCH   9  12
ENDBRANCH   5   8
BRANCH   7  20
ATOM     20  S   UNL     1       1.005  12.733  20.548  0.00  0.00    +0.000 S 
ATOM     21  O   UNL     1       2.343  12.327  20.926  0.00  0.00    +0.000 OA
ATOM     22  O   UNL     1       0.778  14.024  19.940  0.00  0.00    +0.000 OA
BRANCH  20  23
ATOM     23  N   UNL     1       0.004  12.615  21.928  0.00  0.00    +0.000 NA
ATOM     24  C   UNL     1      -0.699  13.858  22.303  0.00  0.00    +0.000 C 
ATOM     25  C   UNL     1      -1.735  13.727  23.406  0.00  0.00    +0.000 C 
ATOM     26  C   UNL     1      -2.556  12.459  23.308  0.00  0.00    +0.000 C 
ATOM     27  C   UNL     1      -1.630  11.260  23.318  0.00  0.00    +0.000 C 
ATOM     28  C   UNL     1      -0.591  11.292  22.204  0.00  0.00    +0.000 C 
ENDBRANCH  20  23
ENDBRANCH   7  20
TORSDOF 4
ENDMDL
MODEL 8
REMARK VINA RESULT:      -7.9      1.586      1.952
REMARK  Name = 
REMARK  5 active torsions:
REMARK  status: ('A' for Active; 'I' for Inactive)
REMARK    1  A    between atoms: C_1  and  C_2
REMARK    2  A    between atoms: C_5  and  N_6
REMARK    3  A    between atoms: C_7  and  C_9
REMARK    4  A    between atoms: C_18  and  S_19
REMARK    5  A    between atoms: S_19  and  N_22
REMARK                            x       y       z     vdW  Elec       q    Type
REMARK                         _______ _______ _______ _____ _____    ______ ____
ROOT
ATOM      1  C   UNL     1      -0.999  12.233  22.304  0.00  0.00    +0.000 C 
ATOM      2  C   UNL     1      -0.238  10.993  21.929  0.00  0.00    +0.000 A 
ATOM      3  C   UNL     1      -0.108  10.026  22.939  0.00  0.00    +0.000 A 
ATOM      4  C   UNL     1       0.471   8.784  22.696  0.00  0.00    +0.000 A 
ATOM      5  C   UNL     1       0.908   8.445  21.421  0.00  0.00    +0.000 A 
ATOM      6  C   UNL     1       0.830   9.408  20.407  0.00  0.00    +0.000 A 
ATOM      7  C   UNL     1       0.322  10.697  20.659  0.00  0.00    +0.000 A 
ENDROOT
BRANCH   5   8
ATOM      8  N   UNL     1       1.397   7.162  21.098  0.00  0.00    +0.000 N 
ATOM      9  C   UNL     1       2.180   6.838  20.000  0.00  0.00    +0.000 C 
ATOM     10  O   UNL     1       2.503   7.613  19.103  0.00  0.00    +0.000 OA
ATOM     11  H   UNL     1       1.131   6.409  21.728  0.00  0.00    +0.000 HD
BRANCH   9  12
ATOM     12  C   UNL     1       2.623   5.422  19.863  0.00  0.00    +0.000 A 
ATOM     13  C   UNL     1       3.960   5.177  19.497  0.00  0.00    +0.000 A 
ATOM     14  C   UNL     1       4.416   3.872  19.307  0.00  0.00    +0.000 A 
ATOM     15  C   UNL     1       3.541   2.810  19.495  0.00  0.00    +0.000 A 
ATOM     16  F   UNL     1       3.973   1.557  19.299  0.00  0.00    +0.000 F 
ATOM     17  C   UNL     1       2.223   3.026  19.876  0.00  0.00    +0.000 A 
ATOM     18  C   UNL     1       1.772   4.330  20.058  0.00  0.00    +0.000 A 
ATOM     19  F   UNL     1       0.490   4.511  20.411  0.00  0.00    +0.000 F 
ENDBRANCH   9  12
ENDBRANCH   5   8
BRANCH   7  20
ATOM     20  S   UNL     1       0.302  11.843  19.248  0.00  0.00    +0.000 S 
ATOM     21  O   UNL     1       0.141  13.169  19.806  0.00  0.00    +0.000 OA
ATOM     22  O   UNL     1       1.446  11.530  18.424  0.00  0.00    +0.000 OA
BRANCH  20  23
ATOM     23  N   UNL     1      -1.109  11.466  18.359  0.00  0.00    +0.000 NA
ATOM     24  C   UNL     1      -0.994  10.300  17.461  0.00  0.00    +0.000 C 
ATOM     25  C   UNL     1      -2.284   9.834  16.810  0.00  0.00    +0.000 C 
ATOM     26  C   UNL     1      -3.477   9.889  17.739  0.00  0.00    +0.000 C 
ATOM     27  C   UNL     1      -3.639  11.300  18.266  0.00  0.00    +0.000 C 
ATOM     28  C   UNL     1      -2.399  11.820  18.983  0.00  0.00    +0.000 C 
ENDBRANCH  20  23
ENDBRANCH   7  20
TORSDOF 4
ENDMDL
MODEL 9
REMARK VINA RESULT:      -7.9      0.971      1.146
REMARK  Name = 
REMARK  5 active torsions:
REMARK  status: ('A' for Active; 'I' for Inactive)
REMARK    1  A    between atoms: C_1  and  C_2
REMARK    2  A    between atoms: C_5  and  N_6
REMARK    3  A    between atoms: C_7  and  C_9
REMARK    4  A    between atoms: C_18  and  S_19
REMARK    5  A    between atoms: S_19  and  N_22
REMARK                            x       y       z     vdW  Elec       q    Type
REMARK                         _______ _______ _______ _____ _____    ______ ____
ROOT
ATOM      1  C   UNL     1      -1.211  11.080  22.741  0.00  0.00    +0.000 C 
ATOM      2  C   UNL     1      -0.252  10.354  21.842  0.00  0.00    +0.000 A 
ATOM      3  C   UNL     1       0.467   9.305  22.435  0.00  0.00    +0.000 A 
ATOM      4  C   UNL     1       1.302   8.475  21.693  0.00  0.00    +0.000 A 
ATOM      5  C   UNL     1       1.420   8.639  20.317  0.00  0.00    +0.000 A 
ATOM      6  C   UNL     1       0.748   9.707  19.709  0.00  0.00    +0.000 A 
ATOM      7  C   UNL     1      -0.035  10.603  20.462  0.00  0.00    +0.000 A 
ENDROOT
BRANCH   5   8
ATOM      8  N   UNL     1       2.163   7.757  19.504  0.00  0.00    +0.000 N 
ATOM      9  C   UNL     1       2.226   6.378  19.638  0.00  0.00    +0.000 C 
ATOM     10  O   UNL     1       1.698   5.727  20.537  0.00  0.00    +0.000 OA
ATOM     11  H   UNL     1       2.712   8.186  18.763  0.00  0.00    +0.000 HD
BRANCH   9  12
ATOM     12  C   UNL     1       3.044   5.626  18.647  0.00  0.00    +0.000 A 
ATOM     13  C   UNL     1       2.986   4.220  18.669  0.00  0.00    +0.000 A 
ATOM     14  C   UNL     1       3.768   3.463  17.795  0.00  0.00    +0.000 A 
ATOM     15  C   UNL     1       4.601   4.110  16.891  0.00  0.00    +0.000 A 
ATOM     16  F   UNL     1       5.363   3.385  16.062  0.00  0.00    +0.000 F 
ATOM     17  C   UNL     1       4.660   5.497  16.838  0.00  0.00    +0.000 A 
ATOM     18  C   UNL     1       3.882   6.246  17.716  0.00  0.00    +0.000 A 
ATOM     19  F   UNL     1       3.970   7.583  17.652  0.00  0.00    +0.000 F 
ENDBRANCH   9  12
ENDBRANCH   5   8
BRANCH   7  20
ATOM     20  S   UNL     1      -0.831  11.948  19.534  0.00  0.00    +0.000 S 
ATOM     21  O   UNL     1      -1.298  12.899  20.522  0.00  0.00    +0.000 OA
ATOM     22  O   UNL     1       0.089  12.361  18.500  0.00  0.00    +0.000 OA
BRANCH  20  23
ATOM     23  N   UNL     1      -2.198  11.252  18.779  0.00  0.00    +0.000 NA
ATOM     24  C   UNL     1      -3.471  11.963  19.003  0.00  0.00    +0.000 C 
ATOM     25  C   UNL     1      -4.657  11.473  18.190  0.00  0.00    +0.000 C 
ATOM     26  C   UNL     1      -4.296  11.112  16.765  0.00  0.00    +0.000 C 
ATOM     27  C   UNL     1      -3.202  10.064  16.775  0.00  0.00    +0.000 C 
ATOM     28  C   UNL     1      -1.954  10.504  17.529  0.00  0.00    +0.000 C 
ENDBRANCH  20  23
ENDBRANCH   7  20
TORSDOF 4
ENDMDL
