MODEL 1
REMARK VINA RESULT:      -8.8      0.000      0.000
REMARK  Name = 
REMARK  6 active torsions:
REMARK  status: ('A' for Active; 'I' for Inactive)
REMARK    1  A    between atoms: C_1  and  C_2
REMARK    2  A    between atoms: C_4  and  C_5
REMARK    3  A    between atoms: C_14  and  N_15
REMARK    4  A    between atoms: N_15  and  C_16
REMARK    5  A    between atoms: C_16  and  C_17
REMARK    6  A    between atoms: C_25  and  C_26
REMARK                            x       y       z     vdW  Elec       q    Type
REMARK                         _______ _______ _______ _____ _____    ______ ____
ROOT
ATOM      1  N   UNL     1       2.439   7.274  20.626  0.00  0.00    +0.000 N 
ATOM      2  H   UNL     1       2.795   7.397  21.573  0.00  0.00    +0.000 HD
ENDROOT
BRANCH   1   9
ATOM      3  C   UNL     1       2.467   8.593  17.913  0.00  0.00    +0.000 C 
ATOM      4  C   UNL     1       1.474   8.890  19.007  0.00  0.00    +0.000 A 
ATOM      5  C   UNL     1       0.489   9.869  18.727  0.00  0.00    +0.000 A 
ATOM      6  C   UNL     1      -0.510  10.190  19.652  0.00  0.00    +0.000 A 
ATOM      7  C   UNL     1      -0.511   9.547  20.882  0.00  0.00    +0.000 A 
ATOM      8  C   UNL     1       0.443   8.571  21.161  0.00  0.00    +0.000 A 
ATOM      9  C   UNL     1       1.491   8.262  20.273  0.00  0.00    +0.000 A 
BRANCH   6  10
ATOM     10  C   UNL     1      -1.519  11.223  19.296  0.00  0.00    +0.000 C 
ATOM     11  O   UNL     1      -1.372  12.355  19.756  0.00  0.00    +0.000 OA
ATOM     12  N   UNL     1      -2.561  10.904  18.437  0.00  0.00    +0.000 N 
ATOM     13  C   UNL     1      -2.809   9.665  17.720  0.00  0.00    +0.000 C 
ATOM     14  C   UNL     1      -3.394  10.128  16.404  0.00  0.00    +0.000 C 
ATOM     15  C   UNL     1      -4.231  11.336  16.804  0.00  0.00    +0.000 C 
ATOM     16  C   UNL     1      -3.503  11.927  18.012  0.00  0.00    +0.000 C 
ENDBRANCH   6  10
ENDBRANCH   1   9
BRANCH   1  17
ATOM     17  C   UNL     1       1.996   5.880  20.443  0.00  0.00    +0.000 C 
BRANCH  17  18
ATOM     18  C   UNL     1       2.758   5.212  19.312  0.00  0.00    +0.000 A 
ATOM     19  C   UNL     1       2.111   4.429  18.431  0.00  0.00    +0.000 A 
ATOM     20  C   UNL     1       2.865   3.818  17.336  0.00  0.00    +0.000 A 
ATOM     21  O   UNL     1       2.272   3.082  16.549  0.00  0.00    +0.000 OA
ATOM     22  N   UNL     1       4.215   4.136  17.284  0.00  0.00    +0.000 N 
ATOM     23  C   UNL     1       4.961   3.727  16.187  0.00  0.00    +0.000 A 
ATOM     24  C   UNL     1       6.261   4.019  16.075  0.00  0.00    +0.000 A 
ATOM     25  C   UNL     1       6.940   4.686  17.152  0.00  0.00    +0.000 A 
ATOM     26  C   UNL     1       6.280   5.075  18.254  0.00  0.00    +0.000 A 
ATOM     27  C   UNL     1       6.956   5.662  19.452  0.00  0.00    +0.000 C 
ATOM     28  C   UNL     1       4.788   4.887  18.312  0.00  0.00    +0.000 A 
ATOM     29  N   UNL     1       4.115   5.413  19.289  0.00  0.00    +0.000 NA
ENDBRANCH  17  18
ENDBRANCH   1  17
TORSDOF 4
ENDMDL
MODEL 2
REMARK VINA RESULT:      -8.5      0.726      1.473
REMARK  Name = 
REMARK  6 active torsions:
REMARK  status: ('A' for Active; 'I' for Inactive)
REMARK    1  A    between atoms: C_1  and  C_2
REMARK    2  A    between atoms: C_4  and  C_5
REMARK    3  A    between atoms: C_14  and  N_15
REMARK    4  A    between atoms: N_15  and  C_16
REMARK    5  A    between atoms: C_16  and  C_17
REMARK    6  A    between atoms: C_25  and  C_26
REMARK                            x       y       z     vdW  Elec       q    Type
REMARK                         _______ _______ _______ _____ _____    ______ ____
ROOT
ATOM      1  N   UNL     1       2.362   7.419  20.665  0.00  0.00    +0.000 N 
ATOM      2  H   UNL     1       2.565   7.639  21.639  0.00  0.00    +0.000 HD
ENDROOT
BRANCH   1   9
ATOM      3  C   UNL     1       0.180   8.752  22.264  0.00  0.00    +0.000 C 
ATOM      4  C   UNL     1       0.449   8.997  20.802  0.00  0.00    +0.000 A 
ATOM      5  C   UNL     1      -0.397   9.920  20.142  0.00  0.00    +0.000 A 
ATOM      6  C   UNL     1      -0.209  10.258  18.797  0.00  0.00    +0.000 A 
ATOM      7  C   UNL     1       0.820   9.646  18.096  0.00  0.00    +0.000 A 
ATOM      8  C   UNL     1       1.669   8.749  18.739  0.00  0.00    +0.000 A 
ATOM      9  C   UNL     1       1.475   8.350  20.075  0.00  0.00    +0.000 A 
BRANCH   6  10
ATOM     10  C   UNL     1      -1.129  11.239  18.163  0.00  0.00    +0.000 C 
ATOM     11  O   UNL     1      -0.929  12.436  18.374  0.00  0.00    +0.000 OA
ATOM     12  N   UNL     1      -2.147  10.795  17.333  0.00  0.00    +0.000 N 
ATOM     13  C   UNL     1      -2.443   9.444  16.889  0.00  0.00    +0.000 C 
ATOM     14  C   UNL     1      -2.933   9.635  15.471  0.00  0.00    +0.000 C 
ATOM     15  C   UNL     1      -3.706  10.945  15.547  0.00  0.00    +0.000 C 
ATOM     16  C   UNL     1      -2.999  11.748  16.639  0.00  0.00    +0.000 C 
ENDBRANCH   6  10
ENDBRANCH   1   9
BRANCH   1  17
ATOM     17  C   UNL     1       1.958   6.005  20.553  0.00  0.00    +0.000 C 
BRANCH  17  18
ATOM     18  C   UNL     1       2.701   5.317  19.422  0.00  0.00    +0.000 A 
ATOM     19  C   UNL     1       2.035   4.536  18.552  0.00  0.00    +0.000 A 
ATOM     20  C   UNL     1       2.771   3.906  17.456  0.00  0.00    +0.000 A 
ATOM     21  O   UNL     1       2.160   3.173  16.680  0.00  0.00    +0.000 OA
ATOM     22  N   UNL     1       4.125   4.202  17.392  0.00  0.00    +0.000 N 
ATOM     23  C   UNL     1       4.856   3.772  16.293  0.00  0.00    +0.000 A 
ATOM     24  C   UNL     1       6.159   4.043  16.169  0.00  0.00    +0.000 A 
ATOM     25  C   UNL     1       6.858   4.707  17.235  0.00  0.00    +0.000 A 
ATOM     26  C   UNL     1       6.212   5.116  18.338  0.00  0.00    +0.000 A 
ATOM     27  C   UNL     1       6.907   5.702  19.527  0.00  0.00    +0.000 C 
ATOM     28  C   UNL     1       4.717   4.952  18.409  0.00  0.00    +0.000 A 
ATOM     29  N   UNL     1       4.060   5.496  19.388  0.00  0.00    +0.000 NA
ENDBRANCH  17  18
ENDBRANCH   1  17
TORSDOF 4
ENDMDL
MODEL 3
REMARK VINA RESULT:      -8.5      2.229      9.204
REMARK  Name = 
REMARK  6 active torsions:
REMARK  status: ('A' for Active; 'I' for Inactive)
REMARK    1  A    between atoms: C_1  and  C_2
REMARK    2  A    between atoms: C_4  and  C_5
REMARK    3  A    between atoms: C_14  and  N_15
REMARK    4  A    between atoms: N_15  and  C_16
REMARK    5  A    between atoms: C_16  and  C_17
REMARK    6  A    between atoms: C_25  and  C_26
REMARK                            x       y       z     vdW  Elec       q    Type
REMARK                         _______ _______ _______ _____ _____    ______ ____
ROOT
ATOM      1  N   UNL     1       0.229  10.551  19.691  0.00  0.00    +0.000 N 
ATOM      2  H   UNL     1       0.615  11.082  20.471  0.00  0.00    +0.000 HD
ENDROOT
BRANCH   1   9
ATOM      3  C   UNL     1       1.050   8.477  21.721  0.00  0.00    +0.000 C 
ATOM      4  C   UNL     1       1.433   8.456  20.264  0.00  0.00    +0.000 A 
ATOM      5  C   UNL     1       2.245   7.380  19.832  0.00  0.00    +0.000 A 
ATOM      6  C   UNL     1       2.621   7.236  18.492  0.00  0.00    +0.000 A 
ATOM      7  C   UNL     1       2.205   8.193  17.577  0.00  0.00    +0.000 A 
ATOM      8  C   UNL     1       1.393   9.247  17.989  0.00  0.00    +0.000 A 
ATOM      9  C   UNL     1       1.041   9.448  19.336  0.00  0.00    +0.000 A 
BRANCH   6  10
ATOM     10  C   UNL     1       3.470   6.079  18.101  0.00  0.00    +0.000 C 
ATOM     11  O   UNL     1       4.692   6.230  18.113  0.00  0.00    +0.000 OA
ATOM     12  N   UNL     1       2.879   4.867  17.776  0.00  0.00    +0.000 N 
ATOM     13  C   UNL     1       1.477   4.489  17.826  0.00  0.00    +0.000 C 
ATOM     14  C   UNL     1       1.515   3.041  18.260  0.00  0.00    +0.000 C 
ATOM     15  C   UNL     1       2.759   2.504  17.563  0.00  0.00    +0.000 C 
ATOM     16  C   UNL     1       3.701   3.705  17.476  0.00  0.00    +0.000 C 
ENDBRANCH   6  10
ENDBRANCH   1   9
BRANCH   1  17
ATOM     17  C   UNL     1      -0.106  11.469  18.587  0.00  0.00    +0.000 C 
BRANCH  17  18
ATOM     18  C   UNL     1      -1.609  11.539  18.378  0.00  0.00    +0.000 A 
ATOM     19  C   UNL     1      -2.148  11.138  17.212  0.00  0.00    +0.000 A 
ATOM     20  C   UNL     1      -3.601  11.192  17.046  0.00  0.00    +0.000 A 
ATOM     21  O   UNL     1      -4.085  10.849  15.969  0.00  0.00    +0.000 OA
ATOM     22  N   UNL     1      -4.316  11.636  18.149  0.00  0.00    +0.000 N 
ATOM     23  C   UNL     1      -5.702  11.564  18.125  0.00  0.00    +0.000 A 
ATOM     24  C   UNL     1      -6.443  11.961  19.165  0.00  0.00    +0.000 A 
ATOM     25  C   UNL     1      -5.811  12.571  20.303  0.00  0.00    +0.000 A 
ATOM     26  C   UNL     1      -4.477  12.700  20.369  0.00  0.00    +0.000 A 
ATOM     27  C   UNL     1      -3.776  13.433  21.469  0.00  0.00    +0.000 C 
ATOM     28  C   UNL     1      -3.634  12.112  19.270  0.00  0.00    +0.000 A 
ATOM     29  N   UNL     1      -2.343  12.075  19.404  0.00  0.00    +0.000 NA
ENDBRANCH  17  18
ENDBRANCH   1  17
TORSDOF 4
ENDMDL
MODEL 4
REMARK VINA RESULT:      -8.2      2.371      9.201
REMARK  Name = 
REMARK  6 active torsions:
REMARK  status: ('A' for Active; 'I' for Inactive)
REMARK    1  A    between atoms: C_1  and  C_2
REMARK    2  A    between atoms: C_4  and  C_5
REMARK    3  A    between atoms: C_14  and  N_15
REMARK    4  A    between atoms: N_15  and  C_16
REMARK    5  A    between atoms: C_16  and  C_17
REMARK    6  A    between atoms: C_25  and  C_26
REMARK                            x       y       z     vdW  Elec       q    Type
REMARK                         _______ _______ _______ _____ _____    ______ ____
ROOT
ATOM      1  N   UNL     1       0.686  10.385  18.878  0.00  0.00    +0.000 N 
ATOM      2  H   UNL     1       1.265  11.172  18.586  0.00  0.00    +0.000 HD
ENDROOT
BRANCH   1   9
ATOM      3  C   UNL     1       0.594   8.624  21.325  0.00  0.00    +0.000 C 
ATOM      4  C   UNL     1       1.384   8.326  20.077  0.00  0.00    +0.000 A 
ATOM      5  C   UNL     1       2.140   7.128  20.070  0.00  0.00    +0.000 A 
ATOM      6  C   UNL     1       2.873   6.730  18.947  0.00  0.00    +0.000 A 
ATOM      7  C   UNL     1       2.874   7.549  17.827  0.00  0.00    +0.000 A 
ATOM      8  C   UNL     1       2.121   8.721  17.817  0.00  0.00    +0.000 A 
ATOM      9  C   UNL     1       1.416   9.175  18.947  0.00  0.00    +0.000 A 
BRANCH   6  10
ATOM     10  C   UNL     1       3.642   5.457  19.000  0.00  0.00    +0.000 C 
ATOM     11  O   UNL     1       4.761   5.482  19.513  0.00  0.00    +0.000 OA
ATOM     12  N   UNL     1       3.075   4.287  18.518  0.00  0.00    +0.000 N 
ATOM     13  C   UNL     1       1.737   4.064  17.999  0.00  0.00    +0.000 C 
ATOM     14  C   UNL     1       1.397   2.670  18.480  0.00  0.00    +0.000 C 
ATOM     15  C   UNL     1       2.731   1.940  18.390  0.00  0.00    +0.000 C 
ATOM     16  C   UNL     1       3.781   3.022  18.644  0.00  0.00    +0.000 C 
ENDBRANCH   6  10
ENDBRANCH   1   9
BRANCH   1  17
ATOM     17  C   UNL     1      -0.535  10.339  18.053  0.00  0.00    +0.000 C 
BRANCH  17  18
ATOM     18  C   UNL     1      -1.674  11.083  18.728  0.00  0.00    +0.000 A 
ATOM     19  C   UNL     1      -2.850  11.236  18.095  0.00  0.00    +0.000 A 
ATOM     20  C   UNL     1      -3.939  11.935  18.779  0.00  0.00    +0.000 A 
ATOM     21  O   UNL     1      -5.004  12.093  18.184  0.00  0.00    +0.000 OA
ATOM     22  N   UNL     1      -3.663  12.364  20.069  0.00  0.00    +0.000 N 
ATOM     23  C   UNL     1      -4.691  12.891  20.838  0.00  0.00    +0.000 A 
ATOM     24  C   UNL     1      -4.487  13.305  22.092  0.00  0.00    +0.000 A 
ATOM     25  C   UNL     1      -3.158  13.303  22.640  0.00  0.00    +0.000 A 
ATOM     26  C   UNL     1      -2.117  12.838  21.933  0.00  0.00    +0.000 A 
ATOM     27  C   UNL     1      -0.699  12.923  22.404  0.00  0.00    +0.000 C 
ATOM     28  C   UNL     1      -2.371  12.227  20.580  0.00  0.00    +0.000 A 
ATOM     29  N   UNL     1      -1.405  11.619  19.962  0.00  0.00    +0.000 NA
ENDBRANCH  17  18
ENDBRANCH   1  17
TORSDOF 4
ENDMDL
MODEL 5
REMARK VINA RESULT:      -8.1      3.517      4.823
REMARK  Name = 
REMARK  6 active torsions:
REMARK  status: ('A' for Active; 'I' for Inactive)
REMARK    1  A    between atoms: C_1  and  C_2
REMARK    2  A    between atoms: C_4  and  C_5
REMARK    3  A    between atoms: C_14  and  N_15
REMARK    4  A    between atoms: N_15  and  C_16
REMARK    5  A    between atoms: C_16  and  C_17
REMARK    6  A    between atoms: C_25  and  C_26
REMARK                            x       y       z     vdW  Elec       q    Type
REMARK                         _______ _______ _______ _____ _____    ______ ____
ROOT
ATOM      1  N   UNL     1       0.871   9.411  20.451  0.00  0.00    +0.000 N 
ATOM      2  H   UNL     1       1.704   9.925  20.168  0.00  0.00    +0.000 HD
ENDROOT
BRANCH   1   9
ATOM      3  C   UNL     1      -0.715  11.535  19.011  0.00  0.00    +0.000 C 
ATOM      4  C   UNL     1      -0.825  11.225  20.482  0.00  0.00    +0.000 A 
ATOM      5  C   UNL     1      -1.741  12.002  21.232  0.00  0.00    +0.000 A 
ATOM      6  C   UNL     1      -1.957  11.769  22.595  0.00  0.00    +0.000 A 
ATOM      7  C   UNL     1      -1.231  10.768  23.222  0.00  0.00    +0.000 A 
ATOM      8  C   UNL     1      -0.339   9.987  22.491  0.00  0.00    +0.000 A 
ATOM      9  C   UNL     1      -0.061  10.229  21.132  0.00  0.00    +0.000 A 
BRANCH   6  10
ATOM     10  C   UNL     1      -2.938  12.616  23.325  0.00  0.00    +0.000 C 
ATOM     11  O   UNL     1      -4.062  12.156  23.523  0.00  0.00    +0.000 OA
ATOM     12  N   UNL     1      -2.558  13.866  23.793  0.00  0.00    +0.000 N 
ATOM     13  C   UNL     1      -1.253  14.501  23.750  0.00  0.00    +0.000 C 
ATOM     14  C   UNL     1      -1.188  15.269  25.052  0.00  0.00    +0.000 C 
ATOM     15  C   UNL     1      -2.622  15.747  25.241  0.00  0.00    +0.000 C 
ATOM     16  C   UNL     1      -3.480  14.667  24.582  0.00  0.00    +0.000 C 
ENDBRANCH   6  10
ENDBRANCH   1   9
BRANCH   1  17
ATOM     17  C   UNL     1       1.267   8.181  21.161  0.00  0.00    +0.000 C 
BRANCH  17  18
ATOM     18  C   UNL     1       1.923   7.195  20.210  0.00  0.00    +0.000 A 
ATOM     19  C   UNL     1       2.519   7.633  19.087  0.00  0.00    +0.000 A 
ATOM     20  C   UNL     1       3.165   6.664  18.202  0.00  0.00    +0.000 A 
ATOM     21  O   UNL     1       3.687   7.069  17.164  0.00  0.00    +0.000 OA
ATOM     22  N   UNL     1       3.130   5.344  18.627  0.00  0.00    +0.000 N 
ATOM     23  C   UNL     1       3.856   4.392  17.925  0.00  0.00    +0.000 A 
ATOM     24  C   UNL     1       3.873   3.108  18.298  0.00  0.00    +0.000 A 
ATOM     25  C   UNL     1       3.048   2.668  19.389  0.00  0.00    +0.000 A 
ATOM     26  C   UNL     1       2.297   3.536  20.085  0.00  0.00    +0.000 A 
ATOM     27  C   UNL     1       1.330   3.118  21.148  0.00  0.00    +0.000 C 
ATOM     28  C   UNL     1       2.398   5.004  19.766  0.00  0.00    +0.000 A 
ATOM     29  N   UNL     1       1.814   5.868  20.538  0.00  0.00    +0.000 NA
ENDBRANCH  17  18
ENDBRANCH   1  17
TORSDOF 4
ENDMDL
MODEL 6
REMARK VINA RESULT:      -8.0      2.069      9.281
REMARK  Name = 
REMARK  6 active torsions:
REMARK  status: ('A' for Active; 'I' for Inactive)
REMARK    1  A    between atoms: C_1  and  C_2
REMARK    2  A    between atoms: C_4  and  C_5
REMARK    3  A    between atoms: C_14  and  N_15
REMARK    4  A    between atoms: N_15  and  C_16
REMARK    5  A    between atoms: C_16  and  C_17
REMARK    6  A    between atoms: C_25  and  C_26
REMARK                            x       y       z     vdW  Elec       q    Type
REMARK                         _______ _______ _______ _____ _____    ______ ____
ROOT
ATOM      1  N   UNL     1       0.723  10.502  19.906  0.00  0.00    +0.000 N 
ATOM      2  H   UNL     1       1.270  11.070  20.551  0.00  0.00    +0.000 HD
ENDROOT
BRANCH   1   9
ATOM      3  C   UNL     1       1.158   8.134  21.723  0.00  0.00    +0.000 C 
ATOM      4  C   UNL     1       1.636   8.226  20.297  0.00  0.00    +0.000 A 
ATOM      5  C   UNL     1       2.346   7.111  19.788  0.00  0.00    +0.000 A 
ATOM      6  C   UNL     1       2.795   7.070  18.464  0.00  0.00    +0.000 A 
ATOM      7  C   UNL     1       2.557   8.164  17.645  0.00  0.00    +0.000 A 
ATOM      8  C   UNL     1       1.845   9.259  18.131  0.00  0.00    +0.000 A 
ATOM      9  C   UNL     1       1.425   9.353  19.471  0.00  0.00    +0.000 A 
BRANCH   6  10
ATOM     10  C   UNL     1       3.530   5.867  17.988  0.00  0.00    +0.000 C 
ATOM     11  O   UNL     1       4.755   5.944  17.885  0.00  0.00    +0.000 OA
ATOM     12  N   UNL     1       2.838   4.697  17.716  0.00  0.00    +0.000 N 
ATOM     13  C   UNL     1       1.427   4.404  17.898  0.00  0.00    +0.000 C 
ATOM     14  C   UNL     1       1.416   2.952  18.321  0.00  0.00    +0.000 C 
ATOM     15  C   UNL     1       2.553   2.348  17.506  0.00  0.00    +0.000 C 
ATOM     16  C   UNL     1       3.554   3.490  17.334  0.00  0.00    +0.000 C 
ENDBRANCH   6  10
ENDBRANCH   1   9
BRANCH   1  17
ATOM     17  C   UNL     1       0.185  11.356  18.831  0.00  0.00    +0.000 C 
BRANCH  17  18
ATOM     18  C   UNL     1      -1.270  11.704  19.094  0.00  0.00    +0.000 A 
ATOM     19  C   UNL     1      -1.644  12.186  20.292  0.00  0.00    +0.000 A 
ATOM     20  C   UNL     1      -3.048  12.537  20.510  0.00  0.00    +0.000 A 
ATOM     21  O   UNL     1      -3.387  12.952  21.617  0.00  0.00    +0.000 OA
ATOM     22  N   UNL     1      -3.887  12.365  19.419  0.00  0.00    +0.000 N 
ATOM     23  C   UNL     1      -5.195  12.825  19.497  0.00  0.00    +0.000 A 
ATOM     24  C   UNL     1      -6.044  12.701  18.471  0.00  0.00    +0.000 A 
ATOM     25  C   UNL     1      -5.639  11.992  17.289  0.00  0.00    +0.000 A 
ATOM     26  C   UNL     1      -4.399  11.494  17.168  0.00  0.00    +0.000 A 
ATOM     27  C   UNL     1      -3.963  10.645  16.016  0.00  0.00    +0.000 C 
ATOM     28  C   UNL     1      -3.396  11.768  18.256  0.00  0.00    +0.000 A 
ATOM     29  N   UNL     1      -2.152  11.445  18.076  0.00  0.00    +0.000 NA
ENDBRANCH  17  18
ENDBRANCH   1  17
TORSDOF 4
ENDMDL
MODEL 7
REMARK VINA RESULT:      -8.0      1.553      2.343
REMARK  Name = 
REMARK  6 active torsions:
REMARK  status: ('A' for Active; 'I' for Inactive)
REMARK    1  A    between atoms: C_1  and  C_2
REMARK    2  A    between atoms: C_4  and  C_5
REMARK    3  A    between atoms: C_14  and  N_15
REMARK    4  A    between atoms: N_15  and  C_16
REMARK    5  A    between atoms: C_16  and  C_17
REMARK    6  A    between atoms: C_25  and  C_26
REMARK                            x       y       z     vdW  Elec       q    Type
REMARK                         _______ _______ _______ _____ _____    ______ ____
ROOT
ATOM      1  N   UNL     1       2.486   7.167  20.553  0.00  0.00    +0.000 N 
ATOM      2  H   UNL     1       2.900   7.177  21.485  0.00  0.00    +0.000 HD
ENDROOT
BRANCH   1   9
ATOM      3  C   UNL     1       2.355   8.664  17.938  0.00  0.00    +0.000 C 
ATOM      4  C   UNL     1       1.488   8.946  19.137  0.00  0.00    +0.000 A 
ATOM      5  C   UNL     1       0.550  10.000  19.014  0.00  0.00    +0.000 A 
ATOM      6  C   UNL     1      -0.337  10.318  20.048  0.00  0.00    +0.000 A 
ATOM      7  C   UNL     1      -0.269   9.593  21.230  0.00  0.00    +0.000 A 
ATOM      8  C   UNL     1       0.638   8.544  21.356  0.00  0.00    +0.000 A 
ATOM      9  C   UNL     1       1.578   8.233  20.355  0.00  0.00    +0.000 A 
BRANCH   6  10
ATOM     10  C   UNL     1      -1.302  11.433  19.854  0.00  0.00    +0.000 C 
ATOM     11  O   UNL     1      -2.227  11.262  19.059  0.00  0.00    +0.000 OA
ATOM     12  N   UNL     1      -1.165  12.601  20.589  0.00  0.00    +0.000 N 
ATOM     13  C   UNL     1      -0.214  12.915  21.641  0.00  0.00    +0.000 C 
ATOM     14  C   UNL     1      -1.014  13.768  22.600  0.00  0.00    +0.000 C 
ATOM     15  C   UNL     1      -1.912  14.577  21.674  0.00  0.00    +0.000 C 
ATOM     16  C   UNL     1      -2.151  13.663  20.472  0.00  0.00    +0.000 C 
ENDBRANCH   6  10
ENDBRANCH   1   9
BRANCH   1  17
ATOM     17  C   UNL     1       1.952   5.822  20.266  0.00  0.00    +0.000 C 
BRANCH  17  18
ATOM     18  C   UNL     1       2.743   5.152  19.157  0.00  0.00    +0.000 A 
ATOM     19  C   UNL     1       2.123   4.345  18.277  0.00  0.00    +0.000 A 
ATOM     20  C   UNL     1       2.904   3.731  17.203  0.00  0.00    +0.000 A 
ATOM     21  O   UNL     1       2.335   2.974  16.418  0.00  0.00    +0.000 OA
ATOM     22  N   UNL     1       4.249   4.070  17.168  0.00  0.00    +0.000 N 
ATOM     23  C   UNL     1       5.019   3.658  16.089  0.00  0.00    +0.000 A 
ATOM     24  C   UNL     1       6.315   3.969  15.993  0.00  0.00    +0.000 A 
ATOM     25  C   UNL     1       6.967   4.662  17.070  0.00  0.00    +0.000 A 
ATOM     26  C   UNL     1       6.283   5.057  18.156  0.00  0.00    +0.000 A 
ATOM     27  C   UNL     1       6.931   5.671  19.356  0.00  0.00    +0.000 C 
ATOM     28  C   UNL     1       4.793   4.845  18.194  0.00  0.00    +0.000 A 
ATOM     29  N   UNL     1       4.097   5.373  19.152  0.00  0.00    +0.000 NA
ENDBRANCH  17  18
ENDBRANCH   1  17
TORSDOF 4
ENDMDL
MODEL 8
REMARK VINA RESULT:      -8.0      2.627      8.760
REMARK  Name = 
REMARK  6 active torsions:
REMARK  status: ('A' for Active; 'I' for Inactive)
REMARK    1  A    between atoms: C_1  and  C_2
REMARK    2  A    between atoms: C_4  and  C_5
REMARK    3  A    between atoms: C_14  and  N_15
REMARK    4  A    between atoms: N_15  and  C_16
REMARK    5  A    between atoms: C_16  and  C_17
REMARK    6  A    between atoms: C_25  and  C_26
REMARK                            x       y       z     vdW  Elec       q    Type
REMARK                         _______ _______ _______ _____ _____    ______ ____
ROOT
ATOM      1  N   UNL     1       2.286   5.394  18.833  0.00  0.00    +0.000 N 
ATOM      2  H   UNL     1       1.866   4.525  19.160  0.00  0.00    +0.000 HD
ENDROOT
BRANCH   1   9
ATOM      3  C   UNL     1       3.073   2.613  17.972  0.00  0.00    +0.000 C 
ATOM      4  C   UNL     1       3.753   3.880  17.521  0.00  0.00    +0.000 A 
ATOM      5  C   UNL     1       4.845   3.737  16.631  0.00  0.00    +0.000 A 
ATOM      6  C   UNL     1       5.518   4.848  16.111  0.00  0.00    +0.000 A 
ATOM      7  C   UNL     1       5.115   6.116  16.507  0.00  0.00    +0.000 A 
ATOM      8  C   UNL     1       4.032   6.268  17.370  0.00  0.00    +0.000 A 
ATOM      9  C   UNL     1       3.367   5.171  17.949  0.00  0.00    +0.000 A 
BRANCH   6  10
ATOM     10  C   UNL     1       6.654   4.631  15.176  0.00  0.00    +0.000 C 
ATOM     11  O   UNL     1       7.795   4.667  15.636  0.00  0.00    +0.000 OA
ATOM     12  N   UNL     1       6.405   4.360  13.838  0.00  0.00    +0.000 N 
ATOM     13  C   UNL     1       5.132   4.167  13.165  0.00  0.00    +0.000 C 
ATOM     14  C   UNL     1       5.434   3.102  12.134  0.00  0.00    +0.000 C 
ATOM     15  C   UNL     1       6.853   3.438  11.696  0.00  0.00    +0.000 C 
ATOM     16  C   UNL     1       7.502   4.061  12.932  0.00  0.00    +0.000 C 
ENDBRANCH   6  10
ENDBRANCH   1   9
BRANCH   1  17
ATOM     17  C   UNL     1       2.585   6.261  19.988  0.00  0.00    +0.000 C 
BRANCH  17  18
ATOM     18  C   UNL     1       1.979   7.640  19.801  0.00  0.00    +0.000 A 
ATOM     19  C   UNL     1       2.146   8.300  18.641  0.00  0.00    +0.000 A 
ATOM     20  C   UNL     1       1.529   9.617  18.478  0.00  0.00    +0.000 A 
ATOM     21  O   UNL     1       1.707  10.226  17.424  0.00  0.00    +0.000 OA
ATOM     22  N   UNL     1       0.780  10.068  19.555  0.00  0.00    +0.000 N 
ATOM     23  C   UNL     1       0.036  11.232  19.417  0.00  0.00    +0.000 A 
ATOM     24  C   UNL     1      -0.718  11.705  20.415  0.00  0.00    +0.000 A 
ATOM     25  C   UNL     1      -0.691  11.061  21.700  0.00  0.00    +0.000 A 
ATOM     26  C   UNL     1       0.036   9.952  21.905  0.00  0.00    +0.000 A 
ATOM     27  C   UNL     1       0.196   9.312  23.248  0.00  0.00    +0.000 C 
ATOM     28  C   UNL     1       0.760   9.331  20.740  0.00  0.00    +0.000 A 
ATOM     29  N   UNL     1       1.322   8.170  20.883  0.00  0.00    +0.000 NA
ENDBRANCH  17  18
ENDBRANCH   1  17
TORSDOF 4
ENDMDL
MODEL 9
REMARK VINA RESULT:      -8.0      2.770      4.042
REMARK  Name = 
REMARK  6 active torsions:
REMARK  status: ('A' for Active; 'I' for Inactive)
REMARK    1  A    between atoms: C_1  and  C_2
REMARK    2  A    between atoms: C_4  and  C_5
REMARK    3  A    between atoms: C_14  and  N_15
REMARK    4  A    between atoms: N_15  and  C_16
REMARK    5  A    between atoms: C_16  and  C_17
REMARK    6  A    between atoms: C_25  and  C_26
REMARK                            x       y       z     vdW  Elec       q    Type
REMARK                         _______ _______ _______ _____ _____    ______ ____
ROOT
ATOM      1  N   UNL     1       0.697   9.562  17.792  0.00  0.00    +0.000 N 
ATOM      2  H   UNL     1       0.497   9.641  16.795  0.00  0.00    +0.000 HD
ENDROOT
BRANCH   1   9
ATOM      3  C   UNL     1      -2.274  10.058  17.647  0.00  0.00    +0.000 C 
ATOM      4  C   UNL     1      -1.312  10.833  18.508  0.00  0.00    +0.000 A 
ATOM      5  C   UNL     1      -1.857  11.874  19.298  0.00  0.00    +0.000 A 
ATOM      6  C   UNL     1      -1.062  12.628  20.169  0.00  0.00    +0.000 A 
ATOM      7  C   UNL     1       0.297  12.358  20.232  0.00  0.00    +0.000 A 
ATOM      8  C   UNL     1       0.841  11.326  19.471  0.00  0.00    +0.000 A 
ATOM      9  C   UNL     1       0.079  10.584  18.549  0.00  0.00    +0.000 A 
BRANCH   6  10
ATOM     10  C   UNL     1      -1.697  13.704  20.977  0.00  0.00    +0.000 C 
ATOM     11  O   UNL     1      -1.841  14.808  20.453  0.00  0.00    +0.000 OA
ATOM     12  N   UNL     1      -2.140  13.432  22.263  0.00  0.00    +0.000 N 
ATOM     13  C   UNL     1      -2.155  12.168  22.978  0.00  0.00    +0.000 C 
ATOM     14  C   UNL     1      -3.428  12.235  23.792  0.00  0.00    +0.000 C 
ATOM     15  C   UNL     1      -3.509  13.705  24.185  0.00  0.00    +0.000 C 
ATOM     16  C   UNL     1      -2.839  14.451  23.030  0.00  0.00    +0.000 C 
ENDBRANCH   6  10
ENDBRANCH   1   9
BRANCH   1  17
ATOM     17  C   UNL     1       2.151   9.419  17.992  0.00  0.00    +0.000 C 
BRANCH  17  18
ATOM     18  C   UNL     1       2.511   7.988  18.348  0.00  0.00    +0.000 A 
ATOM     19  C   UNL     1       2.052   7.439  19.487  0.00  0.00    +0.000 A 
ATOM     20  C   UNL     1       2.392   6.049  19.794  0.00  0.00    +0.000 A 
ATOM     21  O   UNL     1       1.990   5.562  20.849  0.00  0.00    +0.000 OA
ATOM     22  N   UNL     1       3.156   5.392  18.840  0.00  0.00    +0.000 N 
ATOM     23  C   UNL     1       3.384   4.031  18.982  0.00  0.00    +0.000 A 
ATOM     24  C   UNL     1       4.099   3.342  18.086  0.00  0.00    +0.000 A 
ATOM     25  C   UNL     1       4.735   4.031  16.996  0.00  0.00    +0.000 A 
ATOM     26  C   UNL     1       4.580   5.353  16.825  0.00  0.00    +0.000 A 
ATOM     27  C   UNL     1       5.314   6.138  15.785  0.00  0.00    +0.000 C 
ATOM     28  C   UNL     1       3.650   6.100  17.743  0.00  0.00    +0.000 A 
ATOM     29  N   UNL     1       3.356   7.338  17.485  0.00  0.00    +0.000 NA
ENDBRANCH  17  18
ENDBRANCH   1  17
TORSDOF 4
ENDMDL
