MODEL 1
REMARK VINA RESULT:      -8.5      0.000      0.000
REMARK  Name = 
REMARK  8 active torsions:
REMARK  status: ('A' for Active; 'I' for Inactive)
REMARK    1  A    between atoms: C_1  and  O_2
REMARK    2  A    between atoms: O_2  and  C_3
REMARK    3  A    between atoms: C_3  and  C_4
REMARK    4  A    between atoms: C_3  and  C_26
REMARK    5  A    between atoms: C_4  and  N_5
REMARK    6  A    between atoms: C_6  and  C_8
REMARK    7  A    between atoms: C_12  and  C_13
REMARK    8  A    between atoms: C_13  and  N_14
REMARK                            x       y       z     vdW  Elec       q    Type
REMARK                         _______ _______ _______ _____ _____    ______ ____
ROOT
ATOM      1  C   UNL     1       2.289   4.485  18.478  0.00  0.00    +0.000 A 
ATOM      2  C   UNL     1       1.539   3.684  19.351  0.00  0.00    +0.000 A 
ATOM      3  C   UNL     1       0.964   4.250  20.490  0.00  0.00    +0.000 A 
ATOM      4  C   UNL     1       1.174   5.600  20.788  0.00  0.00    +0.000 A 
ATOM      5  C   UNL     1       1.953   6.414  19.948  0.00  0.00    +0.000 A 
ATOM      6  C   UNL     1       2.469   5.847  18.772  0.00  0.00    +0.000 A 
ENDROOT
BRANCH   1   8
ATOM      7  N   UNL     1       4.192   4.513  16.930  0.00  0.00    +0.000 N 
ATOM      8  C   UNL     1       2.998   3.931  17.292  0.00  0.00    +0.000 C 
ATOM      9  O   UNL     1       2.523   2.984  16.682  0.00  0.00    +0.000 OA
ATOM     10  H   UNL     1       4.641   5.201  17.521  0.00  0.00    +0.000 HD
BRANCH   7  11
ATOM     11  C   UNL     1       4.862   4.119  15.703  0.00  0.00    +0.000 C 
BRANCH  11  12
ATOM     12  C   UNL     1       6.014   5.070  15.303  0.00  0.00    +0.000 C 
BRANCH  12  13
ATOM     13  C   UNL     1       6.705   5.610  16.549  0.00  0.00    +0.000 A 
ATOM     14  C   UNL     1       7.250   4.722  17.492  0.00  0.00    +0.000 A 
ATOM     15  C   UNL     1       7.955   5.206  18.597  0.00  0.00    +0.000 A 
ATOM     16  C   UNL     1       8.131   6.578  18.770  0.00  0.00    +0.000 A 
ATOM     17  C   UNL     1       7.587   7.470  17.850  0.00  0.00    +0.000 A 
ATOM     18  C   UNL     1       6.875   6.989  16.752  0.00  0.00    +0.000 A 
ENDBRANCH  12  13
BRANCH  12  20
ATOM     19  C   UNL     1       6.462   3.829  13.300  0.00  0.00    +0.000 C 
ATOM     20  O   UNL     1       6.999   4.431  14.469  0.00  0.00    +0.000 OA
ENDBRANCH  12  20
ENDBRANCH  11  12
ENDBRANCH   7  11
ENDBRANCH   1   8
BRANCH   5  21
ATOM     21  C   UNL     1       2.178   7.902  20.250  0.00  0.00    +0.000 C 
BRANCH  21  22
ATOM     22  N   UNL     1       1.126   8.708  19.660  0.00  0.00    +0.000 N 
ATOM     23  C   UNL     1       1.472   9.484  18.582  0.00  0.00    +0.000 C 
ATOM     24  O   UNL     1       2.099   9.175  17.584  0.00  0.00    +0.000 OA
ATOM     25  C   UNL     1       1.135  10.848  18.956  0.00  0.00    +0.000 A 
ATOM     26  C   UNL     1       1.795  11.998  18.560  0.00  0.00    +0.000 A 
ATOM     27  C   UNL     1       1.666  13.116  19.385  0.00  0.00    +0.000 A 
ATOM     28  C   UNL     1       0.868  13.074  20.547  0.00  0.00    +0.000 A 
ATOM     29  C   UNL     1       0.205  11.904  20.925  0.00  0.00    +0.000 A 
ATOM     30  C   UNL     1       0.385  10.797  20.119  0.00  0.00    +0.000 A 
ATOM     31  C   UNL     1       0.290   9.394  20.509  0.00  0.00    +0.000 C 
ATOM     32  O   UNL     1      -0.297   8.989  21.497  0.00  0.00    +0.000 OA
ENDBRANCH  21  22
ENDBRANCH   5  21
TORSDOF 7
ENDMDL
MODEL 2
REMARK VINA RESULT:      -8.3      2.188      8.373
REMARK  Name = 
REMARK  8 active torsions:
REMARK  status: ('A' for Active; 'I' for Inactive)
REMARK    1  A    between atoms: C_1  and  O_2
REMARK    2  A    between atoms: O_2  and  C_3
REMARK    3  A    between atoms: C_3  and  C_4
REMARK    4  A    between atoms: C_3  and  C_26
REMARK    5  A    between atoms: C_4  and  N_5
REMARK    6  A    between atoms: C_6  and  C_8
REMARK    7  A    between atoms: C_12  and  C_13
REMARK    8  A    between atoms: C_13  and  N_14
REMARK                            x       y       z     vdW  Elec       q    Type
REMARK                         _______ _______ _______ _____ _____    ______ ____
ROOT
ATOM      1  C   UNL     1       2.298   7.041  18.863  0.00  0.00    +0.000 A 
ATOM      2  C   UNL     1       2.078   6.714  20.208  0.00  0.00    +0.000 A 
ATOM      3  C   UNL     1       2.206   5.389  20.629  0.00  0.00    +0.000 A 
ATOM      4  C   UNL     1       2.503   4.382  19.705  0.00  0.00    +0.000 A 
ATOM      5  C   UNL     1       2.691   4.680  18.345  0.00  0.00    +0.000 A 
ATOM      6  C   UNL     1       2.625   6.025  17.948  0.00  0.00    +0.000 A 
ENDROOT
BRANCH   1   8
ATOM      7  N   UNL     1       1.334   9.288  19.073  0.00  0.00    +0.000 N 
ATOM      8  C   UNL     1       2.098   8.417  18.329  0.00  0.00    +0.000 C 
ATOM      9  O   UNL     1       2.615   8.743  17.270  0.00  0.00    +0.000 OA
ATOM     10  H   UNL     1       1.030   9.052  20.008  0.00  0.00    +0.000 HD
BRANCH   7  11
ATOM     11  C   UNL     1       0.981  10.594  18.544  0.00  0.00    +0.000 C 
BRANCH  11  12
ATOM     12  C   UNL     1      -0.244  11.226  19.245  0.00  0.00    +0.000 C 
BRANCH  12  13
ATOM     13  C   UNL     1      -1.507  10.960  18.435  0.00  0.00    +0.000 A 
ATOM     14  C   UNL     1      -2.677  11.691  18.695  0.00  0.00    +0.000 A 
ATOM     15  C   UNL     1      -3.816  11.512  17.906  0.00  0.00    +0.000 A 
ATOM     16  C   UNL     1      -3.799  10.607  16.846  0.00  0.00    +0.000 A 
ATOM     17  C   UNL     1      -2.650   9.868  16.582  0.00  0.00    +0.000 A 
ATOM     18  C   UNL     1      -1.515  10.038  17.375  0.00  0.00    +0.000 A 
ENDBRANCH  12  13
BRANCH  12  20
ATOM     19  C   UNL     1      -0.107  11.661  21.600  0.00  0.00    +0.000 C 
ATOM     20  O   UNL     1      -0.439  10.728  20.582  0.00  0.00    +0.000 OA
ENDBRANCH  12  20
ENDBRANCH  11  12
ENDBRANCH   7  11
ENDBRANCH   1   8
BRANCH   5  21
ATOM     21  C   UNL     1       3.037   3.590  17.321  0.00  0.00    +0.000 C 
BRANCH  21  22
ATOM     22  N   UNL     1       4.474   3.408  17.234  0.00  0.00    +0.000 N 
ATOM     23  C   UNL     1       5.178   3.471  18.411  0.00  0.00    +0.000 C 
ATOM     24  O   UNL     1       4.949   2.919  19.472  0.00  0.00    +0.000 OA
ATOM     25  C   UNL     1       6.159   4.527  18.225  0.00  0.00    +0.000 A 
ATOM     26  C   UNL     1       6.650   5.377  19.200  0.00  0.00    +0.000 A 
ATOM     27  C   UNL     1       7.163   6.602  18.771  0.00  0.00    +0.000 A 
ATOM     28  C   UNL     1       7.205   6.932  17.401  0.00  0.00    +0.000 A 
ATOM     29  C   UNL     1       6.709   6.057  16.432  0.00  0.00    +0.000 A 
ATOM     30  C   UNL     1       6.164   4.871  16.883  0.00  0.00    +0.000 A 
ATOM     31  C   UNL     1       5.143   4.060  16.227  0.00  0.00    +0.000 C 
ATOM     32  O   UNL     1       4.876   4.114  15.040  0.00  0.00    +0.000 OA
ENDBRANCH  21  22
ENDBRANCH   5  21
TORSDOF 7
ENDMDL
MODEL 3
REMARK VINA RESULT:      -8.2      2.426      8.481
REMARK  Name = 
REMARK  8 active torsions:
REMARK  status: ('A' for Active; 'I' for Inactive)
REMARK    1  A    between atoms: C_1  and  O_2
REMARK    2  A    between atoms: O_2  and  C_3
REMARK    3  A    between atoms: C_3  and  C_4
REMARK    4  A    between atoms: C_3  and  C_26
REMARK    5  A    between atoms: C_4  and  N_5
REMARK    6  A    between atoms: C_6  and  C_8
REMARK    7  A    between atoms: C_12  and  C_13
REMARK    8  A    between atoms: C_13  and  N_14
REMARK                            x       y       z     vdW  Elec       q    Type
REMARK                         _______ _______ _______ _____ _____    ______ ____
ROOT
ATOM      1  C   UNL     1       2.889   6.927  19.040  0.00  0.00    +0.000 A 
ATOM      2  C   UNL     1       3.105   7.695  17.887  0.00  0.00    +0.000 A 
ATOM      3  C   UNL     1       4.098   7.321  16.980  0.00  0.00    +0.000 A 
ATOM      4  C   UNL     1       4.909   6.211  17.242  0.00  0.00    +0.000 A 
ATOM      5  C   UNL     1       4.736   5.448  18.409  0.00  0.00    +0.000 A 
ATOM      6  C   UNL     1       3.691   5.797  19.278  0.00  0.00    +0.000 A 
ENDROOT
BRANCH   1   8
ATOM      7  N   UNL     1       1.488   8.625  20.122  0.00  0.00    +0.000 N 
ATOM      8  C   UNL     1       1.906   7.314  20.089  0.00  0.00    +0.000 C 
ATOM      9  O   UNL     1       1.489   6.476  20.875  0.00  0.00    +0.000 OA
ATOM     10  H   UNL     1       1.732   9.273  19.385  0.00  0.00    +0.000 HD
BRANCH   7  11
ATOM     11  C   UNL     1       0.644   9.102  21.204  0.00  0.00    +0.000 C 
BRANCH  11  12
ATOM     12  C   UNL     1       0.342  10.617  21.122  0.00  0.00    +0.000 C 
BRANCH  12  13
ATOM     13  C   UNL     1      -0.757  10.877  20.100  0.00  0.00    +0.000 A 
ATOM     14  C   UNL     1      -1.629  11.966  20.266  0.00  0.00    +0.000 A 
ATOM     15  C   UNL     1      -2.589  12.261  19.294  0.00  0.00    +0.000 A 
ATOM     16  C   UNL     1      -2.685  11.480  18.144  0.00  0.00    +0.000 A 
ATOM     17  C   UNL     1      -1.835  10.391  17.970  0.00  0.00    +0.000 A 
ATOM     18  C   UNL     1      -0.883  10.089  18.944  0.00  0.00    +0.000 A 
ENDBRANCH  12  13
BRANCH  12  20
ATOM     19  C   UNL     1      -0.717  10.246  23.242  0.00  0.00    +0.000 C 
ATOM     20  O   UNL     1      -0.063  11.173  22.387  0.00  0.00    +0.000 OA
ENDBRANCH  12  20
ENDBRANCH  11  12
ENDBRANCH   7  11
ENDBRANCH   1   8
BRANCH   5  21
ATOM     21  C   UNL     1       5.605   4.217  18.702  0.00  0.00    +0.000 C 
BRANCH  21  22
ATOM     22  N   UNL     1       4.794   3.014  18.725  0.00  0.00    +0.000 N 
ATOM     23  C   UNL     1       3.719   2.976  17.874  0.00  0.00    +0.000 C 
ATOM     24  O   UNL     1       3.669   3.252  16.688  0.00  0.00    +0.000 OA
ATOM     25  C   UNL     1       2.557   2.749  18.718  0.00  0.00    +0.000 A 
ATOM     26  C   UNL     1       1.275   3.221  18.499  0.00  0.00    +0.000 A 
ATOM     27  C   UNL     1       0.447   3.342  19.616  0.00  0.00    +0.000 A 
ATOM     28  C   UNL     1       0.897   2.965  20.898  0.00  0.00    +0.000 A 
ATOM     29  C   UNL     1       2.194   2.485  21.096  0.00  0.00    +0.000 A 
ATOM     30  C   UNL     1       3.010   2.417  19.983  0.00  0.00    +0.000 A 
ATOM     31  C   UNL     1       4.468   2.483  19.951  0.00  0.00    +0.000 C 
ATOM     32  O   UNL     1       5.191   2.256  20.904  0.00  0.00    +0.000 OA
ENDBRANCH  21  22
ENDBRANCH   5  21
TORSDOF 7
ENDMDL
MODEL 4
REMARK VINA RESULT:      -8.2      1.001      2.609
REMARK  Name = 
REMARK  8 active torsions:
REMARK  status: ('A' for Active; 'I' for Inactive)
REMARK    1  A    between atoms: C_1  and  O_2
REMARK    2  A    between atoms: O_2  and  C_3
REMARK    3  A    between atoms: C_3  and  C_4
REMARK    4  A    between atoms: C_3  and  C_26
REMARK    5  A    between atoms: C_4  and  N_5
REMARK    6  A    between atoms: C_6  and  C_8
REMARK    7  A    between atoms: C_12  and  C_13
REMARK    8  A    between atoms: C_13  and  N_14
REMARK                            x       y       z     vdW  Elec       q    Type
REMARK                         _______ _______ _______ _____ _____    ______ ____
ROOT
ATOM      1  C   UNL     1       2.609   4.249  18.694  0.00  0.00    +0.000 A 
ATOM      2  C   UNL     1       1.680   3.534  19.463  0.00  0.00    +0.000 A 
ATOM      3  C   UNL     1       0.929   4.196  20.437  0.00  0.00    +0.000 A 
ATOM      4  C   UNL     1       1.137   5.558  20.680  0.00  0.00    +0.000 A 
ATOM      5  C   UNL     1       2.088   6.288  19.948  0.00  0.00    +0.000 A 
ATOM      6  C   UNL     1       2.788   5.624  18.928  0.00  0.00    +0.000 A 
ENDROOT
BRANCH   1   8
ATOM      7  N   UNL     1       4.686   4.220  17.389  0.00  0.00    +0.000 N 
ATOM      8  C   UNL     1       3.501   3.593  17.699  0.00  0.00    +0.000 C 
ATOM      9  O   UNL     1       3.175   2.528  17.196  0.00  0.00    +0.000 OA
ATOM     10  H   UNL     1       5.007   5.024  17.912  0.00  0.00    +0.000 HD
BRANCH   7  11
ATOM     11  C   UNL     1       5.534   3.711  16.324  0.00  0.00    +0.000 C 
BRANCH  11  12
ATOM     12  C   UNL     1       6.621   4.714  15.875  0.00  0.00    +0.000 C 
BRANCH  12  13
ATOM     13  C   UNL     1       6.873   4.578  14.379  0.00  0.00    +0.000 A 
ATOM     14  C   UNL     1       6.151   3.637  13.626  0.00  0.00    +0.000 A 
ATOM     15  C   UNL     1       6.317   3.559  12.241  0.00  0.00    +0.000 A 
ATOM     16  C   UNL     1       7.198   4.422  11.590  0.00  0.00    +0.000 A 
ATOM     17  C   UNL     1       7.928   5.352  12.324  0.00  0.00    +0.000 A 
ATOM     18  C   UNL     1       7.771   5.424  13.708  0.00  0.00    +0.000 A 
ENDBRANCH  12  13
BRANCH  12  20
ATOM     19  C   UNL     1       7.108   6.701  17.127  0.00  0.00    +0.000 C 
ATOM     20  O   UNL     1       6.270   6.081  16.162  0.00  0.00    +0.000 OA
ENDBRANCH  12  20
ENDBRANCH  11  12
ENDBRANCH   7  11
ENDBRANCH   1   8
BRANCH   5  21
ATOM     21  C   UNL     1       2.315   7.787  20.189  0.00  0.00    +0.000 C 
BRANCH  21  22
ATOM     22  N   UNL     1       1.319   8.573  19.486  0.00  0.00    +0.000 N 
ATOM     23  C   UNL     1       1.728   9.206  18.338  0.00  0.00    +0.000 C 
ATOM     24  O   UNL     1       2.358   8.755  17.397  0.00  0.00    +0.000 OA
ATOM     25  C   UNL     1       1.456  10.618  18.549  0.00  0.00    +0.000 A 
ATOM     26  C   UNL     1       2.183  11.681  18.046  0.00  0.00    +0.000 A 
ATOM     27  C   UNL     1       2.097  12.890  18.738  0.00  0.00    +0.000 A 
ATOM     28  C   UNL     1       1.275  13.018  19.876  0.00  0.00    +0.000 A 
ATOM     29  C   UNL     1       0.544  11.933  20.365  0.00  0.00    +0.000 A 
ATOM     30  C   UNL     1       0.681  10.735  19.691  0.00  0.00    +0.000 A 
ATOM     31  C   UNL     1       0.504   9.391  20.232  0.00  0.00    +0.000 C 
ATOM     32  O   UNL     1      -0.124   9.130  21.242  0.00  0.00    +0.000 OA
ENDBRANCH  21  22
ENDBRANCH   5  21
TORSDOF 7
ENDMDL
MODEL 5
REMARK VINA RESULT:      -8.2      1.451      2.829
REMARK  Name = 
REMARK  8 active torsions:
REMARK  status: ('A' for Active; 'I' for Inactive)
REMARK    1  A    between atoms: C_1  and  O_2
REMARK    2  A    between atoms: O_2  and  C_3
REMARK    3  A    between atoms: C_3  and  C_4
REMARK    4  A    between atoms: C_3  and  C_26
REMARK    5  A    between atoms: C_4  and  N_5
REMARK    6  A    between atoms: C_6  and  C_8
REMARK    7  A    between atoms: C_12  and  C_13
REMARK    8  A    between atoms: C_13  and  N_14
REMARK                            x       y       z     vdW  Elec       q    Type
REMARK                         _______ _______ _______ _____ _____    ______ ____
ROOT
ATOM      1  C   UNL     1       3.286   4.516  19.266  0.00  0.00    +0.000 A 
ATOM      2  C   UNL     1       2.222   3.614  19.404  0.00  0.00    +0.000 A 
ATOM      3  C   UNL     1       1.044   4.022  20.033  0.00  0.00    +0.000 A 
ATOM      4  C   UNL     1       0.942   5.310  20.569  0.00  0.00    +0.000 A 
ATOM      5  C   UNL     1       2.009   6.219  20.476  0.00  0.00    +0.000 A 
ATOM      6  C   UNL     1       3.162   5.817  19.783  0.00  0.00    +0.000 A 
ENDROOT
BRANCH   1   8
ATOM      7  N   UNL     1       4.793   4.346  17.337  0.00  0.00    +0.000 N 
ATOM      8  C   UNL     1       4.599   4.124  18.682  0.00  0.00    +0.000 C 
ATOM      9  O   UNL     1       5.463   3.635  19.394  0.00  0.00    +0.000 OA
ATOM     10  H   UNL     1       4.127   4.876  16.791  0.00  0.00    +0.000 HD
BRANCH   7  11
ATOM     11  C   UNL     1       5.990   3.858  16.675  0.00  0.00    +0.000 C 
BRANCH  11  12
ATOM     12  C   UNL     1       6.813   4.978  15.997  0.00  0.00    +0.000 C 
BRANCH  12  13
ATOM     13  C   UNL     1       6.935   4.708  14.502  0.00  0.00    +0.000 A 
ATOM     14  C   UNL     1       6.134   3.725  13.898  0.00  0.00    +0.000 A 
ATOM     15  C   UNL     1       6.179   3.524  12.516  0.00  0.00    +0.000 A 
ATOM     16  C   UNL     1       7.018   4.304  11.722  0.00  0.00    +0.000 A 
ATOM     17  C   UNL     1       7.826   5.274  12.307  0.00  0.00    +0.000 A 
ATOM     18  C   UNL     1       7.789   5.469  13.688  0.00  0.00    +0.000 A 
ENDBRANCH  12  13
BRANCH  12  20
ATOM     19  C   UNL     1       6.931   7.092  17.124  0.00  0.00    +0.000 C 
ATOM     20  O   UNL     1       6.236   6.284  16.184  0.00  0.00    +0.000 OA
ENDBRANCH  12  20
ENDBRANCH  11  12
ENDBRANCH   7  11
ENDBRANCH   1   8
BRANCH   5  21
ATOM     21  C   UNL     1       1.907   7.643  21.042  0.00  0.00    +0.000 C 
BRANCH  21  22
ATOM     22  N   UNL     1       0.790   8.350  20.446  0.00  0.00    +0.000 N 
ATOM     23  C   UNL     1       1.090   9.282  19.484  0.00  0.00    +0.000 C 
ATOM     24  O   UNL     1       1.826   9.178  18.518  0.00  0.00    +0.000 OA
ATOM     25  C   UNL     1       0.525  10.534  19.959  0.00  0.00    +0.000 A 
ATOM     26  C   UNL     1       1.030  11.803  19.738  0.00  0.00    +0.000 A 
ATOM     27  C   UNL     1       0.676  12.794  20.655  0.00  0.00    +0.000 A 
ATOM     28  C   UNL     1      -0.186  12.510  21.733  0.00  0.00    +0.000 A 
ATOM     29  C   UNL     1      -0.690  11.223  21.936  0.00  0.00    +0.000 A 
ATOM     30  C   UNL     1      -0.289  10.248  21.043  0.00  0.00    +0.000 A 
ATOM     31  C   UNL     1      -0.198   8.812  21.283  0.00  0.00    +0.000 C 
ATOM     32  O   UNL     1      -0.786   8.222  22.172  0.00  0.00    +0.000 OA
ENDBRANCH  21  22
ENDBRANCH   5  21
TORSDOF 7
ENDMDL
MODEL 6
REMARK VINA RESULT:      -8.1      3.815      6.619
REMARK  Name = 
REMARK  8 active torsions:
REMARK  status: ('A' for Active; 'I' for Inactive)
REMARK    1  A    between atoms: C_1  and  O_2
REMARK    2  A    between atoms: O_2  and  C_3
REMARK    3  A    between atoms: C_3  and  C_4
REMARK    4  A    between atoms: C_3  and  C_26
REMARK    5  A    between atoms: C_4  and  N_5
REMARK    6  A    between atoms: C_6  and  C_8
REMARK    7  A    between atoms: C_12  and  C_13
REMARK    8  A    between atoms: C_13  and  N_14
REMARK                            x       y       z     vdW  Elec       q    Type
REMARK                         _______ _______ _______ _____ _____    ______ ____
ROOT
ATOM      1  C   UNL     1       0.463   9.616  20.950  0.00  0.00    +0.000 A 
ATOM      2  C   UNL     1       0.626   8.973  22.185  0.00  0.00    +0.000 A 
ATOM      3  C   UNL     1      -0.032   9.465  23.315  0.00  0.00    +0.000 A 
ATOM      4  C   UNL     1      -0.811  10.623  23.228  0.00  0.00    +0.000 A 
ATOM      5  C   UNL     1      -0.959  11.306  22.009  0.00  0.00    +0.000 A 
ATOM      6  C   UNL     1      -0.346  10.763  20.868  0.00  0.00    +0.000 A 
ENDROOT
BRANCH   1   8
ATOM      7  N   UNL     1       1.743   7.933  19.706  0.00  0.00    +0.000 N 
ATOM      8  C   UNL     1       1.198   9.197  19.725  0.00  0.00    +0.000 C 
ATOM      9  O   UNL     1       1.291   9.962  18.776  0.00  0.00    +0.000 OA
ATOM     10  H   UNL     1       1.541   7.263  20.437  0.00  0.00    +0.000 HD
BRANCH   7  11
ATOM     11  C   UNL     1       2.592   7.513  18.605  0.00  0.00    +0.000 C 
BRANCH  11  12
ATOM     12  C   UNL     1       3.384   6.218  18.903  0.00  0.00    +0.000 C 
BRANCH  12  13
ATOM     13  C   UNL     1       2.423   5.065  19.167  0.00  0.00    +0.000 A 
ATOM     14  C   UNL     1       1.950   4.284  18.099  0.00  0.00    +0.000 A 
ATOM     15  C   UNL     1       1.132   3.177  18.338  0.00  0.00    +0.000 A 
ATOM     16  C   UNL     1       0.783   2.832  19.643  0.00  0.00    +0.000 A 
ATOM     17  C   UNL     1       1.235   3.602  20.710  0.00  0.00    +0.000 A 
ATOM     18  C   UNL     1       2.043   4.714  20.473  0.00  0.00    +0.000 A 
ENDBRANCH  12  13
BRANCH  12  20
ATOM     19  C   UNL     1       4.584   6.913  16.946  0.00  0.00    +0.000 C 
ATOM     20  O   UNL     1       4.266   5.846  17.828  0.00  0.00    +0.000 OA
ENDBRANCH  12  20
ENDBRANCH  11  12
ENDBRANCH   7  11
ENDBRANCH   1   8
BRANCH   5  21
ATOM     21  C   UNL     1      -1.825  12.568  21.891  0.00  0.00    +0.000 C 
BRANCH  21  22
ATOM     22  N   UNL     1      -2.121  13.109  23.205  0.00  0.00    +0.000 N 
ATOM     23  C   UNL     1      -3.430  13.057  23.614  0.00  0.00    +0.000 C 
ATOM     24  O   UNL     1      -4.208  12.120  23.581  0.00  0.00    +0.000 OA
ATOM     25  C   UNL     1      -3.805  14.431  23.903  0.00  0.00    +0.000 A 
ATOM     26  C   UNL     1      -5.059  14.993  23.744  0.00  0.00    +0.000 A 
ATOM     27  C   UNL     1      -5.115  16.379  23.580  0.00  0.00    +0.000 A 
ATOM     28  C   UNL     1      -3.943  17.161  23.613  0.00  0.00    +0.000 A 
ATOM     29  C   UNL     1      -2.687  16.574  23.781  0.00  0.00    +0.000 A 
ATOM     30  C   UNL     1      -2.652  15.197  23.894  0.00  0.00    +0.000 A 
ATOM     31  C   UNL     1      -1.547  14.309  23.548  0.00  0.00    +0.000 C 
ATOM     32  O   UNL     1      -0.385  14.660  23.444  0.00  0.00    +0.000 OA
ENDBRANCH  21  22
ENDBRANCH   5  21
TORSDOF 7
ENDMDL
MODEL 7
REMARK VINA RESULT:      -8.1      2.894      8.984
REMARK  Name = 
REMARK  8 active torsions:
REMARK  status: ('A' for Active; 'I' for Inactive)
REMARK    1  A    between atoms: C_1  and  O_2
REMARK    2  A    between atoms: O_2  and  C_3
REMARK    3  A    between atoms: C_3  and  C_4
REMARK    4  A    between atoms: C_3  and  C_26
REMARK    5  A    between atoms: C_4  and  N_5
REMARK    6  A    between atoms: C_6  and  C_8
REMARK    7  A    between atoms: C_12  and  C_13
REMARK    8  A    between atoms: C_13  and  N_14
REMARK                            x       y       z     vdW  Elec       q    Type
REMARK                         _______ _______ _______ _____ _____    ______ ____
ROOT
ATOM      1  C   UNL     1       1.760   8.531  18.926  0.00  0.00    +0.000 A 
ATOM      2  C   UNL     1       1.518   8.109  20.240  0.00  0.00    +0.000 A 
ATOM      3  C   UNL     1       2.049   6.897  20.689  0.00  0.00    +0.000 A 
ATOM      4  C   UNL     1       2.779   6.083  19.817  0.00  0.00    +0.000 A 
ATOM      5  C   UNL     1       3.003   6.467  18.484  0.00  0.00    +0.000 A 
ATOM      6  C   UNL     1       2.520   7.717  18.066  0.00  0.00    +0.000 A 
ENDROOT
BRANCH   1   8
ATOM      7  N   UNL     1      -0.083  10.146  18.817  0.00  0.00    +0.000 N 
ATOM      8  C   UNL     1       1.158   9.768  18.357  0.00  0.00    +0.000 C 
ATOM      9  O   UNL     1       1.768  10.416  17.519  0.00  0.00    +0.000 OA
ATOM     10  H   UNL     1      -0.514   9.682  19.606  0.00  0.00    +0.000 HD
BRANCH   7  11
ATOM     11  C   UNL     1      -0.790  11.257  18.204  0.00  0.00    +0.000 C 
BRANCH  11  12
ATOM     12  C   UNL     1      -2.269  10.939  17.883  0.00  0.00    +0.000 C 
BRANCH  12  13
ATOM     13  C   UNL     1      -3.188  11.745  18.792  0.00  0.00    +0.000 A 
ATOM     14  C   UNL     1      -4.574  11.748  18.568  0.00  0.00    +0.000 A 
ATOM     15  C   UNL     1      -5.433  12.418  19.443  0.00  0.00    +0.000 A 
ATOM     16  C   UNL     1      -4.921  13.086  20.553  0.00  0.00    +0.000 A 
ATOM     17  C   UNL     1      -3.548  13.102  20.783  0.00  0.00    +0.000 A 
ATOM     18  C   UNL     1      -2.688  12.442  19.905  0.00  0.00    +0.000 A 
ENDBRANCH  12  13
BRANCH  12  20
ATOM     19  C   UNL     1      -2.663  10.068  15.683  0.00  0.00    +0.000 C 
ATOM     20  O   UNL     1      -2.613  11.220  16.513  0.00  0.00    +0.000 OA
ENDBRANCH  12  20
ENDBRANCH  11  12
ENDBRANCH   7  11
ENDBRANCH   1   8
BRANCH   5  21
ATOM     21  C   UNL     1       3.817   5.594  17.519  0.00  0.00    +0.000 C 
BRANCH  21  22
ATOM     22  N   UNL     1       3.486   4.193  17.694  0.00  0.00    +0.000 N 
ATOM     23  C   UNL     1       2.152   3.876  17.763  0.00  0.00    +0.000 C 
ATOM     24  O   UNL     1       1.242   4.229  17.034  0.00  0.00    +0.000 OA
ATOM     25  C   UNL     1       1.974   3.197  19.035  0.00  0.00    +0.000 A 
ATOM     26  C   UNL     1       0.847   3.231  19.837  0.00  0.00    +0.000 A 
ATOM     27  C   UNL     1       1.029   2.965  21.195  0.00  0.00    +0.000 A 
ATOM     28  C   UNL     1       2.302   2.643  21.708  0.00  0.00    +0.000 A 
ATOM     29  C   UNL     1       3.427   2.608  20.880  0.00  0.00    +0.000 A 
ATOM     30  C   UNL     1       3.230   2.920  19.548  0.00  0.00    +0.000 A 
ATOM     31  C   UNL     1       4.208   3.473  18.616  0.00  0.00    +0.000 C 
ATOM     32  O   UNL     1       5.415   3.413  18.765  0.00  0.00    +0.000 OA
ENDBRANCH  21  22
ENDBRANCH   5  21
TORSDOF 7
ENDMDL
MODEL 8
REMARK VINA RESULT:      -8.1      2.546      8.374
REMARK  Name = 
REMARK  8 active torsions:
REMARK  status: ('A' for Active; 'I' for Inactive)
REMARK    1  A    between atoms: C_1  and  O_2
REMARK    2  A    between atoms: O_2  and  C_3
REMARK    3  A    between atoms: C_3  and  C_4
REMARK    4  A    between atoms: C_3  and  C_26
REMARK    5  A    between atoms: C_4  and  N_5
REMARK    6  A    between atoms: C_6  and  C_8
REMARK    7  A    between atoms: C_12  and  C_13
REMARK    8  A    between atoms: C_13  and  N_14
REMARK                            x       y       z     vdW  Elec       q    Type
REMARK                         _______ _______ _______ _____ _____    ______ ____
ROOT
ATOM      1  C   UNL     1       3.275   7.001  18.365  0.00  0.00    +0.000 A 
ATOM      2  C   UNL     1       3.680   7.528  17.130  0.00  0.00    +0.000 A 
ATOM      3  C   UNL     1       4.707   6.908  16.415  0.00  0.00    +0.000 A 
ATOM      4  C   UNL     1       5.365   5.795  16.949  0.00  0.00    +0.000 A 
ATOM      5  C   UNL     1       5.001   5.272  18.202  0.00  0.00    +0.000 A 
ATOM      6  C   UNL     1       3.924   5.865  18.879  0.00  0.00    +0.000 A 
ENDROOT
BRANCH   1   8
ATOM      7  N   UNL     1       1.689   8.831  18.760  0.00  0.00    +0.000 N 
ATOM      8  C   UNL     1       2.246   7.658  19.217  0.00  0.00    +0.000 C 
ATOM      9  O   UNL     1       1.915   7.149  20.278  0.00  0.00    +0.000 OA
ATOM     10  H   UNL     1       1.868   9.167  17.823  0.00  0.00    +0.000 HD
BRANCH   7  11
ATOM     11  C   UNL     1       0.788   9.597  19.603  0.00  0.00    +0.000 C 
BRANCH  11  12
ATOM     12  C   UNL     1       0.336  10.930  18.964  0.00  0.00    +0.000 C 
BRANCH  12  13
ATOM     13  C   UNL     1      -1.110  10.824  18.496  0.00  0.00    +0.000 A 
ATOM     14  C   UNL     1      -2.089  11.673  19.038  0.00  0.00    +0.000 A 
ATOM     15  C   UNL     1      -3.402  11.638  18.560  0.00  0.00    +0.000 A 
ATOM     16  C   UNL     1      -3.750  10.763  17.533  0.00  0.00    +0.000 A 
ATOM     17  C   UNL     1      -2.794   9.908  16.994  0.00  0.00    +0.000 A 
ATOM     18  C   UNL     1      -1.486   9.934  17.477  0.00  0.00    +0.000 A 
ENDBRANCH  12  13
BRANCH  12  20
ATOM     19  C   UNL     1       1.579  12.872  19.623  0.00  0.00    +0.000 C 
ATOM     20  O   UNL     1       0.449  12.047  19.866  0.00  0.00    +0.000 OA
ENDBRANCH  12  20
ENDBRANCH  11  12
ENDBRANCH   7  11
ENDBRANCH   1   8
BRANCH   5  21
ATOM     21  C   UNL     1       5.700   4.040  18.794  0.00  0.00    +0.000 C 
BRANCH  21  22
ATOM     22  N   UNL     1       4.792   2.909  18.835  0.00  0.00    +0.000 N 
ATOM     23  C   UNL     1       3.680   2.978  18.034  0.00  0.00    +0.000 C 
ATOM     24  O   UNL     1       3.601   3.282  16.857  0.00  0.00    +0.000 OA
ATOM     25  C   UNL     1       2.543   2.832  18.927  0.00  0.00    +0.000 A 
ATOM     26  C   UNL     1       1.297   3.415  18.776  0.00  0.00    +0.000 A 
ATOM     27  C   UNL     1       0.533   3.583  19.932  0.00  0.00    +0.000 A 
ATOM     28  C   UNL     1       1.006   3.143  21.185  0.00  0.00    +0.000 A 
ATOM     29  C   UNL     1       2.265   2.552  21.315  0.00  0.00    +0.000 A 
ATOM     30  C   UNL     1       3.022   2.438  20.165  0.00  0.00    +0.000 A 
ATOM     31  C   UNL     1       4.477   2.383  20.066  0.00  0.00    +0.000 C 
ATOM     32  O   UNL     1       5.221   2.076  20.980  0.00  0.00    +0.000 OA
ENDBRANCH  21  22
ENDBRANCH   5  21
TORSDOF 7
ENDMDL
MODEL 9
REMARK VINA RESULT:      -8.0      1.511      2.865
REMARK  Name = 
REMARK  8 active torsions:
REMARK  status: ('A' for Active; 'I' for Inactive)
REMARK    1  A    between atoms: C_1  and  O_2
REMARK    2  A    between atoms: O_2  and  C_3
REMARK    3  A    between atoms: C_3  and  C_4
REMARK    4  A    between atoms: C_3  and  C_26
REMARK    5  A    between atoms: C_4  and  N_5
REMARK    6  A    between atoms: C_6  and  C_8
REMARK    7  A    between atoms: C_12  and  C_13
REMARK    8  A    between atoms: C_13  and  N_14
REMARK                            x       y       z     vdW  Elec       q    Type
REMARK                         _______ _______ _______ _____ _____    ______ ____
ROOT
ATOM      1  C   UNL     1       2.957   5.488  18.781  0.00  0.00    +0.000 A 
ATOM      2  C   UNL     1       2.392   4.941  19.941  0.00  0.00    +0.000 A 
ATOM      3  C   UNL     1       1.638   5.751  20.793  0.00  0.00    +0.000 A 
ATOM      4  C   UNL     1       1.488   7.115  20.518  0.00  0.00    +0.000 A 
ATOM      5  C   UNL     1       2.076   7.693  19.381  0.00  0.00    +0.000 A 
ATOM      6  C   UNL     1       2.775   6.853  18.499  0.00  0.00    +0.000 A 
ENDROOT
BRANCH   1   8
ATOM      7  N   UNL     1       5.200   4.821  18.044  0.00  0.00    +0.000 N 
ATOM      8  C   UNL     1       3.839   4.704  17.873  0.00  0.00    +0.000 C 
ATOM      9  O   UNL     1       3.349   3.979  17.020  0.00  0.00    +0.000 OA
ATOM     10  H   UNL     1       5.590   5.312  18.838  0.00  0.00    +0.000 HD
BRANCH   7  11
ATOM     11  C   UNL     1       6.117   4.199  17.105  0.00  0.00    +0.000 C 
BRANCH  11  12
ATOM     12  C   UNL     1       6.925   5.220  16.270  0.00  0.00    +0.000 C 
BRANCH  12  13
ATOM     13  C   UNL     1       6.927   4.812  14.802  0.00  0.00    +0.000 A 
ATOM     14  C   UNL     1       6.006   3.860  14.335  0.00  0.00    +0.000 A 
ATOM     15  C   UNL     1       5.946   3.538  12.976  0.00  0.00    +0.000 A 
ATOM     16  C   UNL     1       6.798   4.166  12.069  0.00  0.00    +0.000 A 
ATOM     17  C   UNL     1       7.724   5.103  12.519  0.00  0.00    +0.000 A 
ATOM     18  C   UNL     1       7.791   5.419  13.876  0.00  0.00    +0.000 A 
ENDBRANCH  12  13
BRANCH  12  20
ATOM     19  C   UNL     1       7.160   7.404  17.235  0.00  0.00    +0.000 C 
ATOM     20  O   UNL     1       6.406   6.559  16.376  0.00  0.00    +0.000 OA
ENDBRANCH  12  20
ENDBRANCH  11  12
ENDBRANCH   7  11
ENDBRANCH   1   8
BRANCH   5  21
ATOM     21  C   UNL     1       1.905   9.183  19.054  0.00  0.00    +0.000 C 
BRANCH  21  22
ATOM     22  N   UNL     1       0.658   9.686  19.599  0.00  0.00    +0.000 N 
ATOM     23  C   UNL     1      -0.241  10.212  18.705  0.00  0.00    +0.000 C 
ATOM     24  O   UNL     1      -0.634   9.747  17.649  0.00  0.00    +0.000 OA
ATOM     25  C   UNL     1      -0.487  11.573  19.150  0.00  0.00    +0.000 A 
ATOM     26  C   UNL     1      -0.772  12.663  18.347  0.00  0.00    +0.000 A 
ATOM     27  C   UNL     1      -0.477  13.925  18.867  0.00  0.00    +0.000 A 
ATOM     28  C   UNL     1       0.054  14.070  20.164  0.00  0.00    +0.000 A 
ATOM     29  C   UNL     1       0.329  12.956  20.961  0.00  0.00    +0.000 A 
ATOM     30  C   UNL     1       0.073  11.716  20.409  0.00  0.00    +0.000 A 
ATOM     31  C   UNL     1       0.719  10.450  20.740  0.00  0.00    +0.000 C 
ATOM     32  O   UNL     1       1.317  10.231  21.778  0.00  0.00    +0.000 OA
ENDBRANCH  21  22
ENDBRANCH   5  21
TORSDOF 7
ENDMDL
