MODEL 1
REMARK VINA RESULT:      -7.8      0.000      0.000
REMARK  Name = 
REMARK  7 active torsions:
REMARK  status: ('A' for Active; 'I' for Inactive)
REMARK    1  A    between atoms: C_1  and  C_2
REMARK    2  A    between atoms: C_2  and  C_3
REMARK    3  A    between atoms: C_3  and  C_4
REMARK    4  A    between atoms: C_4  and  C_5
REMARK    5  A    between atoms: N_14  and  C_15
REMARK    6  A    between atoms: C_15  and  C_16
REMARK    7  A    between atoms: C_18  and  N_19
REMARK                            x       y       z     vdW  Elec       q    Type
REMARK                         _______ _______ _______ _____ _____    ______ ____
ROOT
ATOM      1  C   UNL     1       1.954   5.003  19.382  0.00  0.00    +0.000 C 
ATOM      2  N   UNL     1       1.481   4.296  18.212  0.00  0.00    +0.000 N 
ATOM      3  C   UNL     1       2.455   3.528  17.615  0.00  0.00    +0.000 C 
ATOM      4  O   UNL     1       2.249   2.846  16.625  0.00  0.00    +0.000 OA
ATOM      5  N   UNL     1       3.608   3.660  18.326  0.00  0.00    +0.000 N 
ATOM      6  C   UNL     1       3.401   4.449  19.417  0.00  0.00    +0.000 C 
ATOM      7  O   UNL     1       4.232   4.681  20.292  0.00  0.00    +0.000 OA
ATOM      8  H   UNL     1       0.542   4.338  17.838  0.00  0.00    +0.000 HD
ENDROOT
BRANCH   1   9
ATOM      9  C   UNL     1       1.983   6.520  19.193  0.00  0.00    +0.000 A 
ATOM     10  C   UNL     1       2.399   7.059  17.957  0.00  0.00    +0.000 A 
ATOM     11  C   UNL     1       2.378   8.437  17.720  0.00  0.00    +0.000 A 
ATOM     12  C   UNL     1       1.943   9.304  18.716  0.00  0.00    +0.000 A 
ATOM     13  C   UNL     1       1.543   8.799  19.949  0.00  0.00    +0.000 A 
ATOM     14  C   UNL     1       1.564   7.420  20.188  0.00  0.00    +0.000 A 
ENDBRANCH   1   9
BRANCH   1  15
ATOM     15  C   UNL     1       1.164   4.582  20.641  0.00  0.00    +0.000 C 
BRANCH  15  17
ATOM     16  C   UNL     1       1.785   2.488  21.903  0.00  0.00    +0.000 C 
ATOM     17  C   UNL     1       0.936   3.070  20.782  0.00  0.00    +0.000 C 
ENDBRANCH  15  17
ENDBRANCH   1  15
BRANCH   5  18
ATOM     18  C   UNL     1       4.879   3.029  18.014  0.00  0.00    +0.000 C 
BRANCH  18  19
ATOM     19  C   UNL     1       5.698   3.860  17.056  0.00  0.00    +0.000 A 
ATOM     20  C   UNL     1       5.579   3.714  15.667  0.00  0.00    +0.000 A 
ATOM     21  C   UNL     1       6.320   4.543  14.811  0.00  0.00    +0.000 A 
ATOM     22  C   UNL     1       7.062   5.621  15.328  0.00  0.00    +0.000 A 
ATOM     23  C   UNL     1       7.160   5.788  16.715  0.00  0.00    +0.000 A 
ATOM     24  C   UNL     1       6.552   4.852  17.551  0.00  0.00    +0.000 A 
ATOM     25  O   UNL     1       6.825   4.812  18.887  0.00  0.00    +0.000 OA
ATOM     26  C   UNL     1       7.167   6.080  19.420  0.00  0.00    +0.000 C 
ATOM     27  O   UNL     1       8.187   6.755  18.696  0.00  0.00    +0.000 OA
ATOM     28  C   UNL     1       7.831   6.977  17.336  0.00  0.00    +0.000 C 
BRANCH  21  29
ATOM     29  N   UNL     1       6.353   4.251  13.368  0.00  0.00    +0.000 N 
ATOM     30  O   UNL     1       7.321   4.675  12.718  0.00  0.00    +0.000 OA
ATOM     31  O   UNL     1       5.397   3.638  12.890  0.00  0.00    +0.000 OA
ENDBRANCH  21  29
ENDBRANCH  18  19
ENDBRANCH   5  18
TORSDOF 6
ENDMDL
MODEL 2
REMARK VINA RESULT:      -7.7      0.166      1.058
REMARK  Name = 
REMARK  7 active torsions:
REMARK  status: ('A' for Active; 'I' for Inactive)
REMARK    1  A    between atoms: C_1  and  C_2
REMARK    2  A    between atoms: C_2  and  C_3
REMARK    3  A    between atoms: C_3  and  C_4
REMARK    4  A    between atoms: C_4  and  C_5
REMARK    5  A    between atoms: N_14  and  C_15
REMARK    6  A    between atoms: C_15  and  C_16
REMARK    7  A    between atoms: C_18  and  N_19
REMARK                            x       y       z     vdW  Elec       q    Type
REMARK                         _______ _______ _______ _____ _____    ______ ____
ROOT
ATOM      1  C   UNL     1       1.887   4.856  19.233  0.00  0.00    +0.000 C 
ATOM      2  N   UNL     1       1.445   4.168  18.040  0.00  0.00    +0.000 N 
ATOM      3  C   UNL     1       2.436   3.417  17.450  0.00  0.00    +0.000 C 
ATOM      4  O   UNL     1       2.257   2.752  16.444  0.00  0.00    +0.000 OA
ATOM      5  N   UNL     1       3.573   3.543  18.189  0.00  0.00    +0.000 N 
ATOM      6  C   UNL     1       3.337   4.310  19.289  0.00  0.00    +0.000 C 
ATOM      7  O   UNL     1       4.146   4.530  20.187  0.00  0.00    +0.000 OA
ATOM      8  H   UNL     1       0.514   4.212  17.645  0.00  0.00    +0.000 HD
ENDROOT
BRANCH   1   9
ATOM      9  C   UNL     1       1.911   6.376  19.071  0.00  0.00    +0.000 A 
ATOM     10  C   UNL     1       1.501   7.197  20.144  0.00  0.00    +0.000 A 
ATOM     11  C   UNL     1       1.568   8.590  20.062  0.00  0.00    +0.000 A 
ATOM     12  C   UNL     1       2.045   9.194  18.903  0.00  0.00    +0.000 A 
ATOM     13  C   UNL     1       2.440   8.407  17.825  0.00  0.00    +0.000 A 
ATOM     14  C   UNL     1       2.372   7.012  17.905  0.00  0.00    +0.000 A 
ENDBRANCH   1   9
BRANCH   1  15
ATOM     15  C   UNL     1       1.072   4.408  20.466  0.00  0.00    +0.000 C 
BRANCH  15  17
ATOM     16  C   UNL     1       1.775   2.510  21.971  0.00  0.00    +0.000 C 
ATOM     17  C   UNL     1       1.037   2.889  20.696  0.00  0.00    +0.000 C 
ENDBRANCH  15  17
ENDBRANCH   1  15
BRANCH   5  18
ATOM     18  C   UNL     1       4.854   2.925  17.894  0.00  0.00    +0.000 C 
BRANCH  18  19
ATOM     19  C   UNL     1       5.690   3.780  16.973  0.00  0.00    +0.000 A 
ATOM     20  C   UNL     1       5.607   3.661  15.579  0.00  0.00    +0.000 A 
ATOM     21  C   UNL     1       6.363   4.512  14.758  0.00  0.00    +0.000 A 
ATOM     22  C   UNL     1       7.084   5.584  15.313  0.00  0.00    +0.000 A 
ATOM     23  C   UNL     1       7.146   5.724  16.706  0.00  0.00    +0.000 A 
ATOM     24  C   UNL     1       6.526   4.767  17.508  0.00  0.00    +0.000 A 
ATOM     25  O   UNL     1       6.765   4.703  18.849  0.00  0.00    +0.000 OA
ATOM     26  C   UNL     1       7.086   5.962  19.416  0.00  0.00    +0.000 C 
ATOM     27  O   UNL     1       8.118   6.658  18.730  0.00  0.00    +0.000 OA
ATOM     28  C   UNL     1       7.794   6.905  17.366  0.00  0.00    +0.000 C 
BRANCH  21  29
ATOM     29  N   UNL     1       6.432   4.248  13.310  0.00  0.00    +0.000 N 
ATOM     30  O   UNL     1       5.533   3.556  12.809  0.00  0.00    +0.000 OA
ATOM     31  O   UNL     1       7.400   4.699  12.696  0.00  0.00    +0.000 OA
ENDBRANCH  21  29
ENDBRANCH  18  19
ENDBRANCH   5  18
TORSDOF 6
ENDMDL
MODEL 3
REMARK VINA RESULT:      -7.2      2.500      6.999
REMARK  Name = 
REMARK  7 active torsions:
REMARK  status: ('A' for Active; 'I' for Inactive)
REMARK    1  A    between atoms: C_1  and  C_2
REMARK    2  A    between atoms: C_2  and  C_3
REMARK    3  A    between atoms: C_3  and  C_4
REMARK    4  A    between atoms: C_4  and  C_5
REMARK    5  A    between atoms: N_14  and  C_15
REMARK    6  A    between atoms: C_15  and  C_16
REMARK    7  A    between atoms: C_18  and  N_19
REMARK                            x       y       z     vdW  Elec       q    Type
REMARK                         _______ _______ _______ _____ _____    ______ ____
ROOT
ATOM      1  C   UNL     1       6.442   5.043  16.066  0.00  0.00    +0.000 C 
ATOM      2  N   UNL     1       6.006   6.405  16.280  0.00  0.00    +0.000 N 
ATOM      3  C   UNL     1       4.700   6.493  16.704  0.00  0.00    +0.000 C 
ATOM      4  O   UNL     1       4.152   7.554  16.954  0.00  0.00    +0.000 OA
ATOM      5  N   UNL     1       4.191   5.235  16.805  0.00  0.00    +0.000 N 
ATOM      6  C   UNL     1       5.151   4.313  16.517  0.00  0.00    +0.000 C 
ATOM      7  O   UNL     1       5.015   3.096  16.606  0.00  0.00    +0.000 OA
ATOM      8  H   UNL     1       6.571   7.234  16.141  0.00  0.00    +0.000 HD
ENDROOT
BRANCH   1   9
ATOM      9  C   UNL     1       6.728   4.732  14.596  0.00  0.00    +0.000 A 
ATOM     10  C   UNL     1       5.962   3.752  13.930  0.00  0.00    +0.000 A 
ATOM     11  C   UNL     1       6.146   3.483  12.571  0.00  0.00    +0.000 A 
ATOM     12  C   UNL     1       7.104   4.187  11.849  0.00  0.00    +0.000 A 
ATOM     13  C   UNL     1       7.883   5.147  12.486  0.00  0.00    +0.000 A 
ATOM     14  C   UNL     1       7.701   5.417  13.847  0.00  0.00    +0.000 A 
ENDBRANCH   1   9
BRANCH   1  15
ATOM     15  C   UNL     1       7.634   4.691  16.984  0.00  0.00    +0.000 C 
BRANCH  15  17
ATOM     16  C   UNL     1       7.988   6.384  18.819  0.00  0.00    +0.000 C 
ATOM     17  C   UNL     1       7.419   5.017  18.469  0.00  0.00    +0.000 C 
ENDBRANCH  15  17
ENDBRANCH   1  15
BRANCH   5  18
ATOM     18  C   UNL     1       2.835   4.893  17.200  0.00  0.00    +0.000 C 
BRANCH  18  19
ATOM     19  C   UNL     1       2.546   5.301  18.624  0.00  0.00    +0.000 A 
ATOM     20  C   UNL     1       2.058   6.576  18.940  0.00  0.00    +0.000 A 
ATOM     21  C   UNL     1       1.752   6.897  20.272  0.00  0.00    +0.000 A 
ATOM     22  C   UNL     1       1.782   5.906  21.270  0.00  0.00    +0.000 A 
ATOM     23  C   UNL     1       2.241   4.621  20.951  0.00  0.00    +0.000 A 
ATOM     24  C   UNL     1       2.700   4.371  19.658  0.00  0.00    +0.000 A 
ATOM     25  O   UNL     1       3.391   3.233  19.359  0.00  0.00    +0.000 OA
ATOM     26  C   UNL     1       3.030   2.134  20.178  0.00  0.00    +0.000 C 
ATOM     27  O   UNL     1       3.061   2.417  21.571  0.00  0.00    +0.000 OA
ATOM     28  C   UNL     1       2.189   3.484  21.928  0.00  0.00    +0.000 C 
BRANCH  21  29
ATOM     29  N   UNL     1       1.442   8.292  20.628  0.00  0.00    +0.000 N 
ATOM     30  O   UNL     1       1.321   8.563  21.833  0.00  0.00    +0.000 OA
ATOM     31  O   UNL     1       1.282   9.092  19.706  0.00  0.00    +0.000 OA
ENDBRANCH  21  29
ENDBRANCH  18  19
ENDBRANCH   5  18
TORSDOF 6
ENDMDL
MODEL 4
REMARK VINA RESULT:      -7.2      2.260      6.557
REMARK  Name = 
REMARK  7 active torsions:
REMARK  status: ('A' for Active; 'I' for Inactive)
REMARK    1  A    between atoms: C_1  and  C_2
REMARK    2  A    between atoms: C_2  and  C_3
REMARK    3  A    between atoms: C_3  and  C_4
REMARK    4  A    between atoms: C_4  and  C_5
REMARK    5  A    between atoms: N_14  and  C_15
REMARK    6  A    between atoms: C_15  and  C_16
REMARK    7  A    between atoms: C_18  and  N_19
REMARK                            x       y       z     vdW  Elec       q    Type
REMARK                         _______ _______ _______ _____ _____    ______ ____
ROOT
ATOM      1  C   UNL     1       6.359   5.015  16.217  0.00  0.00    +0.000 C 
ATOM      2  N   UNL     1       6.239   3.650  16.680  0.00  0.00    +0.000 N 
ATOM      3  C   UNL     1       4.946   3.302  17.001  0.00  0.00    +0.000 C 
ATOM      4  O   UNL     1       4.637   2.190  17.397  0.00  0.00    +0.000 OA
ATOM      5  N   UNL     1       4.139   4.374  16.777  0.00  0.00    +0.000 N 
ATOM      6  C   UNL     1       4.860   5.405  16.254  0.00  0.00    +0.000 C 
ATOM      7  O   UNL     1       4.392   6.474  15.870  0.00  0.00    +0.000 OA
ATOM      8  H   UNL     1       7.000   2.990  16.775  0.00  0.00    +0.000 HD
ENDROOT
BRANCH   1   9
ATOM      9  C   UNL     1       7.151   5.903  17.177  0.00  0.00    +0.000 A 
ATOM     10  C   UNL     1       7.379   7.256  16.847  0.00  0.00    +0.000 A 
ATOM     11  C   UNL     1       8.041   8.118  17.725  0.00  0.00    +0.000 A 
ATOM     12  C   UNL     1       8.492   7.645  18.953  0.00  0.00    +0.000 A 
ATOM     13  C   UNL     1       8.294   6.311  19.295  0.00  0.00    +0.000 A 
ATOM     14  C   UNL     1       7.632   5.446  18.417  0.00  0.00    +0.000 A 
ENDBRANCH   1   9
BRANCH   1  15
ATOM     15  C   UNL     1       6.915   5.065  14.776  0.00  0.00    +0.000 C 
BRANCH  15  17
ATOM     16  C   UNL     1       6.940   4.125  12.436  0.00  0.00    +0.000 C 
ATOM     17  C   UNL     1       6.330   4.011  13.825  0.00  0.00    +0.000 C 
ENDBRANCH  15  17
ENDBRANCH   1  15
BRANCH   5  18
ATOM     18  C   UNL     1       2.707   4.427  17.013  0.00  0.00    +0.000 C 
BRANCH  18  19
ATOM     19  C   UNL     1       2.385   4.690  18.463  0.00  0.00    +0.000 A 
ATOM     20  C   UNL     1       2.448   3.675  19.428  0.00  0.00    +0.000 A 
ATOM     21  C   UNL     1       2.193   3.973  20.775  0.00  0.00    +0.000 A 
ATOM     22  C   UNL     1       2.028   5.307  21.192  0.00  0.00    +0.000 A 
ATOM     23  C   UNL     1       1.993   6.328  20.233  0.00  0.00    +0.000 A 
ATOM     24  C   UNL     1       2.080   5.989  18.884  0.00  0.00    +0.000 A 
ATOM     25  O   UNL     1       1.796   6.897  17.906  0.00  0.00    +0.000 OA
ATOM     26  C   UNL     1       2.072   8.232  18.291  0.00  0.00    +0.000 C 
ATOM     27  O   UNL     1       1.496   8.604  19.536  0.00  0.00    +0.000 OA
ATOM     28  C   UNL     1       1.939   7.780  20.608  0.00  0.00    +0.000 C 
BRANCH  21  29
ATOM     29  N   UNL     1       2.056   2.875  21.747  0.00  0.00    +0.000 N 
ATOM     30  O   UNL     1       3.069   2.209  22.008  0.00  0.00    +0.000 OA
ATOM     31  O   UNL     1       0.934   2.663  22.210  0.00  0.00    +0.000 OA
ENDBRANCH  21  29
ENDBRANCH  18  19
ENDBRANCH   5  18
TORSDOF 6
ENDMDL
MODEL 5
REMARK VINA RESULT:      -7.1      1.390      3.082
REMARK  Name = 
REMARK  7 active torsions:
REMARK  status: ('A' for Active; 'I' for Inactive)
REMARK    1  A    between atoms: C_1  and  C_2
REMARK    2  A    between atoms: C_2  and  C_3
REMARK    3  A    between atoms: C_3  and  C_4
REMARK    4  A    between atoms: C_4  and  C_5
REMARK    5  A    between atoms: N_14  and  C_15
REMARK    6  A    between atoms: C_15  and  C_16
REMARK    7  A    between atoms: C_18  and  N_19
REMARK                            x       y       z     vdW  Elec       q    Type
REMARK                         _______ _______ _______ _____ _____    ______ ____
ROOT
ATOM      1  C   UNL     1       2.094   5.291  19.439  0.00  0.00    +0.000 C 
ATOM      2  N   UNL     1       1.560   4.540  18.325  0.00  0.00    +0.000 N 
ATOM      3  C   UNL     1       2.523   3.839  17.636  0.00  0.00    +0.000 C 
ATOM      4  O   UNL     1       2.270   3.133  16.674  0.00  0.00    +0.000 OA
ATOM      5  N   UNL     1       3.729   4.062  18.226  0.00  0.00    +0.000 N 
ATOM      6  C   UNL     1       3.575   4.846  19.330  0.00  0.00    +0.000 C 
ATOM      7  O   UNL     1       4.470   5.146  20.116  0.00  0.00    +0.000 OA
ATOM      8  H   UNL     1       0.587   4.509  18.047  0.00  0.00    +0.000 HD
ENDROOT
BRANCH   1   9
ATOM      9  C   UNL     1       1.992   6.804  19.243  0.00  0.00    +0.000 A 
ATOM     10  C   UNL     1       2.335   7.370  17.997  0.00  0.00    +0.000 A 
ATOM     11  C   UNL     1       2.194   8.739  17.755  0.00  0.00    +0.000 A 
ATOM     12  C   UNL     1       1.709   9.573  18.756  0.00  0.00    +0.000 A 
ATOM     13  C   UNL     1       1.380   9.043  19.999  0.00  0.00    +0.000 A 
ATOM     14  C   UNL     1       1.521   7.673  20.244  0.00  0.00    +0.000 A 
ENDBRANCH   1   9
BRANCH   1  15
ATOM     15  C   UNL     1       1.467   4.828  20.773  0.00  0.00    +0.000 C 
BRANCH  15  17
ATOM     16  C   UNL     1       1.952   2.531  21.695  0.00  0.00    +0.000 C 
ATOM     17  C   UNL     1       1.036   3.354  20.802  0.00  0.00    +0.000 C 
ENDBRANCH  15  17
ENDBRANCH   1  15
BRANCH   5  18
ATOM     18  C   UNL     1       5.005   3.523  17.790  0.00  0.00    +0.000 C 
BRANCH  18  19
ATOM     19  C   UNL     1       5.862   4.573  17.127  0.00  0.00    +0.000 A 
ATOM     20  C   UNL     1       6.516   5.566  17.869  0.00  0.00    +0.000 A 
ATOM     21  C   UNL     1       7.346   6.492  17.219  0.00  0.00    +0.000 A 
ATOM     22  C   UNL     1       7.652   6.342  15.854  0.00  0.00    +0.000 A 
ATOM     23  C   UNL     1       7.021   5.333  15.115  0.00  0.00    +0.000 A 
ATOM     24  C   UNL     1       6.071   4.529  15.744  0.00  0.00    +0.000 A 
ATOM     25  O   UNL     1       5.246   3.714  15.027  0.00  0.00    +0.000 OA
ATOM     26  C   UNL     1       5.830   3.258  13.819  0.00  0.00    +0.000 C 
ATOM     27  O   UNL     1       6.374   4.295  13.013  0.00  0.00    +0.000 OA
ATOM     28  C   UNL     1       7.383   5.037  13.689  0.00  0.00    +0.000 C 
BRANCH  21  29
ATOM     29  N   UNL     1       7.863   7.652  17.967  0.00  0.00    +0.000 N 
ATOM     30  O   UNL     1       7.614   8.781  17.517  0.00  0.00    +0.000 OA
ATOM     31  O   UNL     1       8.543   7.426  18.968  0.00  0.00    +0.000 OA
ENDBRANCH  21  29
ENDBRANCH  18  19
ENDBRANCH   5  18
TORSDOF 6
ENDMDL
MODEL 6
REMARK VINA RESULT:      -7.0      7.014     11.077
REMARK  Name = 
REMARK  7 active torsions:
REMARK  status: ('A' for Active; 'I' for Inactive)
REMARK    1  A    between atoms: C_1  and  C_2
REMARK    2  A    between atoms: C_2  and  C_3
REMARK    3  A    between atoms: C_3  and  C_4
REMARK    4  A    between atoms: C_4  and  C_5
REMARK    5  A    between atoms: N_14  and  C_15
REMARK    6  A    between atoms: C_15  and  C_16
REMARK    7  A    between atoms: C_18  and  N_19
REMARK                            x       y       z     vdW  Elec       q    Type
REMARK                         _______ _______ _______ _____ _____    ______ ____
ROOT
ATOM      1  C   UNL     1       0.558   9.594  20.599  0.00  0.00    +0.000 C 
ATOM      2  N   UNL     1       1.193  10.829  21.002  0.00  0.00    +0.000 N 
ATOM      3  C   UNL     1       0.552  11.948  20.521  0.00  0.00    +0.000 C 
ATOM      4  O   UNL     1       0.925  13.084  20.763  0.00  0.00    +0.000 OA
ATOM      5  N   UNL     1      -0.526  11.550  19.791  0.00  0.00    +0.000 N 
ATOM      6  C   UNL     1      -0.648  10.195  19.831  0.00  0.00    +0.000 C 
ATOM      7  O   UNL     1      -1.571   9.551  19.339  0.00  0.00    +0.000 OA
ATOM      8  H   UNL     1       2.025  10.905  21.574  0.00  0.00    +0.000 HD
ENDROOT
BRANCH   1   9
ATOM      9  C   UNL     1       1.418   8.763  19.647  0.00  0.00    +0.000 A 
ATOM     10  C   UNL     1       1.712   9.261  18.360  0.00  0.00    +0.000 A 
ATOM     11  C   UNL     1       2.548   8.563  17.483  0.00  0.00    +0.000 A 
ATOM     12  C   UNL     1       3.105   7.351  17.874  0.00  0.00    +0.000 A 
ATOM     13  C   UNL     1       2.817   6.830  19.132  0.00  0.00    +0.000 A 
ATOM     14  C   UNL     1       1.980   7.527  20.010  0.00  0.00    +0.000 A 
ENDBRANCH   1   9
BRANCH   1  15
ATOM     15  C   UNL     1       0.090   8.784  21.829  0.00  0.00    +0.000 C 
BRANCH  15  17
ATOM     16  C   UNL     1      -1.172  10.431  23.262  0.00  0.00    +0.000 C 
ATOM     17  C   UNL     1       0.077   9.570  23.149  0.00  0.00    +0.000 C 
ENDBRANCH  15  17
ENDBRANCH   1  15
BRANCH   5  18
ATOM     18  C   UNL     1      -1.453  12.425  19.094  0.00  0.00    +0.000 C 
BRANCH  18  19
ATOM     19  C   UNL     1      -2.798  12.477  19.778  0.00  0.00    +0.000 A 
ATOM     20  C   UNL     1      -2.933  12.909  21.105  0.00  0.00    +0.000 A 
ATOM     21  C   UNL     1      -4.208  12.993  21.686  0.00  0.00    +0.000 A 
ATOM     22  C   UNL     1      -5.362  12.797  20.906  0.00  0.00    +0.000 A 
ATOM     23  C   UNL     1      -5.230  12.393  19.571  0.00  0.00    +0.000 A 
ATOM     24  C   UNL     1      -3.955  12.153  19.062  0.00  0.00    +0.000 A 
ATOM     25  O   UNL     1      -3.777  11.517  17.868  0.00  0.00    +0.000 OA
ATOM     26  C   UNL     1      -4.842  11.736  16.959  0.00  0.00    +0.000 C 
ATOM     27  O   UNL     1      -6.129  11.477  17.505  0.00  0.00    +0.000 OA
ATOM     28  C   UNL     1      -6.407  12.280  18.647  0.00  0.00    +0.000 C 
BRANCH  21  29
ATOM     29  N   UNL     1      -4.330  13.244  23.132  0.00  0.00    +0.000 N 
ATOM     30  O   UNL     1      -4.372  12.258  23.884  0.00  0.00    +0.000 OA
ATOM     31  O   UNL     1      -4.423  14.416  23.500  0.00  0.00    +0.000 OA
ENDBRANCH  21  29
ENDBRANCH  18  19
ENDBRANCH   5  18
TORSDOF 6
ENDMDL
MODEL 7
REMARK VINA RESULT:      -6.9      2.505      6.999
REMARK  Name = 
REMARK  7 active torsions:
REMARK  status: ('A' for Active; 'I' for Inactive)
REMARK    1  A    between atoms: C_1  and  C_2
REMARK    2  A    between atoms: C_2  and  C_3
REMARK    3  A    between atoms: C_3  and  C_4
REMARK    4  A    between atoms: C_4  and  C_5
REMARK    5  A    between atoms: N_14  and  C_15
REMARK    6  A    between atoms: C_15  and  C_16
REMARK    7  A    between atoms: C_18  and  N_19
REMARK                            x       y       z     vdW  Elec       q    Type
REMARK                         _______ _______ _______ _____ _____    ______ ____
ROOT
ATOM      1  C   UNL     1       6.310   5.251  16.063  0.00  0.00    +0.000 C 
ATOM      2  N   UNL     1       5.786   6.590  16.215  0.00  0.00    +0.000 N 
ATOM      3  C   UNL     1       4.483   6.613  16.657  0.00  0.00    +0.000 C 
ATOM      4  O   UNL     1       3.868   7.646  16.862  0.00  0.00    +0.000 OA
ATOM      5  N   UNL     1       4.062   5.330  16.832  0.00  0.00    +0.000 N 
ATOM      6  C   UNL     1       5.079   4.461  16.575  0.00  0.00    +0.000 C 
ATOM      7  O   UNL     1       5.027   3.244  16.729  0.00  0.00    +0.000 OA
ATOM      8  H   UNL     1       6.290   7.447  16.023  0.00  0.00    +0.000 HD
ENDROOT
BRANCH   1   9
ATOM      9  C   UNL     1       6.595   4.883  14.606  0.00  0.00    +0.000 A 
ATOM     10  C   UNL     1       7.658   5.510  13.924  0.00  0.00    +0.000 A 
ATOM     11  C   UNL     1       7.993   5.156  12.614  0.00  0.00    +0.000 A 
ATOM     12  C   UNL     1       7.268   4.167  11.957  0.00  0.00    +0.000 A 
ATOM     13  C   UNL     1       6.204   3.545  12.602  0.00  0.00    +0.000 A 
ATOM     14  C   UNL     1       5.867   3.899  13.913  0.00  0.00    +0.000 A 
ENDBRANCH   1   9
BRANCH   1  15
ATOM     15  C   UNL     1       7.537   5.029  16.976  0.00  0.00    +0.000 C 
BRANCH  15  17
ATOM     16  C   UNL     1       7.759   5.586  19.426  0.00  0.00    +0.000 C 
ATOM     17  C   UNL     1       7.778   6.140  18.009  0.00  0.00    +0.000 C 
ENDBRANCH  15  17
ENDBRANCH   1  15
BRANCH   5  18
ATOM     18  C   UNL     1       2.739   4.919  17.269  0.00  0.00    +0.000 C 
BRANCH  18  19
ATOM     19  C   UNL     1       2.474   5.311  18.702  0.00  0.00    +0.000 A 
ATOM     20  C   UNL     1       1.984   6.580  19.041  0.00  0.00    +0.000 A 
ATOM     21  C   UNL     1       1.701   6.886  20.381  0.00  0.00    +0.000 A 
ATOM     22  C   UNL     1       1.757   5.885  21.368  0.00  0.00    +0.000 A 
ATOM     23  C   UNL     1       2.219   4.608  21.028  0.00  0.00    +0.000 A 
ATOM     24  C   UNL     1       2.654   4.373  19.725  0.00  0.00    +0.000 A 
ATOM     25  O   UNL     1       3.348   3.243  19.402  0.00  0.00    +0.000 OA
ATOM     26  C   UNL     1       3.010   2.134  20.217  0.00  0.00    +0.000 C 
ATOM     27  O   UNL     1       3.066   2.404  21.611  0.00  0.00    +0.000 OA
ATOM     28  C   UNL     1       2.194   3.461  21.996  0.00  0.00    +0.000 C 
BRANCH  21  29
ATOM     29  N   UNL     1       1.388   8.275  20.757  0.00  0.00    +0.000 N 
ATOM     30  O   UNL     1       1.279   9.107  19.842  0.00  0.00    +0.000 OA
ATOM     31  O   UNL     1       1.293   8.532  21.957  0.00  0.00    +0.000 OA
ENDBRANCH  21  29
ENDBRANCH  18  19
ENDBRANCH   5  18
TORSDOF 6
ENDMDL
MODEL 8
REMARK VINA RESULT:      -6.9      3.197      5.789
REMARK  Name = 
REMARK  7 active torsions:
REMARK  status: ('A' for Active; 'I' for Inactive)
REMARK    1  A    between atoms: C_1  and  C_2
REMARK    2  A    between atoms: C_2  and  C_3
REMARK    3  A    between atoms: C_3  and  C_4
REMARK    4  A    between atoms: C_4  and  C_5
REMARK    5  A    between atoms: N_14  and  C_15
REMARK    6  A    between atoms: C_15  and  C_16
REMARK    7  A    between atoms: C_18  and  N_19
REMARK                            x       y       z     vdW  Elec       q    Type
REMARK                         _______ _______ _______ _____ _____    ______ ____
ROOT
ATOM      1  C   UNL     1       0.429   9.945  18.844  0.00  0.00    +0.000 C 
ATOM      2  N   UNL     1       1.122   9.611  17.620  0.00  0.00    +0.000 N 
ATOM      3  C   UNL     1       2.111   8.670  17.799  0.00  0.00    +0.000 C 
ATOM      4  O   UNL     1       2.798   8.246  16.885  0.00  0.00    +0.000 OA
ATOM      5  N   UNL     1       2.141   8.317  19.113  0.00  0.00    +0.000 N 
ATOM      6  C   UNL     1       1.152   8.958  19.796  0.00  0.00    +0.000 C 
ATOM      7  O   UNL     1       0.876   8.777  20.979  0.00  0.00    +0.000 OA
ATOM      8  H   UNL     1       0.933  10.008  16.708  0.00  0.00    +0.000 HD
ENDROOT
BRANCH   1   9
ATOM      9  C   UNL     1       0.681  11.383  19.300  0.00  0.00    +0.000 A 
ATOM     10  C   UNL     1      -0.178  11.972  20.252  0.00  0.00    +0.000 A 
ATOM     11  C   UNL     1       0.054  13.260  20.744  0.00  0.00    +0.000 A 
ATOM     12  C   UNL     1       1.149  13.988  20.291  0.00  0.00    +0.000 A 
ATOM     13  C   UNL     1       2.001  13.436  19.340  0.00  0.00    +0.000 A 
ATOM     14  C   UNL     1       1.771  12.147  18.846  0.00  0.00    +0.000 A 
ENDBRANCH   1   9
BRANCH   1  15
ATOM     15  C   UNL     1      -1.077   9.617  18.737  0.00  0.00    +0.000 C 
BRANCH  15  17
ATOM     16  C   UNL     1      -3.242   9.908  17.476  0.00  0.00    +0.000 C 
ATOM     17  C   UNL     1      -1.726  10.011  17.401  0.00  0.00    +0.000 C 
ENDBRANCH  15  17
ENDBRANCH   1  15
BRANCH   5  18
ATOM     18  C   UNL     1       3.057   7.366  19.719  0.00  0.00    +0.000 C 
BRANCH  18  19
ATOM     19  C   UNL     1       2.937   5.996  19.096  0.00  0.00    +0.000 A 
ATOM     20  C   UNL     1       1.862   5.146  19.388  0.00  0.00    +0.000 A 
ATOM     21  C   UNL     1       1.760   3.902  18.747  0.00  0.00    +0.000 A 
ATOM     22  C   UNL     1       2.639   3.564  17.701  0.00  0.00    +0.000 A 
ATOM     23  C   UNL     1       3.698   4.425  17.387  0.00  0.00    +0.000 A 
ATOM     24  C   UNL     1       3.880   5.577  18.151  0.00  0.00    +0.000 A 
ATOM     25  O   UNL     1       5.026   6.311  18.064  0.00  0.00    +0.000 OA
ATOM     26  C   UNL     1       5.636   6.238  16.787  0.00  0.00    +0.000 C 
ATOM     27  O   UNL     1       5.824   4.912  16.313  0.00  0.00    +0.000 OA
ATOM     28  C   UNL     1       4.601   4.191  16.212  0.00  0.00    +0.000 C 
BRANCH  21  29
ATOM     29  N   UNL     1       0.753   2.930  19.206  0.00  0.00    +0.000 N 
ATOM     30  O   UNL     1       0.503   2.892  20.420  0.00  0.00    +0.000 OA
ATOM     31  O   UNL     1       0.251   2.189  18.359  0.00  0.00    +0.000 OA
ENDBRANCH  21  29
ENDBRANCH  18  19
ENDBRANCH   5  18
TORSDOF 6
ENDMDL
MODEL 9
REMARK VINA RESULT:      -6.8      2.415      6.873
REMARK  Name = 
REMARK  7 active torsions:
REMARK  status: ('A' for Active; 'I' for Inactive)
REMARK    1  A    between atoms: C_1  and  C_2
REMARK    2  A    between atoms: C_2  and  C_3
REMARK    3  A    between atoms: C_3  and  C_4
REMARK    4  A    between atoms: C_4  and  C_5
REMARK    5  A    between atoms: N_14  and  C_15
REMARK    6  A    between atoms: C_15  and  C_16
REMARK    7  A    between atoms: C_18  and  N_19
REMARK                            x       y       z     vdW  Elec       q    Type
REMARK                         _______ _______ _______ _____ _____    ______ ____
ROOT
ATOM      1  C   UNL     1       6.346   5.028  16.183  0.00  0.00    +0.000 C 
ATOM      2  N   UNL     1       5.974   6.409  16.394  0.00  0.00    +0.000 N 
ATOM      3  C   UNL     1       4.652   6.565  16.743  0.00  0.00    +0.000 C 
ATOM      4  O   UNL     1       4.150   7.652  16.978  0.00  0.00    +0.000 OA
ATOM      5  N   UNL     1       4.069   5.336  16.794  0.00  0.00    +0.000 N 
ATOM      6  C   UNL     1       4.992   4.366  16.548  0.00  0.00    +0.000 C 
ATOM      7  O   UNL     1       4.784   3.157  16.609  0.00  0.00    +0.000 OA
ATOM      8  H   UNL     1       6.590   7.206  16.301  0.00  0.00    +0.000 HD
ENDROOT
BRANCH   1   9
ATOM      9  C   UNL     1       6.699   4.719  14.728  0.00  0.00    +0.000 A 
ATOM     10  C   UNL     1       5.970   3.735  14.028  0.00  0.00    +0.000 A 
ATOM     11  C   UNL     1       6.217   3.468  12.678  0.00  0.00    +0.000 A 
ATOM     12  C   UNL     1       7.202   4.180  12.000  0.00  0.00    +0.000 A 
ATOM     13  C   UNL     1       7.945   5.144  12.672  0.00  0.00    +0.000 A 
ATOM     14  C   UNL     1       7.700   5.412  14.023  0.00  0.00    +0.000 A 
ENDBRANCH   1   9
BRANCH   1  15
ATOM     15  C   UNL     1       7.460   4.597  17.163  0.00  0.00    +0.000 C 
BRANCH  15  17
ATOM     16  C   UNL     1       6.876   5.371  19.491  0.00  0.00    +0.000 C 
ATOM     17  C   UNL     1       7.762   5.610  18.278  0.00  0.00    +0.000 C 
ENDBRANCH  15  17
ENDBRANCH   1  15
BRANCH   5  18
ATOM     18  C   UNL     1       2.676   5.066  17.105  0.00  0.00    +0.000 C 
BRANCH  18  19
ATOM     19  C   UNL     1       2.419   5.080  18.592  0.00  0.00    +0.000 A 
ATOM     20  C   UNL     1       2.654   3.952  19.391  0.00  0.00    +0.000 A 
ATOM     21  C   UNL     1       2.453   4.023  20.778  0.00  0.00    +0.000 A 
ATOM     22  C   UNL     1       2.169   5.254  21.396  0.00  0.00    +0.000 A 
ATOM     23  C   UNL     1       1.962   6.390  20.603  0.00  0.00    +0.000 A 
ATOM     24  C   UNL     1       2.000   6.261  19.215  0.00  0.00    +0.000 A 
ATOM     25  O   UNL     1       1.557   7.259  18.397  0.00  0.00    +0.000 OA
ATOM     26  C   UNL     1       1.709   8.549  18.965  0.00  0.00    +0.000 C 
ATOM     27  O   UNL     1       1.175   8.668  20.277  0.00  0.00    +0.000 OA
ATOM     28  C   UNL     1       1.773   7.757  21.192  0.00  0.00    +0.000 C 
BRANCH  21  29
ATOM     29  N   UNL     1       2.498   2.789  21.581  0.00  0.00    +0.000 N 
ATOM     30  O   UNL     1       1.475   2.475  22.209  0.00  0.00    +0.000 OA
ATOM     31  O   UNL     1       3.561   2.167  21.610  0.00  0.00    +0.000 OA
ENDBRANCH  21  29
ENDBRANCH  18  19
ENDBRANCH   5  18
TORSDOF 6
ENDMDL
