MODEL 1
REMARK VINA RESULT:      -8.4      0.000      0.000
REMARK  Name = 
REMARK  5 active torsions:
REMARK  status: ('A' for Active; 'I' for Inactive)
REMARK    1  A    between atoms: C_2  and  C_14
REMARK    2  A    between atoms: N_3  and  C_4
REMARK    3  A    between atoms: C_18  and  S_19
REMARK    4  A    between atoms: S_19  and  N_22
REMARK    5  A    between atoms: N_22  and  C_23
REMARK                            x       y       z     vdW  Elec       q    Type
REMARK                         _______ _______ _______ _____ _____    ______ ____
ROOT
ATOM      1  O   UNL     1       2.552   7.447  19.698  0.00  0.00    +0.000 OA
ATOM      2  C   UNL     1       2.719   7.482  18.483  0.00  0.00    +0.000 C 
ATOM      3  N   UNL     1       2.268   8.462  17.613  0.00  0.00    +0.000 N 
ATOM      4  H   UNL     1       2.301   8.266  16.621  0.00  0.00    +0.000 HD
ENDROOT
BRANCH   3   5
ATOM      5  C   UNL     1       1.589   9.645  17.996  0.00  0.00    +0.000 A 
ATOM      6  C   UNL     1       2.253  10.855  18.231  0.00  0.00    +0.000 A 
ATOM      7  C   UNL     1       1.554  11.993  18.636  0.00  0.00    +0.000 A 
ATOM      8  C   UNL     1       0.178  11.932  18.816  0.00  0.00    +0.000 A 
ATOM      9  C   UNL     1      -0.506  10.743  18.550  0.00  0.00    +0.000 A 
ATOM     10  C   UNL     1       0.195   9.602  18.139  0.00  0.00    +0.000 A 
ATOM     11  O   UNL     1      -1.866  10.621  18.692  0.00  0.00    +0.000 OA
ATOM     12  C   UNL     1      -2.504  11.900  18.800  0.00  0.00    +0.000 C 
ATOM     13  C   UNL     1      -1.744  12.817  19.745  0.00  0.00    +0.000 C 
ATOM     14  O   UNL     1      -0.431  13.082  19.245  0.00  0.00    +0.000 OA
ENDBRANCH   3   5
BRANCH   2  15
ATOM     15  C   UNL     1       3.423   6.326  17.868  0.00  0.00    +0.000 A 
ATOM     16  C   UNL     1       2.758   5.090  17.844  0.00  0.00    +0.000 A 
ATOM     17  C   UNL     1       3.386   3.955  17.326  0.00  0.00    +0.000 A 
ATOM     18  C   UNL     1       4.684   4.047  16.827  0.00  0.00    +0.000 A 
ATOM     19  C   UNL     1       5.348   5.279  16.859  0.00  0.00    +0.000 A 
ATOM     20  C   UNL     1       4.728   6.423  17.382  0.00  0.00    +0.000 A 
BRANCH  19  21
ATOM     21  S   UNL     1       6.981   5.415  16.177  0.00  0.00    +0.000 S 
ATOM     22  O   UNL     1       7.456   6.752  16.463  0.00  0.00    +0.000 OA
ATOM     23  O   UNL     1       7.740   4.249  16.569  0.00  0.00    +0.000 OA
BRANCH  21  24
ATOM     24  N   UNL     1       6.724   5.343  14.510  0.00  0.00    +0.000 NA
ATOM     25  H   UNL     1       7.292   6.037  14.022  0.00  0.00    +0.000 HD
BRANCH  24  26
ATOM     26  C   UNL     1       6.597   4.023  13.897  0.00  0.00    +0.000 C 
ATOM     27  C   UNL     1       6.707   3.862  12.407  0.00  0.00    +0.000 C 
ATOM     28  C   UNL     1       5.377   3.700  13.081  0.00  0.00    +0.000 C 
ENDBRANCH  24  26
ENDBRANCH  21  24
ENDBRANCH  19  21
ENDBRANCH   2  15
TORSDOF 5
ENDMDL
MODEL 2
REMARK VINA RESULT:      -8.3      3.054      9.019
REMARK  Name = 
REMARK  5 active torsions:
REMARK  status: ('A' for Active; 'I' for Inactive)
REMARK    1  A    between atoms: C_2  and  C_14
REMARK    2  A    between atoms: N_3  and  C_4
REMARK    3  A    between atoms: C_18  and  S_19
REMARK    4  A    between atoms: S_19  and  N_22
REMARK    5  A    between atoms: N_22  and  C_23
REMARK                            x       y       z     vdW  Elec       q    Type
REMARK                         _______ _______ _______ _____ _____    ______ ____
ROOT
ATOM      1  O   UNL     1       2.219   9.008  17.173  0.00  0.00    +0.000 OA
ATOM      2  C   UNL     1       1.965   8.532  18.276  0.00  0.00    +0.000 C 
ATOM      3  N   UNL     1       2.330   7.278  18.741  0.00  0.00    +0.000 N 
ATOM      4  H   UNL     1       1.887   6.940  19.586  0.00  0.00    +0.000 HD
ENDROOT
BRANCH   3   5
ATOM      5  C   UNL     1       3.132   6.347  18.037  0.00  0.00    +0.000 A 
ATOM      6  C   UNL     1       2.798   4.992  17.927  0.00  0.00    +0.000 A 
ATOM      7  C   UNL     1       3.629   4.098  17.251  0.00  0.00    +0.000 A 
ATOM      8  C   UNL     1       4.811   4.550  16.678  0.00  0.00    +0.000 A 
ATOM      9  C   UNL     1       5.142   5.906  16.745  0.00  0.00    +0.000 A 
ATOM     10  C   UNL     1       4.305   6.804  17.420  0.00  0.00    +0.000 A 
ATOM     11  O   UNL     1       6.285   6.420  16.186  0.00  0.00    +0.000 OA
ATOM     12  C   UNL     1       6.886   5.497  15.268  0.00  0.00    +0.000 C 
ATOM     13  C   UNL     1       6.914   4.089  15.841  0.00  0.00    +0.000 C 
ATOM     14  O   UNL     1       5.587   3.606  16.060  0.00  0.00    +0.000 OA
ENDBRANCH   3   5
BRANCH   2  15
ATOM     15  C   UNL     1       1.128   9.358  19.186  0.00  0.00    +0.000 A 
ATOM     16  C   UNL     1       1.080   8.995  20.541  0.00  0.00    +0.000 A 
ATOM     17  C   UNL     1       0.272   9.700  21.437  0.00  0.00    +0.000 A 
ATOM     18  C   UNL     1      -0.492  10.775  20.984  0.00  0.00    +0.000 A 
ATOM     19  C   UNL     1      -0.446  11.130  19.631  0.00  0.00    +0.000 A 
ATOM     20  C   UNL     1       0.357  10.425  18.723  0.00  0.00    +0.000 A 
BRANCH  19  21
ATOM     21  S   UNL     1      -1.376  12.530  19.059  0.00  0.00    +0.000 S 
ATOM     22  O   UNL     1      -2.680  12.463  19.684  0.00  0.00    +0.000 OA
ATOM     23  O   UNL     1      -0.548  13.708  19.174  0.00  0.00    +0.000 OA
BRANCH  21  24
ATOM     24  N   UNL     1      -1.612  12.208  17.419  0.00  0.00    +0.000 NA
ATOM     25  H   UNL     1      -0.724  12.029  16.950  0.00  0.00    +0.000 HD
BRANCH  24  26
ATOM     26  C   UNL     1      -2.753  11.375  17.046  0.00  0.00    +0.000 C 
ATOM     27  C   UNL     1      -2.565   9.914  16.749  0.00  0.00    +0.000 C 
ATOM     28  C   UNL     1      -2.872  10.871  15.635  0.00  0.00    +0.000 C 
ENDBRANCH  24  26
ENDBRANCH  21  24
ENDBRANCH  19  21
ENDBRANCH   2  15
TORSDOF 5
ENDMDL
MODEL 3
REMARK VINA RESULT:      -8.2      1.875      2.056
REMARK  Name = 
REMARK  5 active torsions:
REMARK  status: ('A' for Active; 'I' for Inactive)
REMARK    1  A    between atoms: C_2  and  C_14
REMARK    2  A    between atoms: N_3  and  C_4
REMARK    3  A    between atoms: C_18  and  S_19
REMARK    4  A    between atoms: S_19  and  N_22
REMARK    5  A    between atoms: N_22  and  C_23
REMARK                            x       y       z     vdW  Elec       q    Type
REMARK                         _______ _______ _______ _____ _____    ______ ____
ROOT
ATOM      1  O   UNL     1       2.766   8.641  17.290  0.00  0.00    +0.000 OA
ATOM      2  C   UNL     1       2.623   7.794  18.167  0.00  0.00    +0.000 C 
ATOM      3  N   UNL     1       1.909   7.936  19.346  0.00  0.00    +0.000 N 
ATOM      4  H   UNL     1       2.040   7.236  20.065  0.00  0.00    +0.000 HD
ENDROOT
BRANCH   3   5
ATOM      5  C   UNL     1       1.149   9.074  19.709  0.00  0.00    +0.000 A 
ATOM      6  C   UNL     1       0.649   9.982  18.768  0.00  0.00    +0.000 A 
ATOM      7  C   UNL     1      -0.070  11.110  19.166  0.00  0.00    +0.000 A 
ATOM      8  C   UNL     1      -0.295  11.346  20.516  0.00  0.00    +0.000 A 
ATOM      9  C   UNL     1       0.164  10.431  21.468  0.00  0.00    +0.000 A 
ATOM     10  C   UNL     1       0.882   9.297  21.067  0.00  0.00    +0.000 A 
ATOM     11  O   UNL     1      -0.039  10.596  22.815  0.00  0.00    +0.000 OA
ATOM     12  C   UNL     1      -1.037  11.591  23.082  0.00  0.00    +0.000 C 
ATOM     13  C   UNL     1      -0.835  12.820  22.211  0.00  0.00    +0.000 C 
ATOM     14  O   UNL     1      -0.981  12.489  20.828  0.00  0.00    +0.000 OA
ENDBRANCH   3   5
BRANCH   2  15
ATOM     15  C   UNL     1       3.341   6.506  17.978  0.00  0.00    +0.000 A 
ATOM     16  C   UNL     1       2.621   5.319  18.185  0.00  0.00    +0.000 A 
ATOM     17  C   UNL     1       3.252   4.077  18.072  0.00  0.00    +0.000 A 
ATOM     18  C   UNL     1       4.607   4.014  17.751  0.00  0.00    +0.000 A 
ATOM     19  C   UNL     1       5.323   5.200  17.552  0.00  0.00    +0.000 A 
ATOM     20  C   UNL     1       4.701   6.451  17.668  0.00  0.00    +0.000 A 
BRANCH  19  21
ATOM     21  S   UNL     1       7.036   5.124  17.091  0.00  0.00    +0.000 S 
ATOM     22  O   UNL     1       7.421   6.449  16.653  0.00  0.00    +0.000 OA
ATOM     23  O   UNL     1       7.762   4.439  18.136  0.00  0.00    +0.000 OA
BRANCH  21  24
ATOM     24  N   UNL     1       7.036   4.145  15.717  0.00  0.00    +0.000 NA
ATOM     25  H   UNL     1       6.841   3.173  15.960  0.00  0.00    +0.000 HD
BRANCH  24  26
ATOM     26  C   UNL     1       6.418   4.674  14.503  0.00  0.00    +0.000 C 
ATOM     27  C   UNL     1       6.207   3.788  13.307  0.00  0.00    +0.000 C 
ATOM     28  C   UNL     1       7.254   4.863  13.268  0.00  0.00    +0.000 C 
ENDBRANCH  24  26
ENDBRANCH  21  24
ENDBRANCH  19  21
ENDBRANCH   2  15
TORSDOF 5
ENDMDL
MODEL 4
REMARK VINA RESULT:      -8.0      1.832      2.027
REMARK  Name = 
REMARK  5 active torsions:
REMARK  status: ('A' for Active; 'I' for Inactive)
REMARK    1  A    between atoms: C_2  and  C_14
REMARK    2  A    between atoms: N_3  and  C_4
REMARK    3  A    between atoms: C_18  and  S_19
REMARK    4  A    between atoms: S_19  and  N_22
REMARK    5  A    between atoms: N_22  and  C_23
REMARK                            x       y       z     vdW  Elec       q    Type
REMARK                         _______ _______ _______ _____ _____    ______ ____
ROOT
ATOM      1  O   UNL     1       2.287   8.279  17.564  0.00  0.00    +0.000 OA
ATOM      2  C   UNL     1       2.517   7.429  18.419  0.00  0.00    +0.000 C 
ATOM      3  N   UNL     1       2.163   7.485  19.758  0.00  0.00    +0.000 N 
ATOM      4  H   UNL     1       2.586   6.816  20.388  0.00  0.00    +0.000 HD
ENDROOT
BRANCH   3   5
ATOM      5  C   UNL     1       1.401   8.516  20.359  0.00  0.00    +0.000 A 
ATOM      6  C   UNL     1       1.121   8.548  21.731  0.00  0.00    +0.000 A 
ATOM      7  C   UNL     1       0.341   9.565  22.284  0.00  0.00    +0.000 A 
ATOM      8  C   UNL     1      -0.174  10.563  21.467  0.00  0.00    +0.000 A 
ATOM      9  C   UNL     1       0.125  10.568  20.102  0.00  0.00    +0.000 A 
ATOM     10  C   UNL     1       0.912   9.550  19.548  0.00  0.00    +0.000 A 
ATOM     11  O   UNL     1      -0.338  11.534  19.243  0.00  0.00    +0.000 OA
ATOM     12  C   UNL     1      -0.848  12.671  19.952  0.00  0.00    +0.000 C 
ATOM     13  C   UNL     1      -1.719  12.246  21.122  0.00  0.00    +0.000 C 
ATOM     14  O   UNL     1      -0.956  11.507  22.079  0.00  0.00    +0.000 OA
ENDBRANCH   3   5
BRANCH   2  15
ATOM     15  C   UNL     1       3.309   6.246  17.993  0.00  0.00    +0.000 A 
ATOM     16  C   UNL     1       2.638   5.020  17.861  0.00  0.00    +0.000 A 
ATOM     17  C   UNL     1       3.336   3.861  17.513  0.00  0.00    +0.000 A 
ATOM     18  C   UNL     1       4.711   3.920  17.293  0.00  0.00    +0.000 A 
ATOM     19  C   UNL     1       5.379   5.142  17.432  0.00  0.00    +0.000 A 
ATOM     20  C   UNL     1       4.688   6.310  17.786  0.00  0.00    +0.000 A 
BRANCH  19  21
ATOM     21  S   UNL     1       7.120   5.234  17.101  0.00  0.00    +0.000 S 
ATOM     22  O   UNL     1       7.428   6.616  16.801  0.00  0.00    +0.000 OA
ATOM     23  O   UNL     1       7.823   4.518  18.141  0.00  0.00    +0.000 OA
BRANCH  21  24
ATOM     24  N   UNL     1       7.297   4.377  15.658  0.00  0.00    +0.000 NA
ATOM     25  H   UNL     1       7.277   3.370  15.825  0.00  0.00    +0.000 HD
BRANCH  24  26
ATOM     26  C   UNL     1       6.599   4.880  14.477  0.00  0.00    +0.000 C 
ATOM     27  C   UNL     1       5.594   4.021  13.763  0.00  0.00    +0.000 C 
ATOM     28  C   UNL     1       6.921   4.306  13.126  0.00  0.00    +0.000 C 
ENDBRANCH  24  26
ENDBRANCH  21  24
ENDBRANCH  19  21
ENDBRANCH   2  15
TORSDOF 5
ENDMDL
MODEL 5
REMARK VINA RESULT:      -8.0      1.862      2.063
REMARK  Name = 
REMARK  5 active torsions:
REMARK  status: ('A' for Active; 'I' for Inactive)
REMARK    1  A    between atoms: C_2  and  C_14
REMARK    2  A    between atoms: N_3  and  C_4
REMARK    3  A    between atoms: C_18  and  S_19
REMARK    4  A    between atoms: S_19  and  N_22
REMARK    5  A    between atoms: N_22  and  C_23
REMARK                            x       y       z     vdW  Elec       q    Type
REMARK                         _______ _______ _______ _____ _____    ______ ____
ROOT
ATOM      1  O   UNL     1       3.264   8.353  17.826  0.00  0.00    +0.000 OA
ATOM      2  C   UNL     1       2.899   7.311  18.363  0.00  0.00    +0.000 C 
ATOM      3  N   UNL     1       2.101   7.197  19.491  0.00  0.00    +0.000 N 
ATOM      4  H   UNL     1       2.043   6.292  19.939  0.00  0.00    +0.000 HD
ENDROOT
BRANCH   3   5
ATOM      5  C   UNL     1       1.504   8.279  20.182  0.00  0.00    +0.000 A 
ATOM      6  C   UNL     1       1.431   8.336  21.579  0.00  0.00    +0.000 A 
ATOM      7  C   UNL     1       0.807   9.404  22.226  0.00  0.00    +0.000 A 
ATOM      8  C   UNL     1       0.244  10.430  21.479  0.00  0.00    +0.000 A 
ATOM      9  C   UNL     1       0.339  10.409  20.085  0.00  0.00    +0.000 A 
ATOM     10  C   UNL     1       0.969   9.339  19.437  0.00  0.00    +0.000 A 
ATOM     11  O   UNL     1      -0.182  11.399  19.289  0.00  0.00    +0.000 OA
ATOM     12  C   UNL     1      -0.507  12.571  20.049  0.00  0.00    +0.000 C 
ATOM     13  C   UNL     1      -1.223  12.210  21.340  0.00  0.00    +0.000 C 
ATOM     14  O   UNL     1      -0.377  11.426  22.185  0.00  0.00    +0.000 OA
ENDBRANCH   3   5
BRANCH   2  15
ATOM     15  C   UNL     1       3.413   6.042  17.785  0.00  0.00    +0.000 A 
ATOM     16  C   UNL     1       2.667   4.873  18.003  0.00  0.00    +0.000 A 
ATOM     17  C   UNL     1       3.122   3.640  17.528  0.00  0.00    +0.000 A 
ATOM     18  C   UNL     1       4.328   3.568  16.831  0.00  0.00    +0.000 A 
ATOM     19  C   UNL     1       5.072   4.735  16.620  0.00  0.00    +0.000 A 
ATOM     20  C   UNL     1       4.626   5.976  17.097  0.00  0.00    +0.000 A 
BRANCH  19  21
ATOM     21  S   UNL     1       6.580   4.658  15.687  0.00  0.00    +0.000 S 
ATOM     22  O   UNL     1       6.691   5.898  14.948  0.00  0.00    +0.000 OA
ATOM     23  O   UNL     1       7.638   4.208  16.562  0.00  0.00    +0.000 OA
BRANCH  21  24
ATOM     24  N   UNL     1       6.283   3.446  14.550  0.00  0.00    +0.000 NA
ATOM     25  H   UNL     1       5.770   2.669  14.969  0.00  0.00    +0.000 HD
BRANCH  24  26
ATOM     26  C   UNL     1       5.905   3.856  13.200  0.00  0.00    +0.000 C 
ATOM     27  C   UNL     1       5.706   2.831  12.119  0.00  0.00    +0.000 C 
ATOM     28  C   UNL     1       6.902   3.736  12.082  0.00  0.00    +0.000 C 
ENDBRANCH  24  26
ENDBRANCH  21  24
ENDBRANCH  19  21
ENDBRANCH   2  15
TORSDOF 5
ENDMDL
MODEL 6
REMARK VINA RESULT:      -8.0      1.783      2.502
REMARK  Name = 
REMARK  5 active torsions:
REMARK  status: ('A' for Active; 'I' for Inactive)
REMARK    1  A    between atoms: C_2  and  C_14
REMARK    2  A    between atoms: N_3  and  C_4
REMARK    3  A    between atoms: C_18  and  S_19
REMARK    4  A    between atoms: S_19  and  N_22
REMARK    5  A    between atoms: N_22  and  C_23
REMARK                            x       y       z     vdW  Elec       q    Type
REMARK                         _______ _______ _______ _____ _____    ______ ____
ROOT
ATOM      1  O   UNL     1       2.236   7.460  19.845  0.00  0.00    +0.000 OA
ATOM      2  C   UNL     1       2.337   7.435  18.622  0.00  0.00    +0.000 C 
ATOM      3  N   UNL     1       1.990   8.448  17.743  0.00  0.00    +0.000 N 
ATOM      4  H   UNL     1       1.937   8.222  16.758  0.00  0.00    +0.000 HD
ENDROOT
BRANCH   3   5
ATOM      5  C   UNL     1       1.521   9.731  18.117  0.00  0.00    +0.000 A 
ATOM      6  C   UNL     1       2.330  10.873  18.080  0.00  0.00    +0.000 A 
ATOM      7  C   UNL     1       1.842  12.116  18.486  0.00  0.00    +0.000 A 
ATOM      8  C   UNL     1       0.534  12.231  18.939  0.00  0.00    +0.000 A 
ATOM      9  C   UNL     1      -0.299  11.109  18.948  0.00  0.00    +0.000 A 
ATOM     10  C   UNL     1       0.190   9.863  18.536  0.00  0.00    +0.000 A 
ATOM     11  O   UNL     1      -1.606  11.158  19.368  0.00  0.00    +0.000 OA
ATOM     12  C   UNL     1      -2.083  12.507  19.456  0.00  0.00    +0.000 C 
ATOM     13  C   UNL     1      -1.060  13.411  20.124  0.00  0.00    +0.000 C 
ATOM     14  O   UNL     1       0.140  13.476  19.348  0.00  0.00    +0.000 OA
ENDBRANCH   3   5
BRANCH   2  15
ATOM     15  C   UNL     1       2.822   6.168  18.014  0.00  0.00    +0.000 A 
ATOM     16  C   UNL     1       1.991   5.040  18.098  0.00  0.00    +0.000 A 
ATOM     17  C   UNL     1       2.411   3.808  17.591  0.00  0.00    +0.000 A 
ATOM     18  C   UNL     1       3.666   3.696  16.995  0.00  0.00    +0.000 A 
ATOM     19  C   UNL     1       4.495   4.821  16.918  0.00  0.00    +0.000 A 
ATOM     20  C   UNL     1       4.085   6.060  17.429  0.00  0.00    +0.000 A 
BRANCH  19  21
ATOM     21  S   UNL     1       6.072   4.697  16.112  0.00  0.00    +0.000 S 
ATOM     22  O   UNL     1       6.074   3.460  15.361  0.00  0.00    +0.000 OA
ATOM     23  O   UNL     1       6.363   5.961  15.476  0.00  0.00    +0.000 OA
BRANCH  21  24
ATOM     24  N   UNL     1       7.156   4.485  17.388  0.00  0.00    +0.000 NA
ATOM     25  H   UNL     1       8.091   4.263  17.042  0.00  0.00    +0.000 HD
BRANCH  24  26
ATOM     26  C   UNL     1       7.057   5.397  18.525  0.00  0.00    +0.000 C 
ATOM     27  C   UNL     1       7.867   6.662  18.560  0.00  0.00    +0.000 C 
ATOM     28  C   UNL     1       8.215   5.525  19.475  0.00  0.00    +0.000 C 
ENDBRANCH  24  26
ENDBRANCH  21  24
ENDBRANCH  19  21
ENDBRANCH   2  15
TORSDOF 5
ENDMDL
MODEL 7
REMARK VINA RESULT:      -8.0      2.371      3.184
REMARK  Name = 
REMARK  5 active torsions:
REMARK  status: ('A' for Active; 'I' for Inactive)
REMARK    1  A    between atoms: C_2  and  C_14
REMARK    2  A    between atoms: N_3  and  C_4
REMARK    3  A    between atoms: C_18  and  S_19
REMARK    4  A    between atoms: S_19  and  N_22
REMARK    5  A    between atoms: N_22  and  C_23
REMARK                            x       y       z     vdW  Elec       q    Type
REMARK                         _______ _______ _______ _____ _____    ______ ____
ROOT
ATOM      1  O   UNL     1       1.738   5.548  20.557  0.00  0.00    +0.000 OA
ATOM      2  C   UNL     1       2.267   6.135  19.618  0.00  0.00    +0.000 C 
ATOM      3  N   UNL     1       2.206   7.494  19.351  0.00  0.00    +0.000 N 
ATOM      4  H   UNL     1       2.516   7.812  18.442  0.00  0.00    +0.000 HD
ENDROOT
BRANCH   3   5
ATOM      5  C   UNL     1       1.574   8.460  20.171  0.00  0.00    +0.000 A 
ATOM      6  C   UNL     1       1.523   8.352  21.566  0.00  0.00    +0.000 A 
ATOM      7  C   UNL     1       0.865   9.309  22.339  0.00  0.00    +0.000 A 
ATOM      8  C   UNL     1       0.244  10.388  21.724  0.00  0.00    +0.000 A 
ATOM      9  C   UNL     1       0.316  10.533  20.336  0.00  0.00    +0.000 A 
ATOM     10  C   UNL     1       0.981   9.574  19.560  0.00  0.00    +0.000 A 
ATOM     11  O   UNL     1      -0.261  11.583  19.667  0.00  0.00    +0.000 OA
ATOM     12  C   UNL     1      -0.625  12.644  20.561  0.00  0.00    +0.000 C 
ATOM     13  C   UNL     1      -1.302  12.103  21.810  0.00  0.00    +0.000 C 
ATOM     14  O   UNL     1      -0.408  11.267  22.548  0.00  0.00    +0.000 OA
ENDBRANCH   3   5
BRANCH   2  15
ATOM     15  C   UNL     1       2.996   5.299  18.629  0.00  0.00    +0.000 A 
ATOM     16  C   UNL     1       2.815   3.908  18.686  0.00  0.00    +0.000 A 
ATOM     17  C   UNL     1       3.510   3.064  17.816  0.00  0.00    +0.000 A 
ATOM     18  C   UNL     1       4.392   3.606  16.882  0.00  0.00    +0.000 A 
ATOM     19  C   UNL     1       4.576   4.993  16.832  0.00  0.00    +0.000 A 
ATOM     20  C   UNL     1       3.886   5.847  17.704  0.00  0.00    +0.000 A 
BRANCH  19  21
ATOM     21  S   UNL     1       5.656   5.692  15.609  0.00  0.00    +0.000 S 
ATOM     22  O   UNL     1       5.969   4.642  14.663  0.00  0.00    +0.000 OA
ATOM     23  O   UNL     1       5.102   6.953  15.175  0.00  0.00    +0.000 OA
BRANCH  21  24
ATOM     24  N   UNL     1       7.077   6.005  16.465  0.00  0.00    +0.000 NA
ATOM     25  H   UNL     1       7.876   6.078  15.834  0.00  0.00    +0.000 HD
BRANCH  24  26
ATOM     26  C   UNL     1       7.007   6.949  17.578  0.00  0.00    +0.000 C 
ATOM     27  C   UNL     1       7.884   8.170  17.598  0.00  0.00    +0.000 C 
ATOM     28  C   UNL     1       8.153   7.039  18.546  0.00  0.00    +0.000 C 
ENDBRANCH  24  26
ENDBRANCH  21  24
ENDBRANCH  19  21
ENDBRANCH   2  15
TORSDOF 5
ENDMDL
MODEL 8
REMARK VINA RESULT:      -7.9      3.084      8.816
REMARK  Name = 
REMARK  5 active torsions:
REMARK  status: ('A' for Active; 'I' for Inactive)
REMARK    1  A    between atoms: C_2  and  C_14
REMARK    2  A    between atoms: N_3  and  C_4
REMARK    3  A    between atoms: C_18  and  S_19
REMARK    4  A    between atoms: S_19  and  N_22
REMARK    5  A    between atoms: N_22  and  C_23
REMARK                            x       y       z     vdW  Elec       q    Type
REMARK                         _______ _______ _______ _____ _____    ______ ____
ROOT
ATOM      1  O   UNL     1       1.820   6.808  20.920  0.00  0.00    +0.000 OA
ATOM      2  C   UNL     1       1.664   7.729  20.124  0.00  0.00    +0.000 C 
ATOM      3  N   UNL     1       2.157   7.798  18.830  0.00  0.00    +0.000 N 
ATOM      4  H   UNL     1       2.125   8.692  18.358  0.00  0.00    +0.000 HD
ENDROOT
BRANCH   3   5
ATOM      5  C   UNL     1       2.874   6.768  18.173  0.00  0.00    +0.000 A 
ATOM      6  C   UNL     1       2.450   5.433  18.173  0.00  0.00    +0.000 A 
ATOM      7  C   UNL     1       3.199   4.440  17.540  0.00  0.00    +0.000 A 
ATOM      8  C   UNL     1       4.386   4.771  16.899  0.00  0.00    +0.000 A 
ATOM      9  C   UNL     1       4.805   6.103  16.857  0.00  0.00    +0.000 A 
ATOM     10  C   UNL     1       4.051   7.101  17.489  0.00  0.00    +0.000 A 
ATOM     11  O   UNL     1       5.959   6.500  16.227  0.00  0.00    +0.000 OA
ATOM     12  C   UNL     1       6.468   5.476  15.362  0.00  0.00    +0.000 C 
ATOM     13  C   UNL     1       6.426   4.114  16.036  0.00  0.00    +0.000 C 
ATOM     14  O   UNL     1       5.079   3.736  16.329  0.00  0.00    +0.000 OA
ENDBRANCH   3   5
BRANCH   2  15
ATOM     15  C   UNL     1       0.925   8.922  20.614  0.00  0.00    +0.000 A 
ATOM     16  C   UNL     1       0.680   9.021  21.992  0.00  0.00    +0.000 A 
ATOM     17  C   UNL     1      -0.053  10.092  22.509  0.00  0.00    +0.000 A 
ATOM     18  C   UNL     1      -0.546  11.074  21.650  0.00  0.00    +0.000 A 
ATOM     19  C   UNL     1      -0.305  10.969  20.275  0.00  0.00    +0.000 A 
ATOM     20  C   UNL     1       0.425   9.895  19.746  0.00  0.00    +0.000 A 
BRANCH  19  21
ATOM     21  S   UNL     1      -0.883  12.244  19.183  0.00  0.00    +0.000 S 
ATOM     22  O   UNL     1      -2.220  12.599  19.609  0.00  0.00    +0.000 OA
ATOM     23  O   UNL     1       0.153  13.242  19.055  0.00  0.00    +0.000 OA
BRANCH  21  24
ATOM     24  N   UNL     1      -1.045  11.455  17.700  0.00  0.00    +0.000 NA
ATOM     25  H   UNL     1      -0.309  10.759  17.574  0.00  0.00    +0.000 HD
BRANCH  24  26
ATOM     26  C   UNL     1      -2.392  11.100  17.260  0.00  0.00    +0.000 C 
ATOM     27  C   UNL     1      -2.981   9.764  17.611  0.00  0.00    +0.000 C 
ATOM     28  C   UNL     1      -2.572  10.053  16.197  0.00  0.00    +0.000 C 
ENDBRANCH  24  26
ENDBRANCH  21  24
ENDBRANCH  19  21
ENDBRANCH   2  15
TORSDOF 5
ENDMDL
MODEL 9
REMARK VINA RESULT:      -7.9      2.188      2.364
REMARK  Name = 
REMARK  5 active torsions:
REMARK  status: ('A' for Active; 'I' for Inactive)
REMARK    1  A    between atoms: C_2  and  C_14
REMARK    2  A    between atoms: N_3  and  C_4
REMARK    3  A    between atoms: C_18  and  S_19
REMARK    4  A    between atoms: S_19  and  N_22
REMARK    5  A    between atoms: N_22  and  C_23
REMARK                            x       y       z     vdW  Elec       q    Type
REMARK                         _______ _______ _______ _____ _____    ______ ____
ROOT
ATOM      1  O   UNL     1       1.523   5.583  20.640  0.00  0.00    +0.000 OA
ATOM      2  C   UNL     1       2.145   6.221  19.796  0.00  0.00    +0.000 C 
ATOM      3  N   UNL     1       2.159   7.599  19.645  0.00  0.00    +0.000 N 
ATOM      4  H   UNL     1       2.550   7.977  18.791  0.00  0.00    +0.000 HD
ENDROOT
BRANCH   3   5
ATOM      5  C   UNL     1       1.507   8.521  20.498  0.00  0.00    +0.000 A 
ATOM      6  C   UNL     1       1.604   8.460  21.894  0.00  0.00    +0.000 A 
ATOM      7  C   UNL     1       0.922   9.369  22.704  0.00  0.00    +0.000 A 
ATOM      8  C   UNL     1       0.129  10.351  22.126  0.00  0.00    +0.000 A 
ATOM      9  C   UNL     1       0.050  10.451  20.735  0.00  0.00    +0.000 A 
ATOM     10  C   UNL     1       0.738   9.541  19.922  0.00  0.00    +0.000 A 
ATOM     11  O   UNL     1      -0.703  11.408  20.100  0.00  0.00    +0.000 OA
ATOM     12  C   UNL     1      -1.092  12.456  20.999  0.00  0.00    +0.000 C 
ATOM     13  C   UNL     1      -1.581  11.892  22.323  0.00  0.00    +0.000 C 
ATOM     14  O   UNL     1      -0.532  11.184  22.989  0.00  0.00    +0.000 OA
ENDBRANCH   3   5
BRANCH   2  15
ATOM     15  C   UNL     1       2.912   5.437  18.792  0.00  0.00    +0.000 A 
ATOM     16  C   UNL     1       2.257   4.375  18.149  0.00  0.00    +0.000 A 
ATOM     17  C   UNL     1       2.938   3.570  17.233  0.00  0.00    +0.000 A 
ATOM     18  C   UNL     1       4.280   3.822  16.953  0.00  0.00    +0.000 A 
ATOM     19  C   UNL     1       4.932   4.878  17.600  0.00  0.00    +0.000 A 
ATOM     20  C   UNL     1       4.259   5.689  18.524  0.00  0.00    +0.000 A 
BRANCH  19  21
ATOM     21  S   UNL     1       6.626   5.237  17.206  0.00  0.00    +0.000 S 
ATOM     22  O   UNL     1       6.684   6.619  16.780  0.00  0.00    +0.000 OA
ATOM     23  O   UNL     1       7.460   4.747  18.280  0.00  0.00    +0.000 OA
BRANCH  21  24
ATOM     24  N   UNL     1       6.924   4.299  15.835  0.00  0.00    +0.000 NA
ATOM     25  H   UNL     1       6.786   3.307  16.033  0.00  0.00    +0.000 HD
BRANCH  24  26
ATOM     26  C   UNL     1       6.450   4.802  14.549  0.00  0.00    +0.000 C 
ATOM     27  C   UNL     1       6.250   3.866  13.390  0.00  0.00    +0.000 C 
ATOM     28  C   UNL     1       7.390   4.842  13.376  0.00  0.00    +0.000 C 
ENDBRANCH  24  26
ENDBRANCH  21  24
ENDBRANCH  19  21
ENDBRANCH   2  15
TORSDOF 5
ENDMDL
