MODEL 1
REMARK VINA RESULT:      -8.5      0.000      0.000
REMARK  Name = 
REMARK  3 active torsions:
REMARK  status: ('A' for Active; 'I' for Inactive)
REMARK    1  A    between atoms: C_2  and  C_14
REMARK    2  A    between atoms: N_3  and  C_4
REMARK    3  A    between atoms: C_19  and  C_20
REMARK                            x       y       z     vdW  Elec       q    Type
REMARK                         _______ _______ _______ _____ _____    ______ ____
ROOT
ATOM      1  O   UNL     1       2.127   8.658  17.520  0.00  0.00    +0.000 OA
ATOM      2  C   UNL     1       2.149   8.132  18.627  0.00  0.00    +0.000 C 
ATOM      3  N   UNL     1       2.760   6.932  18.922  0.00  0.00    +0.000 N 
ATOM      4  H   UNL     1       2.576   6.548  19.838  0.00  0.00    +0.000 HD
ENDROOT
BRANCH   3   5
ATOM      5  C   UNL     1       3.488   6.112  18.035  0.00  0.00    +0.000 A 
ATOM      6  C   UNL     1       3.135   4.824  17.647  0.00  0.00    +0.000 A 
ATOM      7  N   UNL     1       3.865   4.061  16.793  0.00  0.00    +0.000 NA
ATOM      8  C   UNL     1       5.020   4.585  16.314  0.00  0.00    +0.000 A 
ATOM      9  C   UNL     1       5.469   5.857  16.661  0.00  0.00    +0.000 A 
ATOM     10  C   UNL     1       4.670   6.634  17.507  0.00  0.00    +0.000 A 
ATOM     11  C   UNL     1       6.762   6.392  16.110  0.00  0.00    +0.000 C 
ATOM     12  O   UNL     1       7.617   5.362  15.610  0.00  0.00    +0.000 OA
ATOM     13  C   UNL     1       6.921   4.511  14.697  0.00  0.00    +0.000 C 
ATOM     14  C   UNL     1       5.866   3.701  15.439  0.00  0.00    +0.000 C 
ENDBRANCH   3   5
BRANCH   2  15
ATOM     15  C   UNL     1       1.438   8.728  19.746  0.00  0.00    +0.000 A 
ATOM     16  C   UNL     1       1.259   8.341  21.064  0.00  0.00    +0.000 A 
ATOM     17  C   UNL     1       0.406   9.288  21.700  0.00  0.00    +0.000 A 
ATOM     18  C   UNL     1      -0.139   9.406  22.994  0.00  0.00    +0.000 A 
ATOM     19  C   UNL     1      -1.019  10.461  23.272  0.00  0.00    +0.000 A 
ATOM     20  C   UNL     1      -1.357  11.404  22.290  0.00  0.00    +0.000 A 
ATOM     21  C   UNL     1      -0.778  11.318  21.011  0.00  0.00    +0.000 A 
ATOM     22  C   UNL     1       0.090  10.253  20.750  0.00  0.00    +0.000 A 
ATOM     23  N   UNL     1       0.769   9.926  19.601  0.00  0.00    +0.000 N 
ATOM     24  H   UNL     1       0.750  10.453  18.738  0.00  0.00    +0.000 HD
BRANCH  20  25
ATOM     25  C   UNL     1      -2.358  12.500  22.569  0.00  0.00    +0.000 C 
ATOM     26  F   UNL     1      -1.807  13.619  23.117  0.00  0.00    +0.000 F 
ATOM     27  F   UNL     1      -3.007  12.915  21.445  0.00  0.00    +0.000 F 
ATOM     28  F   UNL     1      -3.330  12.102  23.435  0.00  0.00    +0.000 F 
ENDBRANCH  20  25
ENDBRANCH   2  15
TORSDOF 3
ENDMDL
MODEL 2
REMARK VINA RESULT:      -8.1      5.380      9.973
REMARK  Name = 
REMARK  3 active torsions:
REMARK  status: ('A' for Active; 'I' for Inactive)
REMARK    1  A    between atoms: C_2  and  C_14
REMARK    2  A    between atoms: N_3  and  C_4
REMARK    3  A    between atoms: C_19  and  C_20
REMARK                            x       y       z     vdW  Elec       q    Type
REMARK                         _______ _______ _______ _____ _____    ______ ____
ROOT
ATOM      1  O   UNL     1       1.889   9.916  18.451  0.00  0.00    +0.000 OA
ATOM      2  C   UNL     1       1.772   8.819  18.985  0.00  0.00    +0.000 C 
ATOM      3  N   UNL     1       1.106   8.582  20.169  0.00  0.00    +0.000 N 
ATOM      4  H   UNL     1       1.212   7.660  20.566  0.00  0.00    +0.000 HD
ENDROOT
BRANCH   3   5
ATOM      5  C   UNL     1       0.422   9.528  20.960  0.00  0.00    +0.000 A 
ATOM      6  C   UNL     1       0.495   9.632  22.345  0.00  0.00    +0.000 A 
ATOM      7  N   UNL     1      -0.184  10.554  23.074  0.00  0.00    +0.000 NA
ATOM      8  C   UNL     1      -0.999  11.406  22.407  0.00  0.00    +0.000 A 
ATOM      9  C   UNL     1      -1.156  11.368  21.023  0.00  0.00    +0.000 A 
ATOM     10  C   UNL     1      -0.407  10.434  20.298  0.00  0.00    +0.000 A 
ATOM     11  C   UNL     1      -2.079  12.329  20.327  0.00  0.00    +0.000 C 
ATOM     12  O   UNL     1      -3.034  12.918  21.214  0.00  0.00    +0.000 OA
ATOM     13  C   UNL     1      -2.394  13.477  22.363  0.00  0.00    +0.000 C 
ATOM     14  C   UNL     1      -1.813  12.367  23.229  0.00  0.00    +0.000 C 
ENDBRANCH   3   5
BRANCH   2  15
ATOM     15  C   UNL     1       2.415   7.645  18.419  0.00  0.00    +0.000 A 
ATOM     16  C   UNL     1       2.241   6.286  18.619  0.00  0.00    +0.000 A 
ATOM     17  C   UNL     1       3.204   5.588  17.835  0.00  0.00    +0.000 A 
ATOM     18  C   UNL     1       3.524   4.228  17.652  0.00  0.00    +0.000 A 
ATOM     19  C   UNL     1       4.607   3.884  16.832  0.00  0.00    +0.000 A 
ATOM     20  C   UNL     1       5.370   4.867  16.185  0.00  0.00    +0.000 A 
ATOM     21  C   UNL     1       5.025   6.223  16.325  0.00  0.00    +0.000 A 
ATOM     22  C   UNL     1       3.947   6.547  17.155  0.00  0.00    +0.000 A 
ATOM     23  N   UNL     1       3.415   7.772  17.478  0.00  0.00    +0.000 N 
ATOM     24  H   UNL     1       3.737   8.664  17.122  0.00  0.00    +0.000 HD
BRANCH  20  25
ATOM     25  C   UNL     1       6.578   4.500  15.356  0.00  0.00    +0.000 C 
ATOM     26  F   UNL     1       6.871   5.406  14.381  0.00  0.00    +0.000 F 
ATOM     27  F   UNL     1       7.710   4.381  16.106  0.00  0.00    +0.000 F 
ATOM     28  F   UNL     1       6.425   3.307  14.720  0.00  0.00    +0.000 F 
ENDBRANCH  20  25
ENDBRANCH   2  15
TORSDOF 3
ENDMDL
MODEL 3
REMARK VINA RESULT:      -8.0      5.051      9.636
REMARK  Name = 
REMARK  3 active torsions:
REMARK  status: ('A' for Active; 'I' for Inactive)
REMARK    1  A    between atoms: C_2  and  C_14
REMARK    2  A    between atoms: N_3  and  C_4
REMARK    3  A    between atoms: C_19  and  C_20
REMARK                            x       y       z     vdW  Elec       q    Type
REMARK                         _______ _______ _______ _____ _____    ______ ____
ROOT
ATOM      1  O   UNL     1       2.187  10.085  17.679  0.00  0.00    +0.000 OA
ATOM      2  C   UNL     1       1.993   9.138  18.433  0.00  0.00    +0.000 C 
ATOM      3  N   UNL     1       1.229   9.183  19.580  0.00  0.00    +0.000 N 
ATOM      4  H   UNL     1       1.274   8.372  20.180  0.00  0.00    +0.000 HD
ENDROOT
BRANCH   3   5
ATOM      5  C   UNL     1       0.515  10.292  20.079  0.00  0.00    +0.000 A 
ATOM      6  C   UNL     1       0.906  11.095  21.145  0.00  0.00    +0.000 A 
ATOM      7  N   UNL     1       0.189  12.153  21.602  0.00  0.00    +0.000 NA
ATOM      8  C   UNL     1      -0.991  12.422  20.993  0.00  0.00    +0.000 A 
ATOM      9  C   UNL     1      -1.479  11.662  19.931  0.00  0.00    +0.000 A 
ATOM     10  C   UNL     1      -0.693  10.607  19.456  0.00  0.00    +0.000 A 
ATOM     11  C   UNL     1      -2.799  11.993  19.292  0.00  0.00    +0.000 C 
ATOM     12  O   UNL     1      -3.627  12.810  20.125  0.00  0.00    +0.000 OA
ATOM     13  C   UNL     1      -2.917  13.960  20.589  0.00  0.00    +0.000 C 
ATOM     14  C   UNL     1      -1.821  13.541  21.560  0.00  0.00    +0.000 C 
ENDBRANCH   3   5
BRANCH   2  15
ATOM     15  C   UNL     1       2.641   7.859  18.200  0.00  0.00    +0.000 A 
ATOM     16  C   UNL     1       3.591   7.435  17.286  0.00  0.00    +0.000 A 
ATOM     17  C   UNL     1       3.812   6.040  17.479  0.00  0.00    +0.000 A 
ATOM     18  C   UNL     1       4.622   5.077  16.848  0.00  0.00    +0.000 A 
ATOM     19  C   UNL     1       4.545   3.740  17.261  0.00  0.00    +0.000 A 
ATOM     20  C   UNL     1       3.684   3.348  18.297  0.00  0.00    +0.000 A 
ATOM     21  C   UNL     1       2.908   4.314  18.963  0.00  0.00    +0.000 A 
ATOM     22  C   UNL     1       2.992   5.640  18.529  0.00  0.00    +0.000 A 
ATOM     23  N   UNL     1       2.343   6.763  18.984  0.00  0.00    +0.000 N 
ATOM     24  H   UNL     1       1.688   6.791  19.755  0.00  0.00    +0.000 HD
BRANCH  20  25
ATOM     25  C   UNL     1       3.550   1.898  18.696  0.00  0.00    +0.000 C 
ATOM     26  F   UNL     1       2.312   1.569  19.161  0.00  0.00    +0.000 F 
ATOM     27  F   UNL     1       3.799   1.045  17.664  0.00  0.00    +0.000 F 
ATOM     28  F   UNL     1       4.421   1.552  19.684  0.00  0.00    +0.000 F 
ENDBRANCH  20  25
ENDBRANCH   2  15
TORSDOF 3
ENDMDL
MODEL 4
REMARK VINA RESULT:      -7.9      5.420      9.884
REMARK  Name = 
REMARK  3 active torsions:
REMARK  status: ('A' for Active; 'I' for Inactive)
REMARK    1  A    between atoms: C_2  and  C_14
REMARK    2  A    between atoms: N_3  and  C_4
REMARK    3  A    between atoms: C_19  and  C_20
REMARK                            x       y       z     vdW  Elec       q    Type
REMARK                         _______ _______ _______ _____ _____    ______ ____
ROOT
ATOM      1  O   UNL     1       1.569   7.765  21.277  0.00  0.00    +0.000 OA
ATOM      2  C   UNL     1       1.724   7.952  20.075  0.00  0.00    +0.000 C 
ATOM      3  N   UNL     1       1.306   9.071  19.388  0.00  0.00    +0.000 N 
ATOM      4  H   UNL     1       1.369   9.029  18.381  0.00  0.00    +0.000 HD
ENDROOT
BRANCH   3   5
ATOM      5  C   UNL     1       0.663  10.205  19.926  0.00  0.00    +0.000 A 
ATOM      6  C   UNL     1       1.162  11.014  20.941  0.00  0.00    +0.000 A 
ATOM      7  N   UNL     1       0.511  12.097  21.438  0.00  0.00    +0.000 NA
ATOM      8  C   UNL     1      -0.710  12.385  20.926  0.00  0.00    +0.000 A 
ATOM      9  C   UNL     1      -1.304  11.622  19.923  0.00  0.00    +0.000 A 
ATOM     10  C   UNL     1      -0.586  10.540  19.402  0.00  0.00    +0.000 A 
ATOM     11  C   UNL     1      -2.666  11.975  19.394  0.00  0.00    +0.000 C 
ATOM     12  O   UNL     1      -3.400  12.824  20.279  0.00  0.00    +0.000 OA
ATOM     13  C   UNL     1      -2.627  13.964  20.661  0.00  0.00    +0.000 C 
ATOM     14  C   UNL     1      -1.463  13.533  21.543  0.00  0.00    +0.000 C 
ENDBRANCH   3   5
BRANCH   2  15
ATOM     15  C   UNL     1       2.324   6.928  19.236  0.00  0.00    +0.000 A 
ATOM     16  C   UNL     1       2.153   5.557  19.151  0.00  0.00    +0.000 A 
ATOM     17  C   UNL     1       3.063   5.048  18.181  0.00  0.00    +0.000 A 
ATOM     18  C   UNL     1       3.362   3.760  17.694  0.00  0.00    +0.000 A 
ATOM     19  C   UNL     1       4.392   3.604  16.756  0.00  0.00    +0.000 A 
ATOM     20  C   UNL     1       5.121   4.707  16.288  0.00  0.00    +0.000 A 
ATOM     21  C   UNL     1       4.795   6.001  16.734  0.00  0.00    +0.000 A 
ATOM     22  C   UNL     1       3.771   6.134  17.677  0.00  0.00    +0.000 A 
ATOM     23  N   UNL     1       3.267   7.259  18.284  0.00  0.00    +0.000 N 
ATOM     24  H   UNL     1       3.573   8.208  18.109  0.00  0.00    +0.000 HD
BRANCH  20  25
ATOM     25  C   UNL     1       6.275   4.533  15.330  0.00  0.00    +0.000 C 
ATOM     26  F   UNL     1       7.496   4.527  15.937  0.00  0.00    +0.000 F 
ATOM     27  F   UNL     1       6.202   3.367  14.629  0.00  0.00    +0.000 F 
ATOM     28  F   UNL     1       6.328   5.525  14.400  0.00  0.00    +0.000 F 
ENDBRANCH  20  25
ENDBRANCH   2  15
TORSDOF 3
ENDMDL
MODEL 5
REMARK VINA RESULT:      -7.9      8.048     10.669
REMARK  Name = 
REMARK  3 active torsions:
REMARK  status: ('A' for Active; 'I' for Inactive)
REMARK    1  A    between atoms: C_2  and  C_14
REMARK    2  A    between atoms: N_3  and  C_4
REMARK    3  A    between atoms: C_19  and  C_20
REMARK                            x       y       z     vdW  Elec       q    Type
REMARK                         _______ _______ _______ _____ _____    ______ ____
ROOT
ATOM      1  O   UNL     1       9.235  10.471  20.001  0.00  0.00    +0.000 OA
ATOM      2  C   UNL     1       9.072  10.087  18.849  0.00  0.00    +0.000 C 
ATOM      3  N   UNL     1       9.336  10.834  17.720  0.00  0.00    +0.000 N 
ATOM      4  H   UNL     1       9.019  10.447  16.843  0.00  0.00    +0.000 HD
ENDROOT
BRANCH   3   5
ATOM      5  C   UNL     1       9.861  12.142  17.674  0.00  0.00    +0.000 A 
ATOM      6  C   UNL     1      11.202  12.471  17.514  0.00  0.00    +0.000 A 
ATOM      7  N   UNL     1      11.673  13.745  17.479  0.00  0.00    +0.000 NA
ATOM      8  C   UNL     1      10.777  14.749  17.634  0.00  0.00    +0.000 A 
ATOM      9  C   UNL     1       9.415  14.520  17.821  0.00  0.00    +0.000 A 
ATOM     10  C   UNL     1       8.958  13.197  17.807  0.00  0.00    +0.000 A 
ATOM     11  C   UNL     1       8.460  15.668  17.998  0.00  0.00    +0.000 C 
ATOM     12  O   UNL     1       9.116  16.879  18.379  0.00  0.00    +0.000 OA
ATOM     13  C   UNL     1      10.203  17.176  17.500  0.00  0.00    +0.000 C 
ATOM     14  C   UNL     1      11.316  16.153  17.682  0.00  0.00    +0.000 C 
ENDBRANCH   3   5
BRANCH   2  15
ATOM     15  C   UNL     1       8.496   8.781  18.576  0.00  0.00    +0.000 A 
ATOM     16  C   UNL     1       8.616   7.548  19.195  0.00  0.00    +0.000 A 
ATOM     17  C   UNL     1       7.868   6.593  18.448  0.00  0.00    +0.000 A 
ATOM     18  C   UNL     1       7.641   5.208  18.571  0.00  0.00    +0.000 A 
ATOM     19  C   UNL     1       6.882   4.549  17.595  0.00  0.00    +0.000 A 
ATOM     20  C   UNL     1       6.336   5.246  16.506  0.00  0.00    +0.000 A 
ATOM     21  C   UNL     1       6.518   6.637  16.405  0.00  0.00    +0.000 A 
ATOM     22  C   UNL     1       7.288   7.274  17.383  0.00  0.00    +0.000 A 
ATOM     23  N   UNL     1       7.632   8.598  17.515  0.00  0.00    +0.000 N 
ATOM     24  H   UNL     1       7.344   9.344  16.896  0.00  0.00    +0.000 HD
BRANCH  20  25
ATOM     25  C   UNL     1       5.576   4.525  15.418  0.00  0.00    +0.000 C 
ATOM     26  F   UNL     1       5.263   5.315  14.352  0.00  0.00    +0.000 F 
ATOM     27  F   UNL     1       6.268   3.468  14.908  0.00  0.00    +0.000 F 
ATOM     28  F   UNL     1       4.394   4.018  15.864  0.00  0.00    +0.000 F 
ENDBRANCH  20  25
ENDBRANCH   2  15
TORSDOF 3
ENDMDL
MODEL 6
REMARK VINA RESULT:      -7.9      4.936      9.767
REMARK  Name = 
REMARK  3 active torsions:
REMARK  status: ('A' for Active; 'I' for Inactive)
REMARK    1  A    between atoms: C_2  and  C_14
REMARK    2  A    between atoms: N_3  and  C_4
REMARK    3  A    between atoms: C_19  and  C_20
REMARK                            x       y       z     vdW  Elec       q    Type
REMARK                         _______ _______ _______ _____ _____    ______ ____
ROOT
ATOM      1  O   UNL     1       0.880  10.408  18.483  0.00  0.00    +0.000 OA
ATOM      2  C   UNL     1       1.177   9.671  19.417  0.00  0.00    +0.000 C 
ATOM      3  N   UNL     1       1.015   9.980  20.751  0.00  0.00    +0.000 N 
ATOM      4  H   UNL     1       1.435   9.343  21.412  0.00  0.00    +0.000 HD
ENDROOT
BRANCH   3   5
ATOM      5  C   UNL     1       0.460  11.161  21.286  0.00  0.00    +0.000 A 
ATOM      6  C   UNL     1       1.047  12.420  21.252  0.00  0.00    +0.000 A 
ATOM      7  N   UNL     1       0.484  13.536  21.783  0.00  0.00    +0.000 NA
ATOM      8  C   UNL     1      -0.712  13.400  22.404  0.00  0.00    +0.000 A 
ATOM      9  C   UNL     1      -1.370  12.176  22.510  0.00  0.00    +0.000 A 
ATOM     10  C   UNL     1      -0.783  11.055  21.912  0.00  0.00    +0.000 A 
ATOM     11  C   UNL     1      -2.692  12.073  23.218  0.00  0.00    +0.000 C 
ATOM     12  O   UNL     1      -2.942  13.181  24.086  0.00  0.00    +0.000 OA
ATOM     13  C   UNL     1      -2.760  14.423  23.403  0.00  0.00    +0.000 C 
ATOM     14  C   UNL     1      -1.288  14.622  23.066  0.00  0.00    +0.000 C 
ENDBRANCH   3   5
BRANCH   2  15
ATOM     15  C   UNL     1       1.817   8.389  19.177  0.00  0.00    +0.000 A 
ATOM     16  C   UNL     1       2.428   7.833  18.065  0.00  0.00    +0.000 A 
ATOM     17  C   UNL     1       2.826   6.503  18.388  0.00  0.00    +0.000 A 
ATOM     18  C   UNL     1       3.453   5.464  17.672  0.00  0.00    +0.000 A 
ATOM     19  C   UNL     1       3.643   4.222  18.294  0.00  0.00    +0.000 A 
ATOM     20  C   UNL     1       3.230   4.001  19.616  0.00  0.00    +0.000 A 
ATOM     21  C   UNL     1       2.648   5.050  20.351  0.00  0.00    +0.000 A 
ATOM     22  C   UNL     1       2.457   6.278  19.710  0.00  0.00    +0.000 A 
ATOM     23  N   UNL     1       1.906   7.446  20.179  0.00  0.00    +0.000 N 
ATOM     24  H   UNL     1       1.558   7.594  21.118  0.00  0.00    +0.000 HD
BRANCH  20  25
ATOM     25  C   UNL     1       3.372   2.644  20.263  0.00  0.00    +0.000 C 
ATOM     26  F   UNL     1       4.653   2.180  20.289  0.00  0.00    +0.000 F 
ATOM     27  F   UNL     1       2.945   2.633  21.557  0.00  0.00    +0.000 F 
ATOM     28  F   UNL     1       2.644   1.688  19.623  0.00  0.00    +0.000 F 
ENDBRANCH  20  25
ENDBRANCH   2  15
TORSDOF 3
ENDMDL
MODEL 7
REMARK VINA RESULT:      -7.9      5.080      9.751
REMARK  Name = 
REMARK  3 active torsions:
REMARK  status: ('A' for Active; 'I' for Inactive)
REMARK    1  A    between atoms: C_2  and  C_14
REMARK    2  A    between atoms: N_3  and  C_4
REMARK    3  A    between atoms: C_19  and  C_20
REMARK                            x       y       z     vdW  Elec       q    Type
REMARK                         _______ _______ _______ _____ _____    ______ ____
ROOT
ATOM      1  O   UNL     1       1.576  10.019  18.672  0.00  0.00    +0.000 OA
ATOM      2  C   UNL     1       1.524   8.991  19.338  0.00  0.00    +0.000 C 
ATOM      3  N   UNL     1       0.882   8.865  20.552  0.00  0.00    +0.000 N 
ATOM      4  H   UNL     1       1.042   8.006  21.057  0.00  0.00    +0.000 HD
ENDROOT
BRANCH   3   5
ATOM      5  C   UNL     1       0.151   9.862  21.230  0.00  0.00    +0.000 A 
ATOM      6  C   UNL     1       0.077  10.015  22.610  0.00  0.00    +0.000 A 
ATOM      7  N   UNL     1      -0.642  10.986  23.229  0.00  0.00    +0.000 NA
ATOM      8  C   UNL     1      -1.349  11.839  22.448  0.00  0.00    +0.000 A 
ATOM      9  C   UNL     1      -1.356  11.753  21.057  0.00  0.00    +0.000 A 
ATOM     10  C   UNL     1      -0.568  10.769  20.451  0.00  0.00    +0.000 A 
ATOM     11  C   UNL     1      -2.163  12.717  20.233  0.00  0.00    +0.000 C 
ATOM     12  O   UNL     1      -3.186  13.370  20.989  0.00  0.00    +0.000 OA
ATOM     13  C   UNL     1      -2.655  13.951  22.181  0.00  0.00    +0.000 C 
ATOM     14  C   UNL     1      -2.212  12.856  23.144  0.00  0.00    +0.000 C 
ENDBRANCH   3   5
BRANCH   2  15
ATOM     15  C   UNL     1       2.229   7.793  18.912  0.00  0.00    +0.000 A 
ATOM     16  C   UNL     1       3.088   7.529  17.859  0.00  0.00    +0.000 A 
ATOM     17  C   UNL     1       3.429   6.146  17.892  0.00  0.00    +0.000 A 
ATOM     18  C   UNL     1       4.224   5.310  17.083  0.00  0.00    +0.000 A 
ATOM     19  C   UNL     1       4.292   3.940  17.373  0.00  0.00    +0.000 A 
ATOM     20  C   UNL     1       3.594   3.392  18.458  0.00  0.00    +0.000 A 
ATOM     21  C   UNL     1       2.838   4.230  19.298  0.00  0.00    +0.000 A 
ATOM     22  C   UNL     1       2.774   5.591  18.986  0.00  0.00    +0.000 A 
ATOM     23  N   UNL     1       2.106   6.614  19.616  0.00  0.00    +0.000 N 
ATOM     24  H   UNL     1       1.550   6.521  20.457  0.00  0.00    +0.000 HD
BRANCH  20  25
ATOM     25  C   UNL     1       3.612   1.906  18.731  0.00  0.00    +0.000 C 
ATOM     26  F   UNL     1       3.969   1.155  17.651  0.00  0.00    +0.000 F 
ATOM     27  F   UNL     1       4.480   1.567  19.724  0.00  0.00    +0.000 F 
ATOM     28  F   UNL     1       2.395   1.438  19.122  0.00  0.00    +0.000 F 
ENDBRANCH  20  25
ENDBRANCH   2  15
TORSDOF 3
ENDMDL
MODEL 8
REMARK VINA RESULT:      -7.8      5.748      9.661
REMARK  Name = 
REMARK  3 active torsions:
REMARK  status: ('A' for Active; 'I' for Inactive)
REMARK    1  A    between atoms: C_2  and  C_14
REMARK    2  A    between atoms: N_3  and  C_4
REMARK    3  A    between atoms: C_19  and  C_20
REMARK                            x       y       z     vdW  Elec       q    Type
REMARK                         _______ _______ _______ _____ _____    ______ ____
ROOT
ATOM      1  O   UNL     1       1.227   8.834  20.171  0.00  0.00    +0.000 OA
ATOM      2  C   UNL     1       1.765   8.862  19.071  0.00  0.00    +0.000 C 
ATOM      3  N   UNL     1       1.789   9.954  18.229  0.00  0.00    +0.000 N 
ATOM      4  H   UNL     1       2.139   9.793  17.295  0.00  0.00    +0.000 HD
ENDROOT
BRANCH   3   5
ATOM      5  C   UNL     1       1.240  11.229  18.479  0.00  0.00    +0.000 A 
ATOM      6  C   UNL     1      -0.096  11.496  18.756  0.00  0.00    +0.000 A 
ATOM      7  N   UNL     1      -0.590  12.740  18.988  0.00  0.00    +0.000 NA
ATOM      8  C   UNL     1       0.274  13.781  18.918  0.00  0.00    +0.000 A 
ATOM      9  C   UNL     1       1.627  13.618  18.626  0.00  0.00    +0.000 A 
ATOM     10  C   UNL     1       2.111  12.319  18.437  0.00  0.00    +0.000 A 
ATOM     11  C   UNL     1       2.545  14.806  18.550  0.00  0.00    +0.000 C 
ATOM     12  O   UNL     1       1.842  16.037  18.372  0.00  0.00    +0.000 OA
ATOM     13  C   UNL     1       0.804  16.185  19.343  0.00  0.00    +0.000 C 
ATOM     14  C   UNL     1      -0.297  15.163  19.089  0.00  0.00    +0.000 C 
ENDBRANCH   3   5
BRANCH   2  15
ATOM     15  C   UNL     1       2.384   7.670  18.515  0.00  0.00    +0.000 A 
ATOM     16  C   UNL     1       2.170   6.317  18.714  0.00  0.00    +0.000 A 
ATOM     17  C   UNL     1       3.125   5.592  17.944  0.00  0.00    +0.000 A 
ATOM     18  C   UNL     1       3.411   4.224  17.768  0.00  0.00    +0.000 A 
ATOM     19  C   UNL     1       4.495   3.849  16.962  0.00  0.00    +0.000 A 
ATOM     20  C   UNL     1       5.291   4.810  16.322  0.00  0.00    +0.000 A 
ATOM     21  C   UNL     1       4.981   6.176  16.456  0.00  0.00    +0.000 A 
ATOM     22  C   UNL     1       3.902   6.530  17.272  0.00  0.00    +0.000 A 
ATOM     23  N   UNL     1       3.399   7.769  17.586  0.00  0.00    +0.000 N 
ATOM     24  H   UNL     1       3.748   8.651  17.234  0.00  0.00    +0.000 HD
BRANCH  20  25
ATOM     25  C   UNL     1       6.500   4.410  15.510  0.00  0.00    +0.000 C 
ATOM     26  F   UNL     1       6.304   3.300  14.745  0.00  0.00    +0.000 F 
ATOM     27  F   UNL     1       6.901   5.389  14.652  0.00  0.00    +0.000 F 
ATOM     28  F   UNL     1       7.580   4.136  16.293  0.00  0.00    +0.000 F 
ENDBRANCH  20  25
ENDBRANCH   2  15
TORSDOF 3
ENDMDL
MODEL 9
REMARK VINA RESULT:      -7.8      5.560      9.715
REMARK  Name = 
REMARK  3 active torsions:
REMARK  status: ('A' for Active; 'I' for Inactive)
REMARK    1  A    between atoms: C_2  and  C_14
REMARK    2  A    between atoms: N_3  and  C_4
REMARK    3  A    between atoms: C_19  and  C_20
REMARK                            x       y       z     vdW  Elec       q    Type
REMARK                         _______ _______ _______ _____ _____    ______ ____
ROOT
ATOM      1  O   UNL     1       1.629   8.219  20.758  0.00  0.00    +0.000 OA
ATOM      2  C   UNL     1       1.797   8.264  19.545  0.00  0.00    +0.000 C 
ATOM      3  N   UNL     1       1.358   9.281  18.722  0.00  0.00    +0.000 N 
ATOM      4  H   UNL     1       1.437   9.119  17.729  0.00  0.00    +0.000 HD
ENDROOT
BRANCH   3   5
ATOM      5  C   UNL     1       0.676  10.452  19.113  0.00  0.00    +0.000 A 
ATOM      6  C   UNL     1      -0.581  10.498  19.706  0.00  0.00    +0.000 A 
ATOM      7  N   UNL     1      -1.210  11.646  20.064  0.00  0.00    +0.000 NA
ATOM      8  C   UNL     1      -0.578  12.816  19.802  0.00  0.00    +0.000 A 
ATOM      9  C   UNL     1       0.673  12.875  19.192  0.00  0.00    +0.000 A 
ATOM     10  C   UNL     1       1.313  11.670  18.877  0.00  0.00    +0.000 A 
ATOM     11  C   UNL     1       1.331  14.197  18.914  0.00  0.00    +0.000 C 
ATOM     12  O   UNL     1       0.406  15.287  18.924  0.00  0.00    +0.000 OA
ATOM     13  C   UNL     1      -0.380  15.286  20.117  0.00  0.00    +0.000 C 
ATOM     14  C   UNL     1      -1.319  14.086  20.123  0.00  0.00    +0.000 C 
ENDBRANCH   3   5
BRANCH   2  15
ATOM     15  C   UNL     1       2.438   7.166  18.842  0.00  0.00    +0.000 A 
ATOM     16  C   UNL     1       2.344   5.789  18.957  0.00  0.00    +0.000 A 
ATOM     17  C   UNL     1       3.262   5.196  18.043  0.00  0.00    +0.000 A 
ATOM     18  C   UNL     1       3.625   3.870  17.735  0.00  0.00    +0.000 A 
ATOM     19  C   UNL     1       4.643   3.639  16.800  0.00  0.00    +0.000 A 
ATOM     20  C   UNL     1       5.297   4.701  16.160  0.00  0.00    +0.000 A 
ATOM     21  C   UNL     1       4.906   6.025  16.427  0.00  0.00    +0.000 A 
ATOM     22  C   UNL     1       3.896   6.237  17.371  0.00  0.00    +0.000 A 
ATOM     23  N   UNL     1       3.341   7.408  17.827  0.00  0.00    +0.000 N 
ATOM     24  H   UNL     1       3.587   8.337  17.510  0.00  0.00    +0.000 HD
BRANCH  20  25
ATOM     25  C   UNL     1       6.440   4.454  15.203  0.00  0.00    +0.000 C 
ATOM     26  F   UNL     1       6.613   5.448  14.287  0.00  0.00    +0.000 F 
ATOM     27  F   UNL     1       7.636   4.321  15.841  0.00  0.00    +0.000 F 
ATOM     28  F   UNL     1       6.272   3.311  14.483  0.00  0.00    +0.000 F 
ENDBRANCH  20  25
ENDBRANCH   2  15
TORSDOF 3
ENDMDL
