MODEL 1
REMARK VINA RESULT:      -8.9      0.000      0.000
REMARK  Name = 
REMARK  8 active torsions:
REMARK  status: ('A' for Active; 'I' for Inactive)
REMARK    1  A    between atoms: C_1  and  N_2
REMARK    2  A    between atoms: C_6  and  O_7
REMARK    3  A    between atoms: O_7  and  C_8
REMARK    4  A    between atoms: C_8  and  C_9
REMARK    5  A    between atoms: C_13  and  N_14
REMARK    6  A    between atoms: C_19  and  C_20
REMARK    7  A    between atoms: C_20  and  C_21
REMARK    8  A    between atoms: C_24  and  C_25
REMARK                            x       y       z     vdW  Elec       q    Type
REMARK                         _______ _______ _______ _____ _____    ______ ____
ROOT
ATOM      1  N   UNL     1       4.101   4.429  18.920  0.00  0.00    +0.000 N 
ATOM      2  C   UNL     1       5.428   5.065  19.115  0.00  0.00    +0.000 C 
ATOM      3  C   UNL     1       6.008   5.028  17.733  0.00  0.00    +0.000 A 
ATOM      4  C   UNL     1       5.415   3.956  17.063  0.00  0.00    +0.000 A 
ATOM      5  C   UNL     1       5.626   3.698  15.720  0.00  0.00    +0.000 A 
ATOM      6  C   UNL     1       6.469   4.565  15.014  0.00  0.00    +0.000 A 
ATOM      7  C   UNL     1       7.051   5.671  15.684  0.00  0.00    +0.000 A 
ATOM      8  C   UNL     1       6.830   5.922  17.056  0.00  0.00    +0.000 A 
ATOM      9  C   UNL     1       4.291   3.469  17.891  0.00  0.00    +0.000 C 
ATOM     10  O   UNL     1       3.572   2.533  17.584  0.00  0.00    +0.000 OA
ENDROOT
BRANCH   1  15
ATOM     11  C   UNL     1       1.954   7.194  19.883  0.00  0.00    +0.000 A 
ATOM     12  C   UNL     1       2.385   8.117  18.920  0.00  0.00    +0.000 A 
ATOM     13  C   UNL     1       2.993   7.676  17.747  0.00  0.00    +0.000 A 
ATOM     14  C   UNL     1       3.277   6.326  17.578  0.00  0.00    +0.000 A 
ATOM     15  C   UNL     1       3.090   5.446  18.654  0.00  0.00    +0.000 A 
ATOM     16  C   UNL     1       2.273   5.840  19.721  0.00  0.00    +0.000 A 
BRANCH  11  17
ATOM     17  C   UNL     1       1.224   7.663  21.112  0.00  0.00    +0.000 C 
BRANCH  17  18
ATOM     18  O   UNL     1       1.681   8.979  21.428  0.00  0.00    +0.000 OA
BRANCH  18  24
ATOM     19  C   UNL     1      -0.003  10.876  19.860  0.00  0.00    +0.000 C 
ATOM     20  N   UNL     1      -0.037  10.611  21.273  0.00  0.00    +0.000 N 
ATOM     21  C   UNL     1      -0.868  11.191  22.193  0.00  0.00    +0.000 A 
ATOM     22  N   UNL     1      -0.617  10.694  23.371  0.00  0.00    +0.000 NA
ATOM     23  N   UNL     1       0.403   9.776  23.248  0.00  0.00    +0.000 NA
ATOM     24  C   UNL     1       0.740   9.737  21.976  0.00  0.00    +0.000 A 
ENDBRANCH  18  24
ENDBRANCH  17  18
ENDBRANCH  11  17
ENDBRANCH   1  15
BRANCH   8  25
ATOM     25  C   UNL     1       7.401   7.172  17.679  0.00  0.00    +0.000 C 
ATOM     26  F   UNL     1       6.468   8.093  18.041  0.00  0.00    +0.000 F 
ATOM     27  F   UNL     1       8.112   6.905  18.807  0.00  0.00    +0.000 F 
ATOM     28  F   UNL     1       8.257   7.822  16.842  0.00  0.00    +0.000 F 
ENDBRANCH   8  25
BRANCH   6  29
ATOM     29  C   UNL     1       6.687   4.374  13.534  0.00  0.00    +0.000 C 
BRANCH  29  30
ATOM     30  C   UNL     1       5.838   3.321  12.863  0.00  0.00    +0.000 C 
ATOM     31  N   UNL     1       4.926   3.529  11.968  0.00  0.00    +0.000 NA
ATOM     32  H   UNL     1       4.829   4.526  11.754  0.00  0.00    +0.000 HD
ENDBRANCH  29  30
ENDBRANCH   6  29
TORSDOF 7
ENDMDL
MODEL 2
REMARK VINA RESULT:      -8.8      4.210      6.818
REMARK  Name = 
REMARK  8 active torsions:
REMARK  status: ('A' for Active; 'I' for Inactive)
REMARK    1  A    between atoms: C_1  and  N_2
REMARK    2  A    between atoms: C_6  and  O_7
REMARK    3  A    between atoms: O_7  and  C_8
REMARK    4  A    between atoms: C_8  and  C_9
REMARK    5  A    between atoms: C_13  and  N_14
REMARK    6  A    between atoms: C_19  and  C_20
REMARK    7  A    between atoms: C_20  and  C_21
REMARK    8  A    between atoms: C_24  and  C_25
REMARK                            x       y       z     vdW  Elec       q    Type
REMARK                         _______ _______ _______ _____ _____    ______ ____
ROOT
ATOM      1  N   UNL     1       6.042   5.380  15.661  0.00  0.00    +0.000 N 
ATOM      2  C   UNL     1       4.866   6.253  15.903  0.00  0.00    +0.000 C 
ATOM      3  C   UNL     1       4.081   5.462  16.906  0.00  0.00    +0.000 A 
ATOM      4  C   UNL     1       4.404   4.117  16.719  0.00  0.00    +0.000 A 
ATOM      5  C   UNL     1       3.954   3.110  17.556  0.00  0.00    +0.000 A 
ATOM      6  C   UNL     1       3.145   3.476  18.638  0.00  0.00    +0.000 A 
ATOM      7  C   UNL     1       2.837   4.843  18.848  0.00  0.00    +0.000 A 
ATOM      8  C   UNL     1       3.301   5.862  17.985  0.00  0.00    +0.000 A 
ATOM      9  C   UNL     1       5.561   4.052  15.800  0.00  0.00    +0.000 C 
ATOM     10  O   UNL     1       6.083   3.013  15.432  0.00  0.00    +0.000 OA
ENDROOT
BRANCH   1  15
ATOM     11  C   UNL     1       7.800   7.683  17.851  0.00  0.00    +0.000 A 
ATOM     12  C   UNL     1       7.837   6.871  18.993  0.00  0.00    +0.000 A 
ATOM     13  C   UNL     1       7.712   5.489  18.879  0.00  0.00    +0.000 A 
ATOM     14  C   UNL     1       7.437   4.918  17.641  0.00  0.00    +0.000 A 
ATOM     15  C   UNL     1       7.135   5.750  16.553  0.00  0.00    +0.000 A 
ATOM     16  C   UNL     1       7.490   7.104  16.614  0.00  0.00    +0.000 A 
BRANCH  11  17
ATOM     17  C   UNL     1       8.016   9.167  17.965  0.00  0.00    +0.000 C 
BRANCH  17  18
ATOM     18  O   UNL     1       8.991   9.399  18.983  0.00  0.00    +0.000 OA
BRANCH  18  24
ATOM     19  C   UNL     1       9.098  11.269  21.302  0.00  0.00    +0.000 C 
ATOM     20  N   UNL     1       9.588  11.476  19.966  0.00  0.00    +0.000 N 
ATOM     21  C   UNL     1      10.212  12.597  19.490  0.00  0.00    +0.000 A 
ATOM     22  N   UNL     1      10.523  12.415  18.237  0.00  0.00    +0.000 NA
ATOM     23  N   UNL     1      10.093  11.162  17.860  0.00  0.00    +0.000 NA
ATOM     24  C   UNL     1       9.533  10.608  18.915  0.00  0.00    +0.000 A 
ENDBRANCH  18  24
ENDBRANCH  17  18
ENDBRANCH  11  17
ENDBRANCH   1  15
BRANCH   8  25
ATOM     25  C   UNL     1       3.017   7.304  18.326  0.00  0.00    +0.000 C 
ATOM     26  F   UNL     1       4.046   8.153  18.065  0.00  0.00    +0.000 F 
ATOM     27  F   UNL     1       1.952   7.794  17.638  0.00  0.00    +0.000 F 
ATOM     28  F   UNL     1       2.721   7.475  19.645  0.00  0.00    +0.000 F 
ENDBRANCH   8  25
BRANCH   6  29
ATOM     29  C   UNL     1       2.676   2.433  19.621  0.00  0.00    +0.000 C 
BRANCH  29  30
ATOM     30  C   UNL     1       3.123   2.613  21.052  0.00  0.00    +0.000 C 
ATOM     31  N   UNL     1       2.381   2.986  22.045  0.00  0.00    +0.000 NA
ATOM     32  H   UNL     1       1.416   3.161  21.749  0.00  0.00    +0.000 HD
ENDBRANCH  29  30
ENDBRANCH   6  29
TORSDOF 7
ENDMDL
MODEL 3
REMARK VINA RESULT:      -8.6      0.854      1.132
REMARK  Name = 
REMARK  8 active torsions:
REMARK  status: ('A' for Active; 'I' for Inactive)
REMARK    1  A    between atoms: C_1  and  N_2
REMARK    2  A    between atoms: C_6  and  O_7
REMARK    3  A    between atoms: O_7  and  C_8
REMARK    4  A    between atoms: C_8  and  C_9
REMARK    5  A    between atoms: C_13  and  N_14
REMARK    6  A    between atoms: C_19  and  C_20
REMARK    7  A    between atoms: C_20  and  C_21
REMARK    8  A    between atoms: C_24  and  C_25
REMARK                            x       y       z     vdW  Elec       q    Type
REMARK                         _______ _______ _______ _____ _____    ______ ____
ROOT
ATOM      1  N   UNL     1       3.939   4.561  19.131  0.00  0.00    +0.000 N 
ATOM      2  C   UNL     1       5.284   5.178  19.256  0.00  0.00    +0.000 C 
ATOM      3  C   UNL     1       5.828   5.043  17.866  0.00  0.00    +0.000 A 
ATOM      4  C   UNL     1       5.197   3.946  17.276  0.00  0.00    +0.000 A 
ATOM      5  C   UNL     1       5.369   3.602  15.948  0.00  0.00    +0.000 A 
ATOM      6  C   UNL     1       6.213   4.404  15.171  0.00  0.00    +0.000 A 
ATOM      7  C   UNL     1       6.834   5.535  15.756  0.00  0.00    +0.000 A 
ATOM      8  C   UNL     1       6.652   5.875  17.116  0.00  0.00    +0.000 A 
ATOM      9  C   UNL     1       4.083   3.536  18.159  0.00  0.00    +0.000 C 
ATOM     10  O   UNL     1       3.338   2.599  17.927  0.00  0.00    +0.000 OA
ENDROOT
BRANCH   1  15
ATOM     11  C   UNL     1       2.019   7.547  19.897  0.00  0.00    +0.000 A 
ATOM     12  C   UNL     1       2.374   8.298  18.768  0.00  0.00    +0.000 A 
ATOM     13  C   UNL     1       2.830   7.663  17.615  0.00  0.00    +0.000 A 
ATOM     14  C   UNL     1       3.042   6.289  17.619  0.00  0.00    +0.000 A 
ATOM     15  C   UNL     1       2.943   5.582  18.826  0.00  0.00    +0.000 A 
ATOM     16  C   UNL     1       2.268   6.168  19.903  0.00  0.00    +0.000 A 
BRANCH  11  17
ATOM     17  C   UNL     1       1.450   8.224  21.113  0.00  0.00    +0.000 C 
BRANCH  17  18
ATOM     18  O   UNL     1       1.045   9.542  20.741  0.00  0.00    +0.000 OA
BRANCH  18  24
ATOM     19  C   UNL     1      -1.110  11.488  20.063  0.00  0.00    +0.000 C 
ATOM     20  N   UNL     1      -0.706  11.021  21.362  0.00  0.00    +0.000 N 
ATOM     21  C   UNL     1      -1.245  11.387  22.566  0.00  0.00    +0.000 A 
ATOM     22  N   UNL     1      -0.631  10.750  23.522  0.00  0.00    +0.000 NA
ATOM     23  N   UNL     1       0.342   9.954  22.959  0.00  0.00    +0.000 NA
ATOM     24  C   UNL     1       0.282  10.127  21.656  0.00  0.00    +0.000 A 
ENDBRANCH  18  24
ENDBRANCH  17  18
ENDBRANCH  11  17
ENDBRANCH   1  15
BRANCH   8  25
ATOM     25  C   UNL     1       7.265   7.148  17.646  0.00  0.00    +0.000 C 
ATOM     26  F   UNL     1       7.966   6.992  18.801  0.00  0.00    +0.000 F 
ATOM     27  F   UNL     1       8.132   7.707  16.761  0.00  0.00    +0.000 F 
ATOM     28  F   UNL     1       6.329   8.103  17.907  0.00  0.00    +0.000 F 
ENDBRANCH   8  25
BRANCH   6  29
ATOM     29  C   UNL     1       6.391   4.117  13.700  0.00  0.00    +0.000 C 
BRANCH  29  30
ATOM     30  C   UNL     1       7.696   4.562  13.085  0.00  0.00    +0.000 C 
ATOM     31  N   UNL     1       7.959   5.739  12.614  0.00  0.00    +0.000 NA
ATOM     32  H   UNL     1       7.154   6.367  12.700  0.00  0.00    +0.000 HD
ENDBRANCH  29  30
ENDBRANCH   6  29
TORSDOF 7
ENDMDL
MODEL 4
REMARK VINA RESULT:      -8.6      4.223      6.663
REMARK  Name = 
REMARK  8 active torsions:
REMARK  status: ('A' for Active; 'I' for Inactive)
REMARK    1  A    between atoms: C_1  and  N_2
REMARK    2  A    between atoms: C_6  and  O_7
REMARK    3  A    between atoms: O_7  and  C_8
REMARK    4  A    between atoms: C_8  and  C_9
REMARK    5  A    between atoms: C_13  and  N_14
REMARK    6  A    between atoms: C_19  and  C_20
REMARK    7  A    between atoms: C_20  and  C_21
REMARK    8  A    between atoms: C_24  and  C_25
REMARK                            x       y       z     vdW  Elec       q    Type
REMARK                         _______ _______ _______ _____ _____    ______ ____
ROOT
ATOM      1  N   UNL     1       6.097   5.411  15.619  0.00  0.00    +0.000 N 
ATOM      2  C   UNL     1       4.953   6.341  15.792  0.00  0.00    +0.000 C 
ATOM      3  C   UNL     1       4.120   5.637  16.820  0.00  0.00    +0.000 A 
ATOM      4  C   UNL     1       4.392   4.272  16.711  0.00  0.00    +0.000 A 
ATOM      5  C   UNL     1       3.888   3.330  17.590  0.00  0.00    +0.000 A 
ATOM      6  C   UNL     1       3.076   3.784  18.636  0.00  0.00    +0.000 A 
ATOM      7  C   UNL     1       2.820   5.172  18.768  0.00  0.00    +0.000 A 
ATOM      8  C   UNL     1       3.338   6.124  17.861  0.00  0.00    +0.000 A 
ATOM      9  C   UNL     1       5.561   4.112  15.819  0.00  0.00    +0.000 C 
ATOM     10  O   UNL     1       6.047   3.036  15.516  0.00  0.00    +0.000 OA
ENDROOT
BRANCH   1  15
ATOM     11  C   UNL     1       7.832   7.712  17.830  0.00  0.00    +0.000 A 
ATOM     12  C   UNL     1       7.885   6.886  18.962  0.00  0.00    +0.000 A 
ATOM     13  C   UNL     1       7.779   5.504  18.830  0.00  0.00    +0.000 A 
ATOM     14  C   UNL     1       7.507   4.945  17.587  0.00  0.00    +0.000 A 
ATOM     15  C   UNL     1       7.189   5.786  16.511  0.00  0.00    +0.000 A 
ATOM     16  C   UNL     1       7.524   7.144  16.587  0.00  0.00    +0.000 A 
BRANCH  11  17
ATOM     17  C   UNL     1       8.028   9.197  17.961  0.00  0.00    +0.000 C 
BRANCH  17  18
ATOM     18  O   UNL     1       9.011   9.430  18.971  0.00  0.00    +0.000 OA
BRANCH  18  24
ATOM     19  C   UNL     1       9.076  11.316  21.279  0.00  0.00    +0.000 C 
ATOM     20  N   UNL     1       9.582  11.517  19.948  0.00  0.00    +0.000 N 
ATOM     21  C   UNL     1      10.207  12.639  19.473  0.00  0.00    +0.000 A 
ATOM     22  N   UNL     1      10.535  12.450  18.226  0.00  0.00    +0.000 NA
ATOM     23  N   UNL     1      10.118  11.192  17.852  0.00  0.00    +0.000 NA
ATOM     24  C   UNL     1       9.547  10.642  18.903  0.00  0.00    +0.000 A 
ENDBRANCH  18  24
ENDBRANCH  17  18
ENDBRANCH  11  17
ENDBRANCH   1  15
BRANCH   8  25
ATOM     25  C   UNL     1       3.106   7.592  18.121  0.00  0.00    +0.000 C 
ATOM     26  F   UNL     1       2.619   7.871  19.359  0.00  0.00    +0.000 F 
ATOM     27  F   UNL     1       4.248   8.320  18.002  0.00  0.00    +0.000 F 
ATOM     28  F   UNL     1       2.221   8.138  17.242  0.00  0.00    +0.000 F 
ENDBRANCH   8  25
BRANCH   6  29
ATOM     29  C   UNL     1       2.549   2.814  19.664  0.00  0.00    +0.000 C 
BRANCH  29  30
ATOM     30  C   UNL     1       1.441   1.895  19.210  0.00  0.00    +0.000 C 
ATOM     31  N   UNL     1       0.370   2.242  18.573  0.00  0.00    +0.000 NA
ATOM     32  H   UNL     1       0.345   3.253  18.402  0.00  0.00    +0.000 HD
ENDBRANCH  29  30
ENDBRANCH   6  29
TORSDOF 7
ENDMDL
MODEL 5
REMARK VINA RESULT:      -8.4      4.121      6.760
REMARK  Name = 
REMARK  8 active torsions:
REMARK  status: ('A' for Active; 'I' for Inactive)
REMARK    1  A    between atoms: C_1  and  N_2
REMARK    2  A    between atoms: C_6  and  O_7
REMARK    3  A    between atoms: O_7  and  C_8
REMARK    4  A    between atoms: C_8  and  C_9
REMARK    5  A    between atoms: C_13  and  N_14
REMARK    6  A    between atoms: C_19  and  C_20
REMARK    7  A    between atoms: C_20  and  C_21
REMARK    8  A    between atoms: C_24  and  C_25
REMARK                            x       y       z     vdW  Elec       q    Type
REMARK                         _______ _______ _______ _____ _____    ______ ____
ROOT
ATOM      1  N   UNL     1       6.027   5.402  15.650  0.00  0.00    +0.000 N 
ATOM      2  C   UNL     1       4.841   6.263  15.888  0.00  0.00    +0.000 C 
ATOM      3  C   UNL     1       4.082   5.484  16.920  0.00  0.00    +0.000 A 
ATOM      4  C   UNL     1       4.422   4.140  16.759  0.00  0.00    +0.000 A 
ATOM      5  C   UNL     1       3.999   3.146  17.625  0.00  0.00    +0.000 A 
ATOM      6  C   UNL     1       3.200   3.525  18.710  0.00  0.00    +0.000 A 
ATOM      7  C   UNL     1       2.875   4.892  18.893  0.00  0.00    +0.000 A 
ATOM      8  C   UNL     1       3.311   5.897  18.001  0.00  0.00    +0.000 A 
ATOM      9  C   UNL     1       5.567   4.070  15.826  0.00  0.00    +0.000 C 
ATOM     10  O   UNL     1       6.099   3.031  15.474  0.00  0.00    +0.000 OA
ENDROOT
BRANCH   1  15
ATOM     11  C   UNL     1       7.717   7.732  17.864  0.00  0.00    +0.000 A 
ATOM     12  C   UNL     1       7.845   6.884  18.973  0.00  0.00    +0.000 A 
ATOM     13  C   UNL     1       7.802   5.502  18.811  0.00  0.00    +0.000 A 
ATOM     14  C   UNL     1       7.518   4.959  17.562  0.00  0.00    +0.000 A 
ATOM     15  C   UNL     1       7.126   5.809  16.518  0.00  0.00    +0.000 A 
ATOM     16  C   UNL     1       7.399   7.179  16.617  0.00  0.00    +0.000 A 
BRANCH  11  17
ATOM     17  C   UNL     1       7.845   9.222  18.026  0.00  0.00    +0.000 C 
BRANCH  17  18
ATOM     18  O   UNL     1       9.235   9.545  18.094  0.00  0.00    +0.000 OA
BRANCH  18  24
ATOM     19  C   UNL     1      10.962  11.931  17.631  0.00  0.00    +0.000 C 
ATOM     20  N   UNL     1      10.305  11.527  18.845  0.00  0.00    +0.000 N 
ATOM     21  C   UNL     1      10.346  12.175  20.050  0.00  0.00    +0.000 A 
ATOM     22  N   UNL     1       9.622  11.520  20.913  0.00  0.00    +0.000 NA
ATOM     23  N   UNL     1       9.095  10.412  20.287  0.00  0.00    +0.000 NA
ATOM     24  C   UNL     1       9.515  10.432  19.040  0.00  0.00    +0.000 A 
ENDBRANCH  18  24
ENDBRANCH  17  18
ENDBRANCH  11  17
ENDBRANCH   1  15
BRANCH   8  25
ATOM     25  C   UNL     1       3.010   7.343  18.313  0.00  0.00    +0.000 C 
ATOM     26  F   UNL     1       1.984   7.868  17.592  0.00  0.00    +0.000 F 
ATOM     27  F   UNL     1       2.676   7.526  19.618  0.00  0.00    +0.000 F 
ATOM     28  F   UNL     1       4.079   8.154  18.082  0.00  0.00    +0.000 F 
ENDBRANCH   8  25
BRANCH   6  29
ATOM     29  C   UNL     1       2.760   2.498  19.723  0.00  0.00    +0.000 C 
BRANCH  29  30
ATOM     30  C   UNL     1       1.773   2.966  20.765  0.00  0.00    +0.000 C 
ATOM     31  N   UNL     1       1.759   2.626  22.014  0.00  0.00    +0.000 NA
ATOM     32  H   UNL     1       2.517   1.973  22.235  0.00  0.00    +0.000 HD
ENDBRANCH  29  30
ENDBRANCH   6  29
TORSDOF 7
ENDMDL
MODEL 6
REMARK VINA RESULT:      -8.4      0.756      1.211
REMARK  Name = 
REMARK  8 active torsions:
REMARK  status: ('A' for Active; 'I' for Inactive)
REMARK    1  A    between atoms: C_1  and  N_2
REMARK    2  A    between atoms: C_6  and  O_7
REMARK    3  A    between atoms: O_7  and  C_8
REMARK    4  A    between atoms: C_8  and  C_9
REMARK    5  A    between atoms: C_13  and  N_14
REMARK    6  A    between atoms: C_19  and  C_20
REMARK    7  A    between atoms: C_20  and  C_21
REMARK    8  A    between atoms: C_24  and  C_25
REMARK                            x       y       z     vdW  Elec       q    Type
REMARK                         _______ _______ _______ _____ _____    ______ ____
ROOT
ATOM      1  N   UNL     1       4.108   4.618  19.041  0.00  0.00    +0.000 N 
ATOM      2  C   UNL     1       5.431   5.269  19.214  0.00  0.00    +0.000 C 
ATOM      3  C   UNL     1       6.021   5.166  17.840  0.00  0.00    +0.000 A 
ATOM      4  C   UNL     1       5.438   4.060  17.219  0.00  0.00    +0.000 A 
ATOM      5  C   UNL     1       5.659   3.736  15.892  0.00  0.00    +0.000 A 
ATOM      6  C   UNL     1       6.505   4.571  15.151  0.00  0.00    +0.000 A 
ATOM      7  C   UNL     1       7.077   5.710  15.768  0.00  0.00    +0.000 A 
ATOM      8  C   UNL     1       6.845   6.029  17.125  0.00  0.00    +0.000 A 
ATOM      9  C   UNL     1       4.309   3.610  18.063  0.00  0.00    +0.000 C 
ATOM     10  O   UNL     1       3.597   2.656  17.797  0.00  0.00    +0.000 OA
ENDROOT
BRANCH   1  15
ATOM     11  C   UNL     1       2.113   7.565  19.766  0.00  0.00    +0.000 A 
ATOM     12  C   UNL     1       2.468   8.319  18.639  0.00  0.00    +0.000 A 
ATOM     13  C   UNL     1       2.954   7.689  17.496  0.00  0.00    +0.000 A 
ATOM     14  C   UNL     1       3.196   6.320  17.508  0.00  0.00    +0.000 A 
ATOM     15  C   UNL     1       3.095   5.616  18.717  0.00  0.00    +0.000 A 
ATOM     16  C   UNL     1       2.391   6.191  19.782  0.00  0.00    +0.000 A 
BRANCH  11  17
ATOM     17  C   UNL     1       1.512   8.234  20.972  0.00  0.00    +0.000 C 
BRANCH  17  18
ATOM     18  O   UNL     1       0.289   8.855  20.573  0.00  0.00    +0.000 OA
BRANCH  18  24
ATOM     19  C   UNL     1      -0.776  10.061  23.084  0.00  0.00    +0.000 C 
ATOM     20  N   UNL     1      -0.212  10.729  21.942  0.00  0.00    +0.000 N 
ATOM     21  C   UNL     1      -0.051  12.080  21.784  0.00  0.00    +0.000 A 
ATOM     22  N   UNL     1       0.504  12.313  20.628  0.00  0.00    +0.000 NA
ATOM     23  N   UNL     1       0.709  11.107  19.993  0.00  0.00    +0.000 NA
ATOM     24  C   UNL     1       0.274  10.163  20.800  0.00  0.00    +0.000 A 
ENDBRANCH  18  24
ENDBRANCH  17  18
ENDBRANCH  11  17
ENDBRANCH   1  15
BRANCH   8  25
ATOM     25  C   UNL     1       7.407   7.311  17.689  0.00  0.00    +0.000 C 
ATOM     26  F   UNL     1       6.469   8.251  17.980  0.00  0.00    +0.000 F 
ATOM     27  F   UNL     1       8.094   7.106  18.844  0.00  0.00    +0.000 F 
ATOM     28  F   UNL     1       8.282   7.911  16.835  0.00  0.00    +0.000 F 
ENDBRANCH   8  25
BRANCH   6  29
ATOM     29  C   UNL     1       6.735   4.307  13.683  0.00  0.00    +0.000 C 
BRANCH  29  30
ATOM     30  C   UNL     1       5.669   3.509  12.971  0.00  0.00    +0.000 C 
ATOM     31  N   UNL     1       5.866   2.580  12.092  0.00  0.00    +0.000 NA
ATOM     32  H   UNL     1       6.865   2.436  11.914  0.00  0.00    +0.000 HD
ENDBRANCH  29  30
ENDBRANCH   6  29
TORSDOF 7
ENDMDL
MODEL 7
REMARK VINA RESULT:      -8.3      1.018      1.146
REMARK  Name = 
REMARK  8 active torsions:
REMARK  status: ('A' for Active; 'I' for Inactive)
REMARK    1  A    between atoms: C_1  and  N_2
REMARK    2  A    between atoms: C_6  and  O_7
REMARK    3  A    between atoms: O_7  and  C_8
REMARK    4  A    between atoms: C_8  and  C_9
REMARK    5  A    between atoms: C_13  and  N_14
REMARK    6  A    between atoms: C_19  and  C_20
REMARK    7  A    between atoms: C_20  and  C_21
REMARK    8  A    between atoms: C_24  and  C_25
REMARK                            x       y       z     vdW  Elec       q    Type
REMARK                         _______ _______ _______ _____ _____    ______ ____
ROOT
ATOM      1  N   UNL     1       3.058   3.956  18.722  0.00  0.00    +0.000 N 
ATOM      2  C   UNL     1       4.434   4.090  19.263  0.00  0.00    +0.000 C 
ATOM      3  C   UNL     1       5.259   4.199  18.017  0.00  0.00    +0.000 A 
ATOM      4  C   UNL     1       4.561   3.549  16.997  0.00  0.00    +0.000 A 
ATOM      5  C   UNL     1       4.972   3.560  15.677  0.00  0.00    +0.000 A 
ATOM      6  C   UNL     1       6.141   4.265  15.364  0.00  0.00    +0.000 A 
ATOM      7  C   UNL     1       6.838   4.949  16.390  0.00  0.00    +0.000 A 
ATOM      8  C   UNL     1       6.409   4.929  17.736  0.00  0.00    +0.000 A 
ATOM      9  C   UNL     1       3.201   3.252  17.498  0.00  0.00    +0.000 C 
ATOM     10  O   UNL     1       2.343   2.682  16.845  0.00  0.00    +0.000 OA
ENDROOT
BRANCH   1  15
ATOM     11  C   UNL     1       2.032   7.167  20.072  0.00  0.00    +0.000 A 
ATOM     12  C   UNL     1       2.673   7.985  19.131  0.00  0.00    +0.000 A 
ATOM     13  C   UNL     1       3.012   7.482  17.877  0.00  0.00    +0.000 A 
ATOM     14  C   UNL     1       2.816   6.135  17.595  0.00  0.00    +0.000 A 
ATOM     15  C   UNL     1       2.426   5.267  18.625  0.00  0.00    +0.000 A 
ATOM     16  C   UNL     1       1.869   5.804  19.792  0.00  0.00    +0.000 A 
BRANCH  11  17
ATOM     17  C   UNL     1       1.593   7.731  21.396  0.00  0.00    +0.000 C 
BRANCH  17  18
ATOM     18  O   UNL     1       0.199   8.030  21.313  0.00  0.00    +0.000 OA
BRANCH  18  24
ATOM     19  C   UNL     1      -0.545  10.417  19.688  0.00  0.00    +0.000 C 
ATOM     20  N   UNL     1      -0.452  10.305  21.118  0.00  0.00    +0.000 N 
ATOM     21  C   UNL     1      -0.693  11.296  22.032  0.00  0.00    +0.000 A 
ATOM     22  N   UNL     1      -0.519  10.822  23.233  0.00  0.00    +0.000 NA
ATOM     23  N   UNL     1      -0.146   9.500  23.130  0.00  0.00    +0.000 NA
ATOM     24  C   UNL     1      -0.112   9.204  21.848  0.00  0.00    +0.000 A 
ENDBRANCH  18  24
ENDBRANCH  17  18
ENDBRANCH  11  17
ENDBRANCH   1  15
BRANCH   8  25
ATOM     25  C   UNL     1       7.144   5.762  18.758  0.00  0.00    +0.000 C 
ATOM     26  F   UNL     1       6.505   5.872  19.953  0.00  0.00    +0.000 F 
ATOM     27  F   UNL     1       8.374   5.256  19.043  0.00  0.00    +0.000 F 
ATOM     28  F   UNL     1       7.354   7.038  18.330  0.00  0.00    +0.000 F 
ENDBRANCH   8  25
BRANCH   6  29
ATOM     29  C   UNL     1       6.606   4.366  13.933  0.00  0.00    +0.000 C 
BRANCH  29  30
ATOM     30  C   UNL     1       5.889   3.492  12.932  0.00  0.00    +0.000 C 
ATOM     31  N   UNL     1       6.443   2.745  12.032  0.00  0.00    +0.000 NA
ATOM     32  H   UNL     1       7.465   2.812  12.064  0.00  0.00    +0.000 HD
ENDBRANCH  29  30
ENDBRANCH   6  29
TORSDOF 7
ENDMDL
MODEL 8
REMARK VINA RESULT:      -8.3      4.262      6.565
REMARK  Name = 
REMARK  8 active torsions:
REMARK  status: ('A' for Active; 'I' for Inactive)
REMARK    1  A    between atoms: C_1  and  N_2
REMARK    2  A    between atoms: C_6  and  O_7
REMARK    3  A    between atoms: O_7  and  C_8
REMARK    4  A    between atoms: C_8  and  C_9
REMARK    5  A    between atoms: C_13  and  N_14
REMARK    6  A    between atoms: C_19  and  C_20
REMARK    7  A    between atoms: C_20  and  C_21
REMARK    8  A    between atoms: C_24  and  C_25
REMARK                            x       y       z     vdW  Elec       q    Type
REMARK                         _______ _______ _______ _____ _____    ______ ____
ROOT
ATOM      1  N   UNL     1       6.202   5.562  15.596  0.00  0.00    +0.000 N 
ATOM      2  C   UNL     1       5.007   6.392  15.893  0.00  0.00    +0.000 C 
ATOM      3  C   UNL     1       4.209   5.495  16.790  0.00  0.00    +0.000 A 
ATOM      4  C   UNL     1       4.556   4.179  16.478  0.00  0.00    +0.000 A 
ATOM      5  C   UNL     1       4.101   3.088  17.198  0.00  0.00    +0.000 A 
ATOM      6  C   UNL     1       3.260   3.333  18.290  0.00  0.00    +0.000 A 
ATOM      7  C   UNL     1       2.927   4.669  18.628  0.00  0.00    +0.000 A 
ATOM      8  C   UNL     1       3.396   5.774  17.883  0.00  0.00    +0.000 A 
ATOM      9  C   UNL     1       5.737   4.221  15.588  0.00  0.00    +0.000 C 
ATOM     10  O   UNL     1       6.283   3.231  15.132  0.00  0.00    +0.000 OA
ENDROOT
BRANCH   1  15
ATOM     11  C   UNL     1       7.909   7.684  17.998  0.00  0.00    +0.000 A 
ATOM     12  C   UNL     1       7.893   6.796  19.083  0.00  0.00    +0.000 A 
ATOM     13  C   UNL     1       7.755   5.427  18.870  0.00  0.00    +0.000 A 
ATOM     14  C   UNL     1       7.518   4.946  17.587  0.00  0.00    +0.000 A 
ATOM     15  C   UNL     1       7.266   5.855  16.549  0.00  0.00    +0.000 A 
ATOM     16  C   UNL     1       7.636   7.195  16.714  0.00  0.00    +0.000 A 
BRANCH  11  17
ATOM     17  C   UNL     1       8.140   9.154  18.221  0.00  0.00    +0.000 C 
BRANCH  17  18
ATOM     18  O   UNL     1       9.321   9.305  19.009  0.00  0.00    +0.000 OA
BRANCH  18  24
ATOM     19  C   UNL     1      10.661  11.614  17.679  0.00  0.00    +0.000 C 
ATOM     20  N   UNL     1      10.033  11.570  18.973  0.00  0.00    +0.000 N 
ATOM     21  C   UNL     1       9.927  12.604  19.864  0.00  0.00    +0.000 A 
ATOM     22  N   UNL     1       9.285  12.193  20.922  0.00  0.00    +0.000 NA
ATOM     23  N   UNL     1       8.965  10.865  20.748  0.00  0.00    +0.000 NA
ATOM     24  C   UNL     1       9.422  10.505  19.567  0.00  0.00    +0.000 A 
ENDBRANCH  18  24
ENDBRANCH  17  18
ENDBRANCH  11  17
ENDBRANCH   1  15
BRANCH   8  25
ATOM     25  C   UNL     1       3.082   7.171  18.360  0.00  0.00    +0.000 C 
ATOM     26  F   UNL     1       4.047   8.087  18.078  0.00  0.00    +0.000 F 
ATOM     27  F   UNL     1       1.939   7.657  17.806  0.00  0.00    +0.000 F 
ATOM     28  F   UNL     1       2.899   7.228  19.708  0.00  0.00    +0.000 F 
ENDBRANCH   8  25
BRANCH   6  29
ATOM     29  C   UNL     1       2.782   2.191  19.151  0.00  0.00    +0.000 C 
BRANCH  29  30
ATOM     30  C   UNL     1       1.320   2.202  19.527  0.00  0.00    +0.000 C 
ATOM     31  N   UNL     1       0.326   1.924  18.746  0.00  0.00    +0.000 NA
ATOM     32  H   UNL     1       0.644   1.690  17.800  0.00  0.00    +0.000 HD
ENDBRANCH  29  30
ENDBRANCH   6  29
TORSDOF 7
ENDMDL
MODEL 9
REMARK VINA RESULT:      -8.3      0.977      1.081
REMARK  Name = 
REMARK  8 active torsions:
REMARK  status: ('A' for Active; 'I' for Inactive)
REMARK    1  A    between atoms: C_1  and  N_2
REMARK    2  A    between atoms: C_6  and  O_7
REMARK    3  A    between atoms: O_7  and  C_8
REMARK    4  A    between atoms: C_8  and  C_9
REMARK    5  A    between atoms: C_13  and  N_14
REMARK    6  A    between atoms: C_19  and  C_20
REMARK    7  A    between atoms: C_20  and  C_21
REMARK    8  A    between atoms: C_24  and  C_25
REMARK                            x       y       z     vdW  Elec       q    Type
REMARK                         _______ _______ _______ _____ _____    ______ ____
ROOT
ATOM      1  N   UNL     1       3.883   4.656  19.348  0.00  0.00    +0.000 N 
ATOM      2  C   UNL     1       5.235   5.269  19.376  0.00  0.00    +0.000 C 
ATOM      3  C   UNL     1       5.720   5.039  17.977  0.00  0.00    +0.000 A 
ATOM      4  C   UNL     1       5.059   3.911  17.488  0.00  0.00    +0.000 A 
ATOM      5  C   UNL     1       5.172   3.479  16.178  0.00  0.00    +0.000 A 
ATOM      6  C   UNL     1       5.987   4.223  15.316  0.00  0.00    +0.000 A 
ATOM      7  C   UNL     1       6.639   5.384  15.800  0.00  0.00    +0.000 A 
ATOM      8  C   UNL     1       6.517   5.814  17.140  0.00  0.00    +0.000 A 
ATOM      9  C   UNL     1       3.981   3.569  18.441  0.00  0.00    +0.000 C 
ATOM     10  O   UNL     1       3.221   2.625  18.302  0.00  0.00    +0.000 OA
ENDROOT
BRANCH   1  15
ATOM     11  C   UNL     1       1.913   7.622  20.062  0.00  0.00    +0.000 A 
ATOM     12  C   UNL     1       2.280   8.371  18.936  0.00  0.00    +0.000 A 
ATOM     13  C   UNL     1       2.766   7.736  17.796  0.00  0.00    +0.000 A 
ATOM     14  C   UNL     1       2.995   6.365  17.810  0.00  0.00    +0.000 A 
ATOM     15  C   UNL     1       2.881   5.663  19.019  0.00  0.00    +0.000 A 
ATOM     16  C   UNL     1       2.178   6.246  20.080  0.00  0.00    +0.000 A 
BRANCH  11  17
ATOM     17  C   UNL     1       1.312   8.298  21.263  0.00  0.00    +0.000 C 
BRANCH  17  18
ATOM     18  O   UNL     1       0.057   8.861  20.877  0.00  0.00    +0.000 OA
BRANCH  18  24
ATOM     19  C   UNL     1      -1.111  10.707  18.847  0.00  0.00    +0.000 C 
ATOM     20  N   UNL     1      -0.518  11.036  20.116  0.00  0.00    +0.000 N 
ATOM     21  C   UNL     1      -0.373  12.288  20.649  0.00  0.00    +0.000 A 
ATOM     22  N   UNL     1       0.196  12.193  21.818  0.00  0.00    +0.000 NA
ATOM     23  N   UNL     1       0.449  10.862  22.071  0.00  0.00    +0.000 NA
ATOM     24  C   UNL     1       0.010  10.178  21.036  0.00  0.00    +0.000 A 
ENDBRANCH  18  24
ENDBRANCH  17  18
ENDBRANCH  11  17
ENDBRANCH   1  15
BRANCH   8  25
ATOM     25  C   UNL     1       7.158   7.113  17.560  0.00  0.00    +0.000 C 
ATOM     26  F   UNL     1       6.277   8.127  17.776  0.00  0.00    +0.000 F 
ATOM     27  F   UNL     1       7.864   6.987  18.716  0.00  0.00    +0.000 F 
ATOM     28  F   UNL     1       8.039   7.579  16.632  0.00  0.00    +0.000 F 
ENDBRANCH   8  25
BRANCH   6  29
ATOM     29  C   UNL     1       6.102   3.839  13.861  0.00  0.00    +0.000 C 
BRANCH  29  30
ATOM     30  C   UNL     1       7.130   4.589  13.050  0.00  0.00    +0.000 C 
ATOM     31  N   UNL     1       7.352   4.456  11.782  0.00  0.00    +0.000 NA
ATOM     32  H   UNL     1       6.733   3.754  11.363  0.00  0.00    +0.000 HD
ENDBRANCH  29  30
ENDBRANCH   6  29
TORSDOF 7
ENDMDL
