MODEL 1
REMARK VINA RESULT:      -8.0      0.000      0.000
REMARK  Name = 
REMARK  3 active torsions:
REMARK  status: ('A' for Active; 'I' for Inactive)
REMARK    1  A    between atoms: C_6  and  C_7
REMARK    2  A    between atoms: C_7  and  C_8
REMARK    3  A    between atoms: C_11  and  C_13
REMARK                            x       y       z     vdW  Elec       q    Type
REMARK                         _______ _______ _______ _____ _____    ______ ____
ROOT
ATOM      1  C   UNL     1      -0.630  11.521  19.753  0.00  0.00    +0.000 C 
ATOM      2  C   UNL     1      -1.516  12.608  20.360  0.00  0.00    +0.000 C 
ATOM      3  N   UNL     1      -1.953  12.154  21.701  0.00  0.00    +0.000 N 
ATOM      4  C   UNL     1      -2.942  12.714  22.524  0.00  0.00    +0.000 C 
ATOM      5  O   UNL     1      -3.136  12.323  23.675  0.00  0.00    +0.000 OA
ATOM      6  C   UNL     1      -1.049  11.110  22.070  0.00  0.00    +0.000 A 
ATOM      7  C   UNL     1      -0.921  10.398  23.249  0.00  0.00    +0.000 A 
ATOM      8  C   UNL     1       0.090   9.423  23.342  0.00  0.00    +0.000 A 
ATOM      9  C   UNL     1       0.970   9.179  22.276  0.00  0.00    +0.000 A 
ATOM     10  C   UNL     1       0.821   9.869  21.081  0.00  0.00    +0.000 A 
ATOM     11  C   UNL     1      -0.206  10.799  20.989  0.00  0.00    +0.000 A 
ENDROOT
BRANCH   4  12
ATOM     12  C   UNL     1      -3.867  13.800  21.957  0.00  0.00    +0.000 A 
ATOM     13  C   UNL     1      -3.638  15.095  22.245  0.00  0.00    +0.000 A 
ATOM     14  N   UNL     1      -4.378  16.132  21.747  0.00  0.00    +0.000 N 
ATOM     15  C   UNL     1      -5.517  15.987  21.005  0.00  0.00    +0.000 A 
ATOM     16  O   UNL     1      -6.138  16.963  20.593  0.00  0.00    +0.000 OA
ATOM     17  C   UNL     1      -5.950  14.588  20.761  0.00  0.00    +0.000 A 
ATOM     18  C   UNL     1      -7.179  14.396  20.117  0.00  0.00    +0.000 A 
ATOM     19  C   UNL     1      -7.616  13.103  19.860  0.00  0.00    +0.000 A 
ATOM     20  C   UNL     1      -6.826  12.026  20.242  0.00  0.00    +0.000 A 
ATOM     21  C   UNL     1      -5.594  12.229  20.887  0.00  0.00    +0.000 A 
ATOM     22  C   UNL     1      -5.133  13.518  21.190  0.00  0.00    +0.000 A 
ATOM     23  H   UNL     1      -4.101  17.093  21.923  0.00  0.00    +0.000 HD
ENDBRANCH   4  12
BRANCH   1  24
ATOM     24  C   UNL     1      -1.353  10.618  18.738  0.00  0.00    +0.000 C 
BRANCH  24  30
ATOM     25  O   UNL     1      -2.674  10.221  14.215  0.00  0.00    +0.000 OA
ATOM     26  C   UNL     1      -2.952  10.572  15.357  0.00  0.00    +0.000 C 
ATOM     27  C   UNL     1      -4.369  10.904  15.819  0.00  0.00    +0.000 C 
ATOM     28  O   UNL     1      -4.437  11.825  16.905  0.00  0.00    +0.000 OA
ATOM     29  C   UNL     1      -3.637  11.368  17.997  0.00  0.00    +0.000 C 
ATOM     30  C   UNL     1      -2.150  11.291  17.594  0.00  0.00    +0.000 C 
ATOM     31  N   UNL     1      -1.983  10.596  16.324  0.00  0.00    +0.000 N 
ATOM     32  H   UNL     1      -1.062  10.598  15.898  0.00  0.00    +0.000 HD
ENDBRANCH  24  30
ENDBRANCH   1  24
TORSDOF 3
ENDMDL
MODEL 2
REMARK VINA RESULT:      -7.9      5.255      9.144
REMARK  Name = 
REMARK  3 active torsions:
REMARK  status: ('A' for Active; 'I' for Inactive)
REMARK    1  A    between atoms: C_6  and  C_7
REMARK    2  A    between atoms: C_7  and  C_8
REMARK    3  A    between atoms: C_11  and  C_13
REMARK                            x       y       z     vdW  Elec       q    Type
REMARK                         _______ _______ _______ _____ _____    ______ ____
ROOT
ATOM      1  C   UNL     1       0.817  10.866  18.866  0.00  0.00    +0.000 C 
ATOM      2  C   UNL     1       1.246   9.431  18.564  0.00  0.00    +0.000 C 
ATOM      3  N   UNL     1       1.305   8.686  19.844  0.00  0.00    +0.000 N 
ATOM      4  C   UNL     1       1.857   7.419  20.082  0.00  0.00    +0.000 C 
ATOM      5  O   UNL     1       1.739   6.845  21.165  0.00  0.00    +0.000 OA
ATOM      6  C   UNL     1       0.537   9.454  20.774  0.00  0.00    +0.000 A 
ATOM      7  C   UNL     1       0.171   9.189  22.081  0.00  0.00    +0.000 A 
ATOM      8  C   UNL     1      -0.620  10.132  22.764  0.00  0.00    +0.000 A 
ATOM      9  C   UNL     1      -1.051  11.314  22.140  0.00  0.00    +0.000 A 
ATOM     10  C   UNL     1      -0.656  11.596  20.840  0.00  0.00    +0.000 A 
ATOM     11  C   UNL     1       0.158  10.676  20.192  0.00  0.00    +0.000 A 
ENDROOT
BRANCH   4  12
ATOM     12  C   UNL     1       2.699   6.747  18.989  0.00  0.00    +0.000 A 
ATOM     13  C   UNL     1       3.528   7.486  18.229  0.00  0.00    +0.000 A 
ATOM     14  N   UNL     1       4.350   6.968  17.266  0.00  0.00    +0.000 N 
ATOM     15  C   UNL     1       4.343   5.663  16.859  0.00  0.00    +0.000 A 
ATOM     16  O   UNL     1       5.104   5.264  15.983  0.00  0.00    +0.000 OA
ATOM     17  C   UNL     1       3.346   4.788  17.527  0.00  0.00    +0.000 A 
ATOM     18  C   UNL     1       3.216   3.477  17.050  0.00  0.00    +0.000 A 
ATOM     19  C   UNL     1       2.302   2.623  17.654  0.00  0.00    +0.000 A 
ATOM     20  C   UNL     1       1.539   3.082  18.720  0.00  0.00    +0.000 A 
ATOM     21  C   UNL     1       1.678   4.399  19.192  0.00  0.00    +0.000 A 
ATOM     22  C   UNL     1       2.567   5.300  18.589  0.00  0.00    +0.000 A 
ATOM     23  H   UNL     1       5.022   7.561  16.790  0.00  0.00    +0.000 HD
ENDBRANCH   4  12
BRANCH   1  24
ATOM     24  C   UNL     1       1.979  11.873  18.901  0.00  0.00    +0.000 C 
BRANCH  24  30
ATOM     25  O   UNL     1      -0.494  15.904  18.878  0.00  0.00    +0.000 OA
ATOM     26  C   UNL     1       0.581  15.337  18.707  0.00  0.00    +0.000 C 
ATOM     27  C   UNL     1       1.917  16.069  18.603  0.00  0.00    +0.000 C 
ATOM     28  O   UNL     1       2.909  15.385  17.839  0.00  0.00    +0.000 OA
ATOM     29  C   UNL     1       3.090  14.057  18.334  0.00  0.00    +0.000 C 
ATOM     30  C   UNL     1       1.794  13.234  18.188  0.00  0.00    +0.000 C 
ATOM     31  N   UNL     1       0.642  13.969  18.694  0.00  0.00    +0.000 N 
ATOM     32  H   UNL     1      -0.280  13.578  18.531  0.00  0.00    +0.000 HD
ENDBRANCH  24  30
ENDBRANCH   1  24
TORSDOF 3
ENDMDL
MODEL 3
REMARK VINA RESULT:      -7.8      5.397      9.482
REMARK  Name = 
REMARK  3 active torsions:
REMARK  status: ('A' for Active; 'I' for Inactive)
REMARK    1  A    between atoms: C_6  and  C_7
REMARK    2  A    between atoms: C_7  and  C_8
REMARK    3  A    between atoms: C_11  and  C_13
REMARK                            x       y       z     vdW  Elec       q    Type
REMARK                         _______ _______ _______ _____ _____    ______ ____
ROOT
ATOM      1  C   UNL     1       0.923  10.763  18.580  0.00  0.00    +0.000 C 
ATOM      2  C   UNL     1       1.340   9.313  18.338  0.00  0.00    +0.000 C 
ATOM      3  N   UNL     1       1.382   8.618  19.646  0.00  0.00    +0.000 N 
ATOM      4  C   UNL     1       1.920   7.355  19.938  0.00  0.00    +0.000 C 
ATOM      5  O   UNL     1       1.788   6.825  21.041  0.00  0.00    +0.000 OA
ATOM      6  C   UNL     1       0.614   9.428  20.539  0.00  0.00    +0.000 A 
ATOM      7  C   UNL     1       0.235   9.217  21.853  0.00  0.00    +0.000 A 
ATOM      8  C   UNL     1      -0.553  10.193  22.492  0.00  0.00    +0.000 A 
ATOM      9  C   UNL     1      -0.967  11.353  21.819  0.00  0.00    +0.000 A 
ATOM     10  C   UNL     1      -0.559  11.582  20.512  0.00  0.00    +0.000 A 
ATOM     11  C   UNL     1       0.252  10.629  19.907  0.00  0.00    +0.000 A 
ENDROOT
BRANCH   4  12
ATOM     12  C   UNL     1       2.764   6.634  18.878  0.00  0.00    +0.000 A 
ATOM     13  C   UNL     1       3.615   7.334  18.105  0.00  0.00    +0.000 A 
ATOM     14  N   UNL     1       4.441   6.771  17.170  0.00  0.00    +0.000 N 
ATOM     15  C   UNL     1       4.417   5.453  16.807  0.00  0.00    +0.000 A 
ATOM     16  O   UNL     1       5.182   5.014  15.955  0.00  0.00    +0.000 OA
ATOM     17  C   UNL     1       3.397   4.617  17.490  0.00  0.00    +0.000 A 
ATOM     18  C   UNL     1       3.252   3.294  17.056  0.00  0.00    +0.000 A 
ATOM     19  C   UNL     1       2.317   2.475  17.676  0.00  0.00    +0.000 A 
ATOM     20  C   UNL     1       1.548   2.981  18.716  0.00  0.00    +0.000 A 
ATOM     21  C   UNL     1       1.702   4.311  19.145  0.00  0.00    +0.000 A 
ATOM     22  C   UNL     1       2.614   5.177  18.525  0.00  0.00    +0.000 A 
ATOM     23  H   UNL     1       5.128   7.337  16.684  0.00  0.00    +0.000 HD
ENDBRANCH   4  12
BRANCH   1  24
ATOM     24  C   UNL     1       2.094  11.759  18.587  0.00  0.00    +0.000 C 
BRANCH  24  30
ATOM     25  O   UNL     1       3.074  14.532  22.291  0.00  0.00    +0.000 OA
ATOM     26  C   UNL     1       2.883  14.432  21.083  0.00  0.00    +0.000 C 
ATOM     27  C   UNL     1       3.231  15.526  20.077  0.00  0.00    +0.000 C 
ATOM     28  O   UNL     1       2.437  15.517  18.893  0.00  0.00    +0.000 OA
ATOM     29  C   UNL     1       2.473  14.227  18.279  0.00  0.00    +0.000 C 
ATOM     30  C   UNL     1       1.866  13.158  19.210  0.00  0.00    +0.000 C 
ATOM     31  N   UNL     1       2.414  13.257  20.556  0.00  0.00    +0.000 N 
ATOM     32  H   UNL     1       1.994  12.689  21.284  0.00  0.00    +0.000 HD
ENDBRANCH  24  30
ENDBRANCH   1  24
TORSDOF 3
ENDMDL
MODEL 4
REMARK VINA RESULT:      -7.7      1.599      1.972
REMARK  Name = 
REMARK  3 active torsions:
REMARK  status: ('A' for Active; 'I' for Inactive)
REMARK    1  A    between atoms: C_6  and  C_7
REMARK    2  A    between atoms: C_7  and  C_8
REMARK    3  A    between atoms: C_11  and  C_13
REMARK                            x       y       z     vdW  Elec       q    Type
REMARK                         _______ _______ _______ _____ _____    ______ ____
ROOT
ATOM      1  C   UNL     1      -0.597  13.095  20.735  0.00  0.00    +0.000 C 
ATOM      2  C   UNL     1      -1.651  13.640  21.698  0.00  0.00    +0.000 C 
ATOM      3  N   UNL     1      -2.145  12.517  22.529  0.00  0.00    +0.000 N 
ATOM      4  C   UNL     1      -3.258  12.497  23.382  0.00  0.00    +0.000 C 
ATOM      5  O   UNL     1      -3.502  11.541  24.119  0.00  0.00    +0.000 OA
ATOM      6  C   UNL     1      -1.160  11.487  22.412  0.00  0.00    +0.000 A 
ATOM      7  C   UNL     1      -1.052  10.263  23.046  0.00  0.00    +0.000 A 
ATOM      8  C   UNL     1       0.054   9.445  22.748  0.00  0.00    +0.000 A 
ATOM      9  C   UNL     1       1.044   9.855  21.841  0.00  0.00    +0.000 A 
ATOM     10  C   UNL     1       0.918  11.069  21.178  0.00  0.00    +0.000 A 
ATOM     11  C   UNL     1      -0.199  11.848  21.452  0.00  0.00    +0.000 A 
ENDROOT
BRANCH   4  12
ATOM     12  C   UNL     1      -4.251  13.668  23.352  0.00  0.00    +0.000 A 
ATOM     13  C   UNL     1      -4.205  14.613  24.309  0.00  0.00    +0.000 A 
ATOM     14  N   UNL     1      -5.015  15.714  24.337  0.00  0.00    +0.000 N 
ATOM     15  C   UNL     1      -6.057  15.933  23.480  0.00  0.00    +0.000 A 
ATOM     16  O   UNL     1      -6.750  16.943  23.564  0.00  0.00    +0.000 OA
ATOM     17  C   UNL     1      -6.297  14.866  22.475  0.00  0.00    +0.000 A 
ATOM     18  C   UNL     1      -7.431  14.988  21.663  0.00  0.00    +0.000 A 
ATOM     19  C   UNL     1      -7.687  14.016  20.703  0.00  0.00    +0.000 A 
ATOM     20  C   UNL     1      -6.811  12.947  20.564  0.00  0.00    +0.000 A 
ATOM     21  C   UNL     1      -5.675  12.834  21.385  0.00  0.00    +0.000 A 
ATOM     22  C   UNL     1      -5.400  13.778  22.384  0.00  0.00    +0.000 A 
ATOM     23  H   UNL     1      -4.872  16.441  25.031  0.00  0.00    +0.000 HD
ENDBRANCH   4  12
BRANCH   1  24
ATOM     24  C   UNL     1      -1.121  12.839  19.312  0.00  0.00    +0.000 C 
BRANCH  24  30
ATOM     25  O   UNL     1      -5.378  11.853  17.504  0.00  0.00    +0.000 OA
ATOM     26  C   UNL     1      -4.230  11.485  17.732  0.00  0.00    +0.000 C 
ATOM     27  C   UNL     1      -3.591  10.258  17.089  0.00  0.00    +0.000 C 
ATOM     28  O   UNL     1      -2.561   9.650  17.867  0.00  0.00    +0.000 OA
ATOM     29  C   UNL     1      -1.570  10.616  18.223  0.00  0.00    +0.000 C 
ATOM     30  C   UNL     1      -2.176  11.725  19.107  0.00  0.00    +0.000 C 
ATOM     31  N   UNL     1      -3.415  12.238  18.535  0.00  0.00    +0.000 N 
ATOM     32  H   UNL     1      -3.968  12.879  19.095  0.00  0.00    +0.000 HD
ENDBRANCH  24  30
ENDBRANCH   1  24
TORSDOF 3
ENDMDL
MODEL 5
REMARK VINA RESULT:      -7.6      4.511      8.550
REMARK  Name = 
REMARK  3 active torsions:
REMARK  status: ('A' for Active; 'I' for Inactive)
REMARK    1  A    between atoms: C_6  and  C_7
REMARK    2  A    between atoms: C_7  and  C_8
REMARK    3  A    between atoms: C_11  and  C_13
REMARK                            x       y       z     vdW  Elec       q    Type
REMARK                         _______ _______ _______ _____ _____    ______ ____
ROOT
ATOM      1  C   UNL     1      -0.764  11.424  18.990  0.00  0.00    +0.000 C 
ATOM      2  C   UNL     1      -0.071  10.062  18.955  0.00  0.00    +0.000 C 
ATOM      3  N   UNL     1       0.288   9.689  20.344  0.00  0.00    +0.000 N 
ATOM      4  C   UNL     1       1.123   8.646  20.771  0.00  0.00    +0.000 C 
ATOM      5  O   UNL     1       1.251   8.353  21.960  0.00  0.00    +0.000 OA
ATOM      6  C   UNL     1      -0.520  10.514  21.187  0.00  0.00    +0.000 A 
ATOM      7  C   UNL     1      -0.674  10.526  22.561  0.00  0.00    +0.000 A 
ATOM      8  C   UNL     1      -1.569  11.451  23.131  0.00  0.00    +0.000 A 
ATOM      9  C   UNL     1      -2.311  12.337  22.334  0.00  0.00    +0.000 A 
ATOM     10  C   UNL     1      -2.132  12.348  20.958  0.00  0.00    +0.000 A 
ATOM     11  C   UNL     1      -1.215  11.458  20.413  0.00  0.00    +0.000 A 
ENDROOT
BRANCH   4  12
ATOM     12  C   UNL     1       1.964   7.884  19.736  0.00  0.00    +0.000 A 
ATOM     13  C   UNL     1       2.430   8.522  18.647  0.00  0.00    +0.000 A 
ATOM     14  N   UNL     1       3.225   7.939  17.699  0.00  0.00    +0.000 N 
ATOM     15  C   UNL     1       3.540   6.609  17.663  0.00  0.00    +0.000 A 
ATOM     16  O   UNL     1       4.256   6.148  16.779  0.00  0.00    +0.000 OA
ATOM     17  C   UNL     1       2.943   5.777  18.739  0.00  0.00    +0.000 A 
ATOM     18  C   UNL     1       3.135   4.392  18.665  0.00  0.00    +0.000 A 
ATOM     19  C   UNL     1       2.600   3.579  19.657  0.00  0.00    +0.000 A 
ATOM     20  C   UNL     1       1.892   4.155  20.704  0.00  0.00    +0.000 A 
ATOM     21  C   UNL     1       1.706   5.547  20.770  0.00  0.00    +0.000 A 
ATOM     22  C   UNL     1       2.204   6.397  19.772  0.00  0.00    +0.000 A 
ATOM     23  H   UNL     1       3.624   8.494  16.949  0.00  0.00    +0.000 HD
ENDBRANCH   4  12
BRANCH   1  24
ATOM     24  C   UNL     1       0.151  12.601  18.612  0.00  0.00    +0.000 C 
BRANCH  24  30
ATOM     25  O   UNL     1       4.502  14.367  18.049  0.00  0.00    +0.000 OA
ATOM     26  C   UNL     1       3.604  14.027  18.813  0.00  0.00    +0.000 C 
ATOM     27  C   UNL     1       3.561  14.405  20.291  0.00  0.00    +0.000 C 
ATOM     28  O   UNL     1       2.848  13.487  21.117  0.00  0.00    +0.000 OA
ATOM     29  C   UNL     1       1.530  13.277  20.604  0.00  0.00    +0.000 C 
ATOM     30  C   UNL     1       1.582  12.639  19.201  0.00  0.00    +0.000 C 
ATOM     31  N   UNL     1       2.516  13.346  18.334  0.00  0.00    +0.000 N 
ATOM     32  H   UNL     1       2.728  12.937  17.429  0.00  0.00    +0.000 HD
ENDBRANCH  24  30
ENDBRANCH   1  24
TORSDOF 3
ENDMDL
MODEL 6
REMARK VINA RESULT:      -7.5      6.666      9.042
REMARK  Name = 
REMARK  3 active torsions:
REMARK  status: ('A' for Active; 'I' for Inactive)
REMARK    1  A    between atoms: C_6  and  C_7
REMARK    2  A    between atoms: C_7  and  C_8
REMARK    3  A    between atoms: C_11  and  C_13
REMARK                            x       y       z     vdW  Elec       q    Type
REMARK                         _______ _______ _______ _____ _____    ______ ____
ROOT
ATOM      1  C   UNL     1       4.750   5.469  18.421  0.00  0.00    +0.000 C 
ATOM      2  C   UNL     1       3.954   6.657  18.957  0.00  0.00    +0.000 C 
ATOM      3  N   UNL     1       2.785   6.134  19.702  0.00  0.00    +0.000 N 
ATOM      4  C   UNL     1       1.670   6.844  20.172  0.00  0.00    +0.000 C 
ATOM      5  O   UNL     1       0.815   6.323  20.888  0.00  0.00    +0.000 OA
ATOM      6  C   UNL     1       3.092   4.768  19.993  0.00  0.00    +0.000 A 
ATOM      7  C   UNL     1       2.411   3.828  20.745  0.00  0.00    +0.000 A 
ATOM      8  C   UNL     1       2.966   2.542  20.881  0.00  0.00    +0.000 A 
ATOM      9  C   UNL     1       4.192   2.209  20.284  0.00  0.00    +0.000 A 
ATOM     10  C   UNL     1       4.859   3.141  19.501  0.00  0.00    +0.000 A 
ATOM     11  C   UNL     1       4.280   4.393  19.343  0.00  0.00    +0.000 A 
ENDROOT
BRANCH   4  12
ATOM     12  C   UNL     1       1.462   8.298  19.726  0.00  0.00    +0.000 A 
ATOM     13  C   UNL     1       1.994   8.730  18.568  0.00  0.00    +0.000 A 
ATOM     14  N   UNL     1       1.821   9.991  18.068  0.00  0.00    +0.000 N 
ATOM     15  C   UNL     1       1.201  11.012  18.735  0.00  0.00    +0.000 A 
ATOM     16  O   UNL     1       1.085  12.124  18.230  0.00  0.00    +0.000 OA
ATOM     17  C   UNL     1       0.712  10.684  20.098  0.00  0.00    +0.000 A 
ATOM     18  C   UNL     1       0.187  11.733  20.864  0.00  0.00    +0.000 A 
ATOM     19  C   UNL     1      -0.291  11.467  22.141  0.00  0.00    +0.000 A 
ATOM     20  C   UNL     1      -0.245  10.168  22.632  0.00  0.00    +0.000 A 
ATOM     21  C   UNL     1       0.284   9.122  21.854  0.00  0.00    +0.000 A 
ATOM     22  C   UNL     1       0.803   9.356  20.573  0.00  0.00    +0.000 A 
ATOM     23  H   UNL     1       2.168  10.231  17.146  0.00  0.00    +0.000 HD
ENDBRANCH   4  12
BRANCH   1  24
ATOM     24  C   UNL     1       4.488   5.157  16.937  0.00  0.00    +0.000 C 
BRANCH  24  30
ATOM     25  O   UNL     1       5.674   3.455  12.688  0.00  0.00    +0.000 OA
ATOM     26  C   UNL     1       5.998   4.092  13.685  0.00  0.00    +0.000 C 
ATOM     27  C   UNL     1       7.233   4.987  13.753  0.00  0.00    +0.000 C 
ATOM     28  O   UNL     1       7.777   5.148  15.062  0.00  0.00    +0.000 OA
ATOM     29  C   UNL     1       6.767   5.597  15.969  0.00  0.00    +0.000 C 
ATOM     30  C   UNL     1       5.640   4.553  16.098  0.00  0.00    +0.000 C 
ATOM     31  N   UNL     1       5.188   4.099  14.790  0.00  0.00    +0.000 N 
ATOM     32  H   UNL     1       4.540   3.318  14.754  0.00  0.00    +0.000 HD
ENDBRANCH  24  30
ENDBRANCH   1  24
TORSDOF 3
ENDMDL
MODEL 7
REMARK VINA RESULT:      -7.5      2.453      3.661
REMARK  Name = 
REMARK  3 active torsions:
REMARK  status: ('A' for Active; 'I' for Inactive)
REMARK    1  A    between atoms: C_6  and  C_7
REMARK    2  A    between atoms: C_7  and  C_8
REMARK    3  A    between atoms: C_11  and  C_13
REMARK                            x       y       z     vdW  Elec       q    Type
REMARK                         _______ _______ _______ _____ _____    ______ ____
ROOT
ATOM      1  C   UNL     1      -0.150  10.665  18.878  0.00  0.00    +0.000 C 
ATOM      2  C   UNL     1      -0.448  11.519  20.110  0.00  0.00    +0.000 C 
ATOM      3  N   UNL     1      -0.212  10.690  21.316  0.00  0.00    +0.000 N 
ATOM      4  C   UNL     1      -0.565  10.976  22.643  0.00  0.00    +0.000 C 
ATOM      5  O   UNL     1      -0.208  10.266  23.584  0.00  0.00    +0.000 OA
ATOM      6  C   UNL     1       0.597   9.595  20.881  0.00  0.00    +0.000 A 
ATOM      7  C   UNL     1       1.196   8.573  21.595  0.00  0.00    +0.000 A 
ATOM      8  C   UNL     1       1.968   7.626  20.897  0.00  0.00    +0.000 A 
ATOM      9  C   UNL     1       2.150   7.711  19.508  0.00  0.00    +0.000 A 
ATOM     10  C   UNL     1       1.521   8.717  18.786  0.00  0.00    +0.000 A 
ATOM     11  C   UNL     1       0.730   9.621  19.482  0.00  0.00    +0.000 A 
ENDROOT
BRANCH   4  12
ATOM     12  C   UNL     1      -1.485  12.169  22.938  0.00  0.00    +0.000 A 
ATOM     13  C   UNL     1      -2.770  11.960  23.277  0.00  0.00    +0.000 A 
ATOM     14  N   UNL     1      -3.648  12.957  23.603  0.00  0.00    +0.000 N 
ATOM     15  C   UNL     1      -3.378  14.293  23.500  0.00  0.00    +0.000 A 
ATOM     16  O   UNL     1      -4.215  15.138  23.805  0.00  0.00    +0.000 OA
ATOM     17  C   UNL     1      -2.030  14.638  22.980  0.00  0.00    +0.000 A 
ATOM     18  C   UNL     1      -1.759  15.990  22.738  0.00  0.00    +0.000 A 
ATOM     19  C   UNL     1      -0.506  16.356  22.260  0.00  0.00    +0.000 A 
ATOM     20  C   UNL     1       0.453  15.376  22.038  0.00  0.00    +0.000 A 
ATOM     21  C   UNL     1       0.171  14.021  22.285  0.00  0.00    +0.000 A 
ATOM     22  C   UNL     1      -1.091  13.610  22.738  0.00  0.00    +0.000 A 
ATOM     23  H   UNL     1      -4.578  12.733  23.942  0.00  0.00    +0.000 HD
ENDBRANCH   4  12
BRANCH   1  24
ATOM     24  C   UNL     1      -1.403  10.088  18.198  0.00  0.00    +0.000 C 
BRANCH  24  30
ATOM     25  O   UNL     1      -3.328  10.457  13.895  0.00  0.00    +0.000 OA
ATOM     26  C   UNL     1      -3.400  10.699  15.095  0.00  0.00    +0.000 C 
ATOM     27  C   UNL     1      -4.676  11.173  15.788  0.00  0.00    +0.000 C 
ATOM     28  O   UNL     1      -4.457  11.952  16.963  0.00  0.00    +0.000 OA
ATOM     29  C   UNL     1      -3.610  11.249  17.875  0.00  0.00    +0.000 C 
ATOM     30  C   UNL     1      -2.218  11.007  17.257  0.00  0.00    +0.000 C 
ATOM     31  N   UNL     1      -2.326  10.459  15.911  0.00  0.00    +0.000 N 
ATOM     32  H   UNL     1      -1.478  10.381  15.360  0.00  0.00    +0.000 HD
ENDBRANCH  24  30
ENDBRANCH   1  24
TORSDOF 3
ENDMDL
MODEL 8
REMARK VINA RESULT:      -7.4      3.467      5.184
REMARK  Name = 
REMARK  3 active torsions:
REMARK  status: ('A' for Active; 'I' for Inactive)
REMARK    1  A    between atoms: C_6  and  C_7
REMARK    2  A    between atoms: C_7  and  C_8
REMARK    3  A    between atoms: C_11  and  C_13
REMARK                            x       y       z     vdW  Elec       q    Type
REMARK                         _______ _______ _______ _____ _____    ______ ____
ROOT
ATOM      1  C   UNL     1       0.707  10.381  19.206  0.00  0.00    +0.000 C 
ATOM      2  C   UNL     1       0.914  11.892  19.315  0.00  0.00    +0.000 C 
ATOM      3  N   UNL     1       0.232  12.364  20.543  0.00  0.00    +0.000 N 
ATOM      4  C   UNL     1      -0.034  13.687  20.930  0.00  0.00    +0.000 C 
ATOM      5  O   UNL     1      -0.500  13.966  22.035  0.00  0.00    +0.000 OA
ATOM      6  C   UNL     1       0.032  11.200  21.348  0.00  0.00    +0.000 A 
ATOM      7  C   UNL     1      -0.464  11.061  22.631  0.00  0.00    +0.000 A 
ATOM      8  C   UNL     1      -0.530   9.772  23.193  0.00  0.00    +0.000 A 
ATOM      9  C   UNL     1      -0.091   8.643  22.485  0.00  0.00    +0.000 A 
ATOM     10  C   UNL     1       0.376   8.777  21.184  0.00  0.00    +0.000 A 
ATOM     11  C   UNL     1       0.398  10.050  20.628  0.00  0.00    +0.000 A 
ENDROOT
BRANCH   4  12
ATOM     12  C   UNL     1       0.192  14.825  19.925  0.00  0.00    +0.000 A 
ATOM     13  C   UNL     1      -0.852  15.356  19.264  0.00  0.00    +0.000 A 
ATOM     14  N   UNL     1      -0.753  16.402  18.388  0.00  0.00    +0.000 N 
ATOM     15  C   UNL     1       0.426  16.956  17.971  0.00  0.00    +0.000 A 
ATOM     16  O   UNL     1       0.444  17.891  17.177  0.00  0.00    +0.000 OA
ATOM     17  C   UNL     1       1.657  16.335  18.523  0.00  0.00    +0.000 A 
ATOM     18  C   UNL     1       2.885  16.786  18.024  0.00  0.00    +0.000 A 
ATOM     19  C   UNL     1       4.062  16.239  18.520  0.00  0.00    +0.000 A 
ATOM     20  C   UNL     1       3.998  15.261  19.504  0.00  0.00    +0.000 A 
ATOM     21  C   UNL     1       2.759  14.815  19.999  0.00  0.00    +0.000 A 
ATOM     22  C   UNL     1       1.550  15.322  19.502  0.00  0.00    +0.000 A 
ATOM     23  H   UNL     1      -1.587  16.822  17.991  0.00  0.00    +0.000 HD
ENDBRANCH   4  12
BRANCH   1  24
ATOM     24  C   UNL     1      -0.407   9.971  18.228  0.00  0.00    +0.000 C 
BRANCH  24  30
ATOM     25  O   UNL     1      -3.470  11.225  14.851  0.00  0.00    +0.000 OA
ATOM     26  C   UNL     1      -3.192  11.182  16.045  0.00  0.00    +0.000 C 
ATOM     27  C   UNL     1      -4.207  11.425  17.160  0.00  0.00    +0.000 C 
ATOM     28  O   UNL     1      -3.647  11.922  18.373  0.00  0.00    +0.000 OA
ATOM     29  C   UNL     1      -2.590  11.070  18.820  0.00  0.00    +0.000 C 
ATOM     30  C   UNL     1      -1.437  11.042  17.796  0.00  0.00    +0.000 C 
ATOM     31  N   UNL     1      -1.935  10.813  16.445  0.00  0.00    +0.000 N 
ATOM     32  H   UNL     1      -1.281  10.903  15.675  0.00  0.00    +0.000 HD
ENDBRANCH  24  30
ENDBRANCH   1  24
TORSDOF 3
ENDMDL
MODEL 9
REMARK VINA RESULT:      -7.4      1.007      2.276
REMARK  Name = 
REMARK  3 active torsions:
REMARK  status: ('A' for Active; 'I' for Inactive)
REMARK    1  A    between atoms: C_6  and  C_7
REMARK    2  A    between atoms: C_7  and  C_8
REMARK    3  A    between atoms: C_11  and  C_13
REMARK                            x       y       z     vdW  Elec       q    Type
REMARK                         _______ _______ _______ _____ _____    ______ ____
ROOT
ATOM      1  C   UNL     1      -0.769  11.588  19.830  0.00  0.00    +0.000 C 
ATOM      2  C   UNL     1      -1.754  12.552  20.489  0.00  0.00    +0.000 C 
ATOM      3  N   UNL     1      -2.137  11.993  21.807  0.00  0.00    +0.000 N 
ATOM      4  C   UNL     1      -3.172  12.413  22.656  0.00  0.00    +0.000 C 
ATOM      5  O   UNL     1      -3.321  11.950  23.787  0.00  0.00    +0.000 OA
ATOM      6  C   UNL     1      -1.133  11.027  22.125  0.00  0.00    +0.000 A 
ATOM      7  C   UNL     1      -0.930  10.274  23.267  0.00  0.00    +0.000 A 
ATOM      8  C   UNL     1       0.172   9.401  23.313  0.00  0.00    +0.000 A 
ATOM      9  C   UNL     1       1.066   9.295  22.236  0.00  0.00    +0.000 A 
ATOM     10  C   UNL     1       0.844  10.025  21.076  0.00  0.00    +0.000 A 
ATOM     11  C   UNL     1      -0.270  10.852  21.030  0.00  0.00    +0.000 A 
ENDROOT
BRANCH   4  12
ATOM     12  C   UNL     1      -4.202  13.430  22.142  0.00  0.00    +0.000 A 
ATOM     13  C   UNL     1      -5.272  13.009  21.444  0.00  0.00    +0.000 A 
ATOM     14  N   UNL     1      -6.263  13.834  20.989  0.00  0.00    +0.000 N 
ATOM     15  C   UNL     1      -6.233  15.199  21.067  0.00  0.00    +0.000 A 
ATOM     16  O   UNL     1      -7.155  15.883  20.633  0.00  0.00    +0.000 OA
ATOM     17  C   UNL     1      -5.012  15.780  21.683  0.00  0.00    +0.000 A 
ATOM     18  C   UNL     1      -4.883  17.174  21.665  0.00  0.00    +0.000 A 
ATOM     19  C   UNL     1      -3.760  17.759  22.239  0.00  0.00    +0.000 A 
ATOM     20  C   UNL     1      -2.793  16.951  22.823  0.00  0.00    +0.000 A 
ATOM     21  C   UNL     1      -2.933  15.552  22.836  0.00  0.00    +0.000 A 
ATOM     22  C   UNL     1      -4.036  14.924  22.240  0.00  0.00    +0.000 A 
ATOM     23  H   UNL     1      -7.093  13.449  20.551  0.00  0.00    +0.000 HD
ENDBRANCH   4  12
BRANCH   1  24
ATOM     24  C   UNL     1      -1.404  10.669  18.773  0.00  0.00    +0.000 C 
BRANCH  24  30
ATOM     25  O   UNL     1      -2.639  10.196  14.232  0.00  0.00    +0.000 OA
ATOM     26  C   UNL     1      -2.940  10.565  15.363  0.00  0.00    +0.000 C 
ATOM     27  C   UNL     1      -4.365  10.901  15.793  0.00  0.00    +0.000 C 
ATOM     28  O   UNL     1      -4.456  11.840  16.863  0.00  0.00    +0.000 OA
ATOM     29  C   UNL     1      -3.675  11.402  17.977  0.00  0.00    +0.000 C 
ATOM     30  C   UNL     1      -2.181  11.321  17.603  0.00  0.00    +0.000 C 
ATOM     31  N   UNL     1      -1.988  10.606  16.348  0.00  0.00    +0.000 N 
ATOM     32  H   UNL     1      -1.060  10.604  15.939  0.00  0.00    +0.000 HD
ENDBRANCH  24  30
ENDBRANCH   1  24
TORSDOF 3
ENDMDL
