MODEL 1
REMARK VINA RESULT:      -9.1      0.000      0.000
REMARK  Name = 
REMARK  6 active torsions:
REMARK  status: ('A' for Active; 'I' for Inactive)
REMARK    1  A    between atoms: C_1  and  O_2
REMARK    2  A    between atoms: O_2  and  C_3
REMARK    3  A    between atoms: C_8  and  N_9
REMARK    4  A    between atoms: C_10  and  C_12
REMARK    5  A    between atoms: C_13  and  C_14
REMARK    6  A    between atoms: C_21  and  C_22
REMARK                            x       y       z     vdW  Elec       q    Type
REMARK                         _______ _______ _______ _____ _____    ______ ____
ROOT
ATOM      1  C   UNL     1       2.694   7.030  19.198  0.00  0.00    +0.000 C 
ATOM      2  C   UNL     1       3.025   7.592  18.008  0.00  0.00    +0.000 C 
ATOM      3  C   UNL     1       2.452   8.862  17.435  0.00  0.00    +0.000 C 
ATOM      4  N   UNL     1       4.046   7.028  17.234  0.00  0.00    +0.000 N 
ATOM      5  C   UNL     1       4.890   6.086  17.694  0.00  0.00    +0.000 A 
ATOM      6  N   UNL     1       6.010   5.613  17.206  0.00  0.00    +0.000 NA
ATOM      7  C   UNL     1       6.422   4.742  18.182  0.00  0.00    +0.000 A 
ATOM      8  N   UNL     1       5.624   4.648  19.253  0.00  0.00    +0.000 NA
ATOM      9  N   UNL     1       4.635   5.493  18.897  0.00  0.00    +0.000 N 
ATOM     10  C   UNL     1       3.450   5.784  19.710  0.00  0.00    +0.000 C 
ATOM     11  H   UNL     1       4.318   7.528  16.391  0.00  0.00    +0.000 HD
ENDROOT
BRANCH  10  12
ATOM     12  C   UNL     1       2.550   4.555  19.757  0.00  0.00    +0.000 A 
ATOM     13  C   UNL     1       1.881   4.128  18.597  0.00  0.00    +0.000 A 
ATOM     14  C   UNL     1       1.073   2.990  18.619  0.00  0.00    +0.000 A 
ATOM     15  C   UNL     1       0.924   2.264  19.799  0.00  0.00    +0.000 A 
ATOM     16  C   UNL     1       1.582   2.684  20.947  0.00  0.00    +0.000 A 
ATOM     17  F   UNL     1       1.439   1.987  22.083  0.00  0.00    +0.000 F 
ATOM     18  C   UNL     1       2.386   3.816  20.942  0.00  0.00    +0.000 A 
ENDBRANCH  10  12
BRANCH   1  20
ATOM     19  N   UNL     1       1.452   8.891  20.252  0.00  0.00    +0.000 N 
ATOM     20  C   UNL     1       1.744   7.545  20.239  0.00  0.00    +0.000 C 
ATOM     21  O   UNL     1       1.238   6.700  20.976  0.00  0.00    +0.000 OA
ATOM     22  H   UNL     1       1.822   9.498  19.528  0.00  0.00    +0.000 HD
BRANCH  19  28
ATOM     23  C   UNL     1      -0.216  10.622  20.755  0.00  0.00    +0.000 A 
ATOM     24  C   UNL     1      -1.069  11.263  21.672  0.00  0.00    +0.000 A 
ATOM     25  C   UNL     1      -1.109  10.871  23.009  0.00  0.00    +0.000 A 
ATOM     26  C   UNL     1      -0.294   9.839  23.445  0.00  0.00    +0.000 A 
ATOM     27  C   UNL     1       0.553   9.193  22.545  0.00  0.00    +0.000 A 
ATOM     28  C   UNL     1       0.602   9.555  21.191  0.00  0.00    +0.000 A 
BRANCH  23  30
ATOM     29  C   UNL     1      -1.281  10.697  18.630  0.00  0.00    +0.000 C 
ATOM     30  O   UNL     1      -0.126  10.973  19.426  0.00  0.00    +0.000 OA
ENDBRANCH  23  30
ENDBRANCH  19  28
ENDBRANCH   1  20
TORSDOF 4
ENDMDL
MODEL 2
REMARK VINA RESULT:      -8.8      0.814      1.219
REMARK  Name = 
REMARK  6 active torsions:
REMARK  status: ('A' for Active; 'I' for Inactive)
REMARK    1  A    between atoms: C_1  and  O_2
REMARK    2  A    between atoms: O_2  and  C_3
REMARK    3  A    between atoms: C_8  and  N_9
REMARK    4  A    between atoms: C_10  and  C_12
REMARK    5  A    between atoms: C_13  and  C_14
REMARK    6  A    between atoms: C_21  and  C_22
REMARK                            x       y       z     vdW  Elec       q    Type
REMARK                         _______ _______ _______ _____ _____    ______ ____
ROOT
ATOM      1  C   UNL     1       2.617   7.003  19.310  0.00  0.00    +0.000 C 
ATOM      2  C   UNL     1       2.872   7.467  18.060  0.00  0.00    +0.000 C 
ATOM      3  C   UNL     1       2.214   8.651  17.400  0.00  0.00    +0.000 C 
ATOM      4  N   UNL     1       3.889   6.882  17.296  0.00  0.00    +0.000 N 
ATOM      5  C   UNL     1       4.797   6.027  17.802  0.00  0.00    +0.000 A 
ATOM      6  N   UNL     1       5.919   5.564  17.310  0.00  0.00    +0.000 NA
ATOM      7  C   UNL     1       6.413   4.807  18.341  0.00  0.00    +0.000 A 
ATOM      8  N   UNL     1       5.664   4.776  19.450  0.00  0.00    +0.000 NA
ATOM      9  N   UNL     1       4.620   5.537  19.064  0.00  0.00    +0.000 N 
ATOM     10  C   UNL     1       3.455   5.846  19.899  0.00  0.00    +0.000 C 
ATOM     11  H   UNL     1       4.102   7.314  16.400  0.00  0.00    +0.000 HD
ENDROOT
BRANCH  10  12
ATOM     12  C   UNL     1       2.621   4.586  20.096  0.00  0.00    +0.000 A 
ATOM     13  C   UNL     1       2.596   3.947  21.347  0.00  0.00    +0.000 A 
ATOM     14  C   UNL     1       1.818   2.806  21.549  0.00  0.00    +0.000 A 
ATOM     15  C   UNL     1       1.053   2.292  20.504  0.00  0.00    +0.000 A 
ATOM     16  C   UNL     1       1.076   2.919  19.267  0.00  0.00    +0.000 A 
ATOM     17  F   UNL     1       0.340   2.425  18.261  0.00  0.00    +0.000 F 
ATOM     18  C   UNL     1       1.849   4.052  19.050  0.00  0.00    +0.000 A 
ENDBRANCH  10  12
BRANCH   1  20
ATOM     19  N   UNL     1       1.373   8.908  20.280  0.00  0.00    +0.000 N 
ATOM     20  C   UNL     1       1.685   7.567  20.341  0.00  0.00    +0.000 C 
ATOM     21  O   UNL     1       1.209   6.762  21.139  0.00  0.00    +0.000 OA
ATOM     22  H   UNL     1       1.718   9.475  19.513  0.00  0.00    +0.000 HD
BRANCH  19  28
ATOM     23  C   UNL     1      -0.209  10.728  20.744  0.00  0.00    +0.000 A 
ATOM     24  C   UNL     1      -1.051  11.412  21.640  0.00  0.00    +0.000 A 
ATOM     25  C   UNL     1      -1.148  11.021  22.974  0.00  0.00    +0.000 A 
ATOM     26  C   UNL     1      -0.403   9.945  23.429  0.00  0.00    +0.000 A 
ATOM     27  C   UNL     1       0.432   9.256  22.549  0.00  0.00    +0.000 A 
ATOM     28  C   UNL     1       0.537   9.616  21.199  0.00  0.00    +0.000 A 
BRANCH  23  30
ATOM     29  C   UNL     1      -1.196  10.823  18.582  0.00  0.00    +0.000 C 
ATOM     30  O   UNL     1      -0.065  11.074  19.418  0.00  0.00    +0.000 OA
ENDBRANCH  23  30
ENDBRANCH  19  28
ENDBRANCH   1  20
TORSDOF 4
ENDMDL
MODEL 3
REMARK VINA RESULT:      -8.4      1.874      2.949
REMARK  Name = 
REMARK  6 active torsions:
REMARK  status: ('A' for Active; 'I' for Inactive)
REMARK    1  A    between atoms: C_1  and  O_2
REMARK    2  A    between atoms: O_2  and  C_3
REMARK    3  A    between atoms: C_8  and  N_9
REMARK    4  A    between atoms: C_10  and  C_12
REMARK    5  A    between atoms: C_13  and  C_14
REMARK    6  A    between atoms: C_21  and  C_22
REMARK                            x       y       z     vdW  Elec       q    Type
REMARK                         _______ _______ _______ _____ _____    ______ ____
ROOT
ATOM      1  C   UNL     1       4.072   6.388  17.782  0.00  0.00    +0.000 C 
ATOM      2  C   UNL     1       4.867   6.462  16.684  0.00  0.00    +0.000 C 
ATOM      3  C   UNL     1       4.517   7.123  15.376  0.00  0.00    +0.000 C 
ATOM      4  N   UNL     1       6.176   5.968  16.740  0.00  0.00    +0.000 N 
ATOM      5  C   UNL     1       6.788   5.622  17.887  0.00  0.00    +0.000 A 
ATOM      6  N   UNL     1       8.044   5.358  18.153  0.00  0.00    +0.000 NA
ATOM      7  C   UNL     1       8.031   5.159  19.510  0.00  0.00    +0.000 A 
ATOM      8  N   UNL     1       6.839   5.288  20.106  0.00  0.00    +0.000 NA
ATOM      9  N   UNL     1       6.058   5.551  19.038  0.00  0.00    +0.000 N 
ATOM     10  C   UNL     1       4.610   5.779  19.096  0.00  0.00    +0.000 C 
ATOM     11  H   UNL     1       6.762   6.118  15.923  0.00  0.00    +0.000 HD
ENDROOT
BRANCH  10  12
ATOM     12  C   UNL     1       3.903   4.475  19.447  0.00  0.00    +0.000 A 
ATOM     13  C   UNL     1       2.979   4.439  20.505  0.00  0.00    +0.000 A 
ATOM     14  C   UNL     1       2.305   3.258  20.822  0.00  0.00    +0.000 A 
ATOM     15  C   UNL     1       2.545   2.100  20.085  0.00  0.00    +0.000 A 
ATOM     16  C   UNL     1       3.459   2.132  19.040  0.00  0.00    +0.000 A 
ATOM     17  F   UNL     1       3.690   1.019  18.331  0.00  0.00    +0.000 F 
ATOM     18  C   UNL     1       4.139   3.298  18.716  0.00  0.00    +0.000 A 
ENDBRANCH  10  12
BRANCH   1  20
ATOM     19  N   UNL     1       2.612   8.286  18.404  0.00  0.00    +0.000 N 
ATOM     20  C   UNL     1       2.707   6.976  17.985  0.00  0.00    +0.000 C 
ATOM     21  O   UNL     1       1.757   6.252  17.694  0.00  0.00    +0.000 OA
ATOM     22  H   UNL     1       3.450   8.849  18.504  0.00  0.00    +0.000 HD
BRANCH  19  28
ATOM     23  C   UNL     1       0.964   9.123  20.021  0.00  0.00    +0.000 A 
ATOM     24  C   UNL     1      -0.217   9.835  20.299  0.00  0.00    +0.000 A 
ATOM     25  C   UNL     1      -0.974  10.398  19.273  0.00  0.00    +0.000 A 
ATOM     26  C   UNL     1      -0.562  10.252  17.958  0.00  0.00    +0.000 A 
ATOM     27  C   UNL     1       0.609   9.553  17.670  0.00  0.00    +0.000 A 
ATOM     28  C   UNL     1       1.399   8.990  18.682  0.00  0.00    +0.000 A 
BRANCH  23  30
ATOM     29  C   UNL     1       1.506   8.971  22.332  0.00  0.00    +0.000 C 
ATOM     30  O   UNL     1       1.747   8.537  20.991  0.00  0.00    +0.000 OA
ENDBRANCH  23  30
ENDBRANCH  19  28
ENDBRANCH   1  20
TORSDOF 4
ENDMDL
MODEL 4
REMARK VINA RESULT:      -8.3      1.704      2.763
REMARK  Name = 
REMARK  6 active torsions:
REMARK  status: ('A' for Active; 'I' for Inactive)
REMARK    1  A    between atoms: C_1  and  O_2
REMARK    2  A    between atoms: O_2  and  C_3
REMARK    3  A    between atoms: C_8  and  N_9
REMARK    4  A    between atoms: C_10  and  C_12
REMARK    5  A    between atoms: C_13  and  C_14
REMARK    6  A    between atoms: C_21  and  C_22
REMARK                            x       y       z     vdW  Elec       q    Type
REMARK                         _______ _______ _______ _____ _____    ______ ____
ROOT
ATOM      1  C   UNL     1       4.080   6.380  17.782  0.00  0.00    +0.000 C 
ATOM      2  C   UNL     1       4.873   6.460  16.682  0.00  0.00    +0.000 C 
ATOM      3  C   UNL     1       4.517   7.123  15.377  0.00  0.00    +0.000 C 
ATOM      4  N   UNL     1       6.183   5.970  16.734  0.00  0.00    +0.000 N 
ATOM      5  C   UNL     1       6.799   5.622  17.879  0.00  0.00    +0.000 A 
ATOM      6  N   UNL     1       8.055   5.361  18.142  0.00  0.00    +0.000 NA
ATOM      7  C   UNL     1       8.046   5.158  19.498  0.00  0.00    +0.000 A 
ATOM      8  N   UNL     1       6.855   5.282  20.096  0.00  0.00    +0.000 NA
ATOM      9  N   UNL     1       6.070   5.545  19.031  0.00  0.00    +0.000 N 
ATOM     10  C   UNL     1       4.622   5.769  19.092  0.00  0.00    +0.000 C 
ATOM     11  H   UNL     1       6.767   6.125  15.917  0.00  0.00    +0.000 HD
ENDROOT
BRANCH  10  12
ATOM     12  C   UNL     1       3.919   4.462  19.441  0.00  0.00    +0.000 A 
ATOM     13  C   UNL     1       4.160   3.308  18.677  0.00  0.00    +0.000 A 
ATOM     14  C   UNL     1       3.543   2.099  19.000  0.00  0.00    +0.000 A 
ATOM     15  C   UNL     1       2.678   2.028  20.090  0.00  0.00    +0.000 A 
ATOM     16  C   UNL     1       2.436   3.167  20.846  0.00  0.00    +0.000 A 
ATOM     17  F   UNL     1       1.605   3.099  21.895  0.00  0.00    +0.000 F 
ATOM     18  C   UNL     1       3.040   4.377  20.535  0.00  0.00    +0.000 A 
ENDBRANCH  10  12
BRANCH   1  20
ATOM     19  N   UNL     1       2.615   8.280  18.385  0.00  0.00    +0.000 N 
ATOM     20  C   UNL     1       2.714   6.964  17.989  0.00  0.00    +0.000 C 
ATOM     21  O   UNL     1       1.764   6.229  17.721  0.00  0.00    +0.000 OA
ATOM     22  H   UNL     1       3.450   8.850  18.465  0.00  0.00    +0.000 HD
BRANCH  19  28
ATOM     23  C   UNL     1       0.968   9.119  20.002  0.00  0.00    +0.000 A 
ATOM     24  C   UNL     1      -0.215   9.828  20.281  0.00  0.00    +0.000 A 
ATOM     25  C   UNL     1      -0.976  10.385  19.255  0.00  0.00    +0.000 A 
ATOM     26  C   UNL     1      -0.566  10.236  17.939  0.00  0.00    +0.000 A 
ATOM     27  C   UNL     1       0.606   9.539  17.650  0.00  0.00    +0.000 A 
ATOM     28  C   UNL     1       1.401   8.982  18.663  0.00  0.00    +0.000 A 
BRANCH  23  30
ATOM     29  C   UNL     1       1.520   8.980  22.312  0.00  0.00    +0.000 C 
ATOM     30  O   UNL     1       1.755   8.538  20.973  0.00  0.00    +0.000 OA
ENDBRANCH  23  30
ENDBRANCH  19  28
ENDBRANCH   1  20
TORSDOF 4
ENDMDL
MODEL 5
REMARK VINA RESULT:      -8.2      3.131      5.122
REMARK  Name = 
REMARK  6 active torsions:
REMARK  status: ('A' for Active; 'I' for Inactive)
REMARK    1  A    between atoms: C_1  and  O_2
REMARK    2  A    between atoms: O_2  and  C_3
REMARK    3  A    between atoms: C_8  and  N_9
REMARK    4  A    between atoms: C_10  and  C_12
REMARK    5  A    between atoms: C_13  and  C_14
REMARK    6  A    between atoms: C_21  and  C_22
REMARK                            x       y       z     vdW  Elec       q    Type
REMARK                         _______ _______ _______ _____ _____    ______ ____
ROOT
ATOM      1  C   UNL     1       4.359   4.962  17.914  0.00  0.00    +0.000 C 
ATOM      2  C   UNL     1       4.333   3.625  17.678  0.00  0.00    +0.000 C 
ATOM      3  C   UNL     1       3.544   2.602  18.453  0.00  0.00    +0.000 C 
ATOM      4  N   UNL     1       5.020   3.101  16.577  0.00  0.00    +0.000 N 
ATOM      5  C   UNL     1       5.527   3.862  15.590  0.00  0.00    +0.000 A 
ATOM      6  N   UNL     1       5.992   3.548  14.406  0.00  0.00    +0.000 NA
ATOM      7  C   UNL     1       6.275   4.772  13.856  0.00  0.00    +0.000 A 
ATOM      8  N   UNL     1       6.008   5.832  14.629  0.00  0.00    +0.000 NA
ATOM      9  N   UNL     1       5.563   5.218  15.745  0.00  0.00    +0.000 N 
ATOM     10  C   UNL     1       5.126   5.907  16.963  0.00  0.00    +0.000 C 
ATOM     11  H   UNL     1       4.905   2.108  16.390  0.00  0.00    +0.000 HD
ENDROOT
BRANCH  10  12
ATOM     12  C   UNL     1       6.329   6.545  17.647  0.00  0.00    +0.000 A 
ATOM     13  C   UNL     1       7.074   5.813  18.587  0.00  0.00    +0.000 A 
ATOM     14  C   UNL     1       8.193   6.375  19.203  0.00  0.00    +0.000 A 
ATOM     15  C   UNL     1       8.582   7.675  18.887  0.00  0.00    +0.000 A 
ATOM     16  C   UNL     1       7.848   8.402  17.960  0.00  0.00    +0.000 A 
ATOM     17  F   UNL     1       8.221   9.653  17.656  0.00  0.00    +0.000 F 
ATOM     18  C   UNL     1       6.730   7.857  17.342  0.00  0.00    +0.000 A 
ENDBRANCH  10  12
BRANCH   1  20
ATOM     19  N   UNL     1       2.766   6.761  18.504  0.00  0.00    +0.000 N 
ATOM     20  C   UNL     1       3.588   5.742  18.937  0.00  0.00    +0.000 C 
ATOM     21  O   UNL     1       3.699   5.365  20.102  0.00  0.00    +0.000 OA
ATOM     22  H   UNL     1       2.642   6.925  17.510  0.00  0.00    +0.000 HD
BRANCH  19  28
ATOM     23  C   UNL     1       1.709   8.941  18.905  0.00  0.00    +0.000 A 
ATOM     24  C   UNL     1       0.930   9.787  19.715  0.00  0.00    +0.000 A 
ATOM     25  C   UNL     1       0.446   9.353  20.948  0.00  0.00    +0.000 A 
ATOM     26  C   UNL     1       0.739   8.072  21.387  0.00  0.00    +0.000 A 
ATOM     27  C   UNL     1       1.507   7.223  20.591  0.00  0.00    +0.000 A 
ATOM     28  C   UNL     1       1.993   7.626  19.340  0.00  0.00    +0.000 A 
BRANCH  23  30
ATOM     29  C   UNL     1       2.518  10.708  17.533  0.00  0.00    +0.000 C 
ATOM     30  O   UNL     1       2.223   9.317  17.683  0.00  0.00    +0.000 OA
ENDBRANCH  23  30
ENDBRANCH  19  28
ENDBRANCH   1  20
TORSDOF 4
ENDMDL
MODEL 6
REMARK VINA RESULT:      -8.0      2.813      4.872
REMARK  Name = 
REMARK  6 active torsions:
REMARK  status: ('A' for Active; 'I' for Inactive)
REMARK    1  A    between atoms: C_1  and  O_2
REMARK    2  A    between atoms: O_2  and  C_3
REMARK    3  A    between atoms: C_8  and  N_9
REMARK    4  A    between atoms: C_10  and  C_12
REMARK    5  A    between atoms: C_13  and  C_14
REMARK    6  A    between atoms: C_21  and  C_22
REMARK                            x       y       z     vdW  Elec       q    Type
REMARK                         _______ _______ _______ _____ _____    ______ ____
ROOT
ATOM      1  C   UNL     1       4.314   4.912  17.821  0.00  0.00    +0.000 C 
ATOM      2  C   UNL     1       4.229   3.587  17.538  0.00  0.00    +0.000 C 
ATOM      3  C   UNL     1       3.387   2.574  18.270  0.00  0.00    +0.000 C 
ATOM      4  N   UNL     1       4.899   3.071  16.422  0.00  0.00    +0.000 N 
ATOM      5  C   UNL     1       5.449   3.842  15.467  0.00  0.00    +0.000 A 
ATOM      6  N   UNL     1       5.908   3.549  14.275  0.00  0.00    +0.000 NA
ATOM      7  C   UNL     1       6.251   4.777  13.772  0.00  0.00    +0.000 A 
ATOM      8  N   UNL     1       6.028   5.820  14.580  0.00  0.00    +0.000 NA
ATOM      9  N   UNL     1       5.546   5.188  15.670  0.00  0.00    +0.000 N 
ATOM     10  C   UNL     1       5.132   5.854  16.909  0.00  0.00    +0.000 C 
ATOM     11  H   UNL     1       4.740   2.091  16.200  0.00  0.00    +0.000 HD
ENDROOT
BRANCH  10  12
ATOM     12  C   UNL     1       6.358   6.410  17.624  0.00  0.00    +0.000 A 
ATOM     13  C   UNL     1       6.814   7.706  17.333  0.00  0.00    +0.000 A 
ATOM     14  C   UNL     1       7.921   8.238  17.996  0.00  0.00    +0.000 A 
ATOM     15  C   UNL     1       8.584   7.481  18.960  0.00  0.00    +0.000 A 
ATOM     16  C   UNL     1       8.137   6.199  19.249  0.00  0.00    +0.000 A 
ATOM     17  F   UNL     1       8.775   5.470  20.176  0.00  0.00    +0.000 F 
ATOM     18  C   UNL     1       7.040   5.655  18.594  0.00  0.00    +0.000 A 
ENDBRANCH  10  12
BRANCH   1  20
ATOM     19  N   UNL     1       2.745   6.715  18.459  0.00  0.00    +0.000 N 
ATOM     20  C   UNL     1       3.572   5.690  18.867  0.00  0.00    +0.000 C 
ATOM     21  O   UNL     1       3.711   5.307  20.027  0.00  0.00    +0.000 OA
ATOM     22  H   UNL     1       2.597   6.884  17.470  0.00  0.00    +0.000 HD
BRANCH  19  28
ATOM     23  C   UNL     1       1.699   8.894  18.893  0.00  0.00    +0.000 A 
ATOM     24  C   UNL     1       0.944   9.739  19.726  0.00  0.00    +0.000 A 
ATOM     25  C   UNL     1       0.496   9.304  20.972  0.00  0.00    +0.000 A 
ATOM     26  C   UNL     1       0.802   8.023  21.401  0.00  0.00    +0.000 A 
ATOM     27  C   UNL     1       1.547   7.174  20.583  0.00  0.00    +0.000 A 
ATOM     28  C   UNL     1       1.996   7.578  19.318  0.00  0.00    +0.000 A 
BRANCH  23  30
ATOM     29  C   UNL     1       2.526  10.651  17.519  0.00  0.00    +0.000 C 
ATOM     30  O   UNL     1       2.177   9.271  17.656  0.00  0.00    +0.000 OA
ENDBRANCH  23  30
ENDBRANCH  19  28
ENDBRANCH   1  20
TORSDOF 4
ENDMDL
MODEL 7
REMARK VINA RESULT:      -7.8      4.781      7.590
REMARK  Name = 
REMARK  6 active torsions:
REMARK  status: ('A' for Active; 'I' for Inactive)
REMARK    1  A    between atoms: C_1  and  O_2
REMARK    2  A    between atoms: O_2  and  C_3
REMARK    3  A    between atoms: C_8  and  N_9
REMARK    4  A    between atoms: C_10  and  C_12
REMARK    5  A    between atoms: C_13  and  C_14
REMARK    6  A    between atoms: C_21  and  C_22
REMARK                            x       y       z     vdW  Elec       q    Type
REMARK                         _______ _______ _______ _____ _____    ______ ____
ROOT
ATOM      1  C   UNL     1      -0.545  12.605  19.432  0.00  0.00    +0.000 C 
ATOM      2  C   UNL     1      -1.760  13.048  19.845  0.00  0.00    +0.000 C 
ATOM      3  C   UNL     1      -2.027  14.310  20.625  0.00  0.00    +0.000 C 
ATOM      4  N   UNL     1      -2.917  12.354  19.472  0.00  0.00    +0.000 N 
ATOM      5  C   UNL     1      -2.932  11.391  18.533  0.00  0.00    +0.000 A 
ATOM      6  N   UNL     1      -3.923  10.802  17.911  0.00  0.00    +0.000 NA
ATOM      7  C   UNL     1      -3.279   9.980  17.022  0.00  0.00    +0.000 A 
ATOM      8  N   UNL     1      -1.941  10.026  17.051  0.00  0.00    +0.000 NA
ATOM      9  N   UNL     1      -1.748  10.912  18.050  0.00  0.00    +0.000 N 
ATOM     10  C   UNL     1      -0.436  11.350  18.538  0.00  0.00    +0.000 C 
ATOM     11  H   UNL     1      -3.809  12.767  19.732  0.00  0.00    +0.000 HD
ENDROOT
BRANCH  10  12
ATOM     12  C   UNL     1       0.249  10.197  19.262  0.00  0.00    +0.000 A 
ATOM     13  C   UNL     1      -0.154   9.843  20.561  0.00  0.00    +0.000 A 
ATOM     14  C   UNL     1       0.448   8.774  21.227  0.00  0.00    +0.000 A 
ATOM     15  C   UNL     1       1.458   8.045  20.603  0.00  0.00    +0.000 A 
ATOM     16  C   UNL     1       1.861   8.393  19.321  0.00  0.00    +0.000 A 
ATOM     17  F   UNL     1       2.833   7.693  18.720  0.00  0.00    +0.000 F 
ATOM     18  C   UNL     1       1.274   9.457  18.647  0.00  0.00    +0.000 A 
ENDBRANCH  10  12
BRANCH   1  20
ATOM     19  N   UNL     1       1.269  14.041  18.557  0.00  0.00    +0.000 N 
ATOM     20  C   UNL     1       0.791  13.266  19.592  0.00  0.00    +0.000 C 
ATOM     21  O   UNL     1       1.342  13.117  20.682  0.00  0.00    +0.000 OA
ATOM     22  H   UNL     1       0.692  14.208  17.740  0.00  0.00    +0.000 HD
BRANCH  19  28
ATOM     23  C   UNL     1       2.606  16.075  18.884  0.00  0.00    +0.000 A 
ATOM     24  C   UNL     1       3.851  16.729  18.875  0.00  0.00    +0.000 A 
ATOM     25  C   UNL     1       5.013  16.056  18.503  0.00  0.00    +0.000 A 
ATOM     26  C   UNL     1       4.943  14.723  18.132  0.00  0.00    +0.000 A 
ATOM     27  C   UNL     1       3.715  14.062  18.140  0.00  0.00    +0.000 A 
ATOM     28  C   UNL     1       2.533  14.709  18.526  0.00  0.00    +0.000 A 
BRANCH  23  30
ATOM     29  C   UNL     1       1.006  17.762  18.381  0.00  0.00    +0.000 C 
ATOM     30  O   UNL     1       1.423  16.691  19.232  0.00  0.00    +0.000 OA
ENDBRANCH  23  30
ENDBRANCH  19  28
ENDBRANCH   1  20
TORSDOF 4
ENDMDL
MODEL 8
REMARK VINA RESULT:      -7.8      2.549      4.381
REMARK  Name = 
REMARK  6 active torsions:
REMARK  status: ('A' for Active; 'I' for Inactive)
REMARK    1  A    between atoms: C_1  and  O_2
REMARK    2  A    between atoms: O_2  and  C_3
REMARK    3  A    between atoms: C_8  and  N_9
REMARK    4  A    between atoms: C_10  and  C_12
REMARK    5  A    between atoms: C_13  and  C_14
REMARK    6  A    between atoms: C_21  and  C_22
REMARK                            x       y       z     vdW  Elec       q    Type
REMARK                         _______ _______ _______ _____ _____    ______ ____
ROOT
ATOM      1  C   UNL     1       2.724   6.084  18.984  0.00  0.00    +0.000 C 
ATOM      2  C   UNL     1       2.142   5.417  20.013  0.00  0.00    +0.000 C 
ATOM      3  C   UNL     1       1.178   5.997  21.015  0.00  0.00    +0.000 C 
ATOM      4  N   UNL     1       2.355   4.041  20.158  0.00  0.00    +0.000 N 
ATOM      5  C   UNL     1       2.924   3.276  19.209  0.00  0.00    +0.000 A 
ATOM      6  N   UNL     1       3.003   1.975  19.077  0.00  0.00    +0.000 NA
ATOM      7  C   UNL     1       3.629   1.830  17.865  0.00  0.00    +0.000 A 
ATOM      8  N   UNL     1       3.940   2.967  17.232  0.00  0.00    +0.000 NA
ATOM      9  N   UNL     1       3.508   3.875  18.130  0.00  0.00    +0.000 N 
ATOM     10  C   UNL     1       3.605   5.329  17.964  0.00  0.00    +0.000 C 
ATOM     11  H   UNL     1       1.834   3.567  20.891  0.00  0.00    +0.000 HD
ENDROOT
BRANCH  10  12
ATOM     12  C   UNL     1       5.066   5.756  18.052  0.00  0.00    +0.000 A 
ATOM     13  C   UNL     1       5.638   6.523  17.024  0.00  0.00    +0.000 A 
ATOM     14  C   UNL     1       6.967   6.942  17.103  0.00  0.00    +0.000 A 
ATOM     15  C   UNL     1       7.740   6.599  18.211  0.00  0.00    +0.000 A 
ATOM     16  C   UNL     1       7.179   5.839  19.228  0.00  0.00    +0.000 A 
ATOM     17  F   UNL     1       7.921   5.509  20.293  0.00  0.00    +0.000 F 
ATOM     18  C   UNL     1       5.859   5.413  19.161  0.00  0.00    +0.000 A 
ENDBRANCH  10  12
BRANCH   1  20
ATOM     19  N   UNL     1       1.837   8.353  19.411  0.00  0.00    +0.000 N 
ATOM     20  C   UNL     1       2.519   7.509  18.562  0.00  0.00    +0.000 C 
ATOM     21  O   UNL     1       3.041   7.840  17.498  0.00  0.00    +0.000 OA
ATOM     22  H   UNL     1       1.545   8.025  20.326  0.00  0.00    +0.000 HD
BRANCH  19  28
ATOM     23  C   UNL     1       0.402  10.310  19.792  0.00  0.00    +0.000 A 
ATOM     24  C   UNL     1       0.101  11.664  19.558  0.00  0.00    +0.000 A 
ATOM     25  C   UNL     1       0.878  12.433  18.693  0.00  0.00    +0.000 A 
ATOM     26  C   UNL     1       1.962  11.857  18.050  0.00  0.00    +0.000 A 
ATOM     27  C   UNL     1       2.273  10.516  18.277  0.00  0.00    +0.000 A 
ATOM     28  C   UNL     1       1.520   9.723  19.154  0.00  0.00    +0.000 A 
BRANCH  23  30
ATOM     29  C   UNL     1      -0.208   9.765  22.025  0.00  0.00    +0.000 C 
ATOM     30  O   UNL     1      -0.335   9.498  20.626  0.00  0.00    +0.000 OA
ENDBRANCH  23  30
ENDBRANCH  19  28
ENDBRANCH   1  20
TORSDOF 4
ENDMDL
MODEL 9
REMARK VINA RESULT:      -7.7      3.210      5.432
REMARK  Name = 
REMARK  6 active torsions:
REMARK  status: ('A' for Active; 'I' for Inactive)
REMARK    1  A    between atoms: C_1  and  O_2
REMARK    2  A    between atoms: O_2  and  C_3
REMARK    3  A    between atoms: C_8  and  N_9
REMARK    4  A    between atoms: C_10  and  C_12
REMARK    5  A    between atoms: C_13  and  C_14
REMARK    6  A    between atoms: C_21  and  C_22
REMARK                            x       y       z     vdW  Elec       q    Type
REMARK                         _______ _______ _______ _____ _____    ______ ____
ROOT
ATOM      1  C   UNL     1       4.213   5.723  16.935  0.00  0.00    +0.000 C 
ATOM      2  C   UNL     1       3.898   4.407  16.823  0.00  0.00    +0.000 C 
ATOM      3  C   UNL     1       2.670   3.736  17.382  0.00  0.00    +0.000 C 
ATOM      4  N   UNL     1       4.710   3.561  16.059  0.00  0.00    +0.000 N 
ATOM      5  C   UNL     1       5.672   4.008  15.230  0.00  0.00    +0.000 A 
ATOM      6  N   UNL     1       6.363   3.401  14.297  0.00  0.00    +0.000 NA
ATOM      7  C   UNL     1       7.114   4.418  13.766  0.00  0.00    +0.000 A 
ATOM      8  N   UNL     1       6.928   5.626  14.312  0.00  0.00    +0.000 NA
ATOM      9  N   UNL     1       6.025   5.326  15.268  0.00  0.00    +0.000 N 
ATOM     10  C   UNL     1       5.451   6.293  16.210  0.00  0.00    +0.000 C 
ATOM     11  H   UNL     1       4.393   2.604  15.933  0.00  0.00    +0.000 HD
ENDROOT
BRANCH  10  12
ATOM     12  C   UNL     1       6.524   6.746  17.192  0.00  0.00    +0.000 A 
ATOM     13  C   UNL     1       6.998   5.861  18.174  0.00  0.00    +0.000 A 
ATOM     14  C   UNL     1       7.999   6.254  19.065  0.00  0.00    +0.000 A 
ATOM     15  C   UNL     1       8.538   7.536  18.985  0.00  0.00    +0.000 A 
ATOM     16  C   UNL     1       8.071   8.415  18.017  0.00  0.00    +0.000 A 
ATOM     17  F   UNL     1       8.589   9.648  17.939  0.00  0.00    +0.000 F 
ATOM     18  C   UNL     1       7.073   8.039  17.127  0.00  0.00    +0.000 A 
ENDBRANCH  10  12
BRANCH   1  20
ATOM     19  N   UNL     1       2.883   6.600  18.828  0.00  0.00    +0.000 N 
ATOM     20  C   UNL     1       3.415   6.820  17.575  0.00  0.00    +0.000 C 
ATOM     21  O   UNL     1       3.349   7.877  16.951  0.00  0.00    +0.000 OA
ATOM     22  H   UNL     1       3.090   5.739  19.323  0.00  0.00    +0.000 HD
BRANCH  19  28
ATOM     23  C   UNL     1       1.535   7.122  20.813  0.00  0.00    +0.000 A 
ATOM     24  C   UNL     1       0.753   8.029  21.551  0.00  0.00    +0.000 A 
ATOM     25  C   UNL     1       0.484   9.306  21.064  0.00  0.00    +0.000 A 
ATOM     26  C   UNL     1       0.989   9.690  19.832  0.00  0.00    +0.000 A 
ATOM     27  C   UNL     1       1.769   8.801  19.093  0.00  0.00    +0.000 A 
ATOM     28  C   UNL     1       2.070   7.516  19.565  0.00  0.00    +0.000 A 
BRANCH  23  30
ATOM     29  C   UNL     1       1.105   4.793  20.589  0.00  0.00    +0.000 C 
ATOM     30  O   UNL     1       1.825   5.843  21.239  0.00  0.00    +0.000 OA
ENDBRANCH  23  30
ENDBRANCH  19  28
ENDBRANCH   1  20
TORSDOF 4
ENDMDL
