MODEL 1
REMARK VINA RESULT:      -7.9      0.000      0.000
REMARK  Name = 
REMARK  2 active torsions:
REMARK  status: ('A' for Active; 'I' for Inactive)
REMARK    1  A    between atoms: C_2  and  C_3
REMARK    2  A    between atoms: C_18  and  C_19
REMARK                            x       y       z     vdW  Elec       q    Type
REMARK                         _______ _______ _______ _____ _____    ______ ____
ROOT
ATOM      1  O   UNL     1      -1.113  10.868  23.358  0.00  0.00    +0.000 OA
ATOM      2  C   UNL     1      -1.399  11.776  22.577  0.00  0.00    +0.000 C 
ATOM      3  N   UNL     1      -0.687  11.995  21.396  0.00  0.00    +0.000 N 
ATOM      4  C   UNL     1      -1.057  12.893  20.300  0.00  0.00    +0.000 C 
ATOM      5  C   UNL     1      -1.593  12.080  19.116  0.00  0.00    +0.000 C 
ATOM      6  C   UNL     1      -0.598  10.992  18.682  0.00  0.00    +0.000 C 
ATOM      7  C   UNL     1      -0.148  10.125  19.874  0.00  0.00    +0.000 C 
ATOM      8  C   UNL     1       0.344  11.021  21.024  0.00  0.00    +0.000 C 
ENDROOT
BRANCH   2   9
ATOM      9  C   UNL     1      -2.613  12.643  22.947  0.00  0.00    +0.000 A 
ATOM     10  N   UNL     1      -3.792  12.156  22.676  0.00  0.00    +0.000 NA
ATOM     11  N   UNL     1      -4.892  12.874  23.027  0.00  0.00    +0.000 N 
ATOM     12  C   UNL     1      -4.901  14.039  23.745  0.00  0.00    +0.000 A 
ATOM     13  O   UNL     1      -5.939  14.623  24.039  0.00  0.00    +0.000 OA
ATOM     14  C   UNL     1      -3.585  14.566  24.141  0.00  0.00    +0.000 A 
ATOM     15  C   UNL     1      -3.510  15.696  24.968  0.00  0.00    +0.000 A 
ATOM     16  C   UNL     1      -2.269  16.200  25.342  0.00  0.00    +0.000 A 
ATOM     17  C   UNL     1      -1.108  15.604  24.852  0.00  0.00    +0.000 A 
ATOM     18  C   UNL     1      -1.186  14.480  24.017  0.00  0.00    +0.000 A 
ATOM     19  C   UNL     1      -2.429  13.925  23.688  0.00  0.00    +0.000 A 
ATOM     20  H   UNL     1      -5.793  12.490  22.760  0.00  0.00    +0.000 HD
ENDBRANCH   2   9
BRANCH   7  21
ATOM     21  C   UNL     1       0.934   9.155  19.472  0.00  0.00    +0.000 A 
ATOM     22  N   UNL     1       1.290   8.102  20.178  0.00  0.00    +0.000 NA
ATOM     23  C   UNL     1       2.277   7.391  19.507  0.00  0.00    +0.000 A 
ATOM     24  C   UNL     1       2.895   6.204  19.954  0.00  0.00    +0.000 A 
ATOM     25  C   UNL     1       3.868   5.583  19.163  0.00  0.00    +0.000 A 
ATOM     26  C   UNL     1       4.233   6.130  17.937  0.00  0.00    +0.000 A 
ATOM     27  C   UNL     1       3.643   7.311  17.476  0.00  0.00    +0.000 A 
ATOM     28  C   UNL     1       2.666   7.925  18.277  0.00  0.00    +0.000 A 
ATOM     29  S   UNL     1       1.767   9.363  17.984  0.00  0.00    +0.000 S 
ENDBRANCH   7  21
TORSDOF 2
ENDMDL
MODEL 2
REMARK VINA RESULT:      -7.5      0.756      1.173
REMARK  Name = 
REMARK  2 active torsions:
REMARK  status: ('A' for Active; 'I' for Inactive)
REMARK    1  A    between atoms: C_2  and  C_3
REMARK    2  A    between atoms: C_18  and  C_19
REMARK                            x       y       z     vdW  Elec       q    Type
REMARK                         _______ _______ _______ _____ _____    ______ ____
ROOT
ATOM      1  O   UNL     1      -1.282  10.908  23.461  0.00  0.00    +0.000 OA
ATOM      2  C   UNL     1      -1.506  11.818  22.661  0.00  0.00    +0.000 C 
ATOM      3  N   UNL     1      -0.758  11.984  21.494  0.00  0.00    +0.000 N 
ATOM      4  C   UNL     1      -1.058  12.884  20.378  0.00  0.00    +0.000 C 
ATOM      5  C   UNL     1      -1.608  12.082  19.193  0.00  0.00    +0.000 C 
ATOM      6  C   UNL     1      -0.660  10.940  18.796  0.00  0.00    +0.000 C 
ATOM      7  C   UNL     1      -0.280  10.068  20.010  0.00  0.00    +0.000 C 
ATOM      8  C   UNL     1       0.231  10.954  21.159  0.00  0.00    +0.000 C 
ENDROOT
BRANCH   2   9
ATOM      9  C   UNL     1      -2.683  12.749  22.992  0.00  0.00    +0.000 A 
ATOM     10  N   UNL     1      -3.877  12.326  22.685  0.00  0.00    +0.000 NA
ATOM     11  N   UNL     1      -4.947  13.103  23.001  0.00  0.00    +0.000 N 
ATOM     12  C   UNL     1      -4.916  14.268  23.718  0.00  0.00    +0.000 A 
ATOM     13  O   UNL     1      -5.930  14.907  23.978  0.00  0.00    +0.000 OA
ATOM     14  C   UNL     1      -3.587  14.724  24.155  0.00  0.00    +0.000 A 
ATOM     15  C   UNL     1      -3.478  15.851  24.983  0.00  0.00    +0.000 A 
ATOM     16  C   UNL     1      -2.223  16.288  25.395  0.00  0.00    +0.000 A 
ATOM     17  C   UNL     1      -1.081  15.630  24.942  0.00  0.00    +0.000 A 
ATOM     18  C   UNL     1      -1.193  14.510  24.107  0.00  0.00    +0.000 A 
ATOM     19  C   UNL     1      -2.453  14.021  23.738  0.00  0.00    +0.000 A 
ATOM     20  H   UNL     1      -5.858  12.767  22.705  0.00  0.00    +0.000 HD
ENDBRANCH   2   9
BRANCH   7  21
ATOM     21  C   UNL     1       0.760   9.039  19.644  0.00  0.00    +0.000 A 
ATOM     22  N   UNL     1       1.453   9.047  18.525  0.00  0.00    +0.000 NA
ATOM     23  C   UNL     1       2.360   7.994  18.519  0.00  0.00    +0.000 A 
ATOM     24  C   UNL     1       3.274   7.692  17.490  0.00  0.00    +0.000 A 
ATOM     25  C   UNL     1       4.145   6.605  17.626  0.00  0.00    +0.000 A 
ATOM     26  C   UNL     1       4.113   5.817  18.773  0.00  0.00    +0.000 A 
ATOM     27  C   UNL     1       3.210   6.091  19.805  0.00  0.00    +0.000 A 
ATOM     28  C   UNL     1       2.342   7.186  19.657  0.00  0.00    +0.000 A 
ATOM     29  S   UNL     1       1.138   7.771  20.739  0.00  0.00    +0.000 S 
ENDBRANCH   7  21
TORSDOF 2
ENDMDL
MODEL 3
REMARK VINA RESULT:      -7.4      3.245     10.000
REMARK  Name = 
REMARK  2 active torsions:
REMARK  status: ('A' for Active; 'I' for Inactive)
REMARK    1  A    between atoms: C_2  and  C_3
REMARK    2  A    between atoms: C_18  and  C_19
REMARK                            x       y       z     vdW  Elec       q    Type
REMARK                         _______ _______ _______ _____ _____    ______ ____
ROOT
ATOM      1  O   UNL     1       1.787   7.236  20.526  0.00  0.00    +0.000 OA
ATOM      2  C   UNL     1       1.917   7.623  19.364  0.00  0.00    +0.000 C 
ATOM      3  N   UNL     1       1.207   8.714  18.860  0.00  0.00    +0.000 N 
ATOM      4  C   UNL     1       1.428   9.391  17.580  0.00  0.00    +0.000 C 
ATOM      5  C   UNL     1       2.139  10.730  17.812  0.00  0.00    +0.000 C 
ATOM      6  C   UNL     1       1.379  11.603  18.823  0.00  0.00    +0.000 C 
ATOM      7  C   UNL     1       1.071  10.833  20.122  0.00  0.00    +0.000 C 
ATOM      8  C   UNL     1       0.388   9.494  19.794  0.00  0.00    +0.000 C 
ENDROOT
BRANCH   2   9
ATOM      9  C   UNL     1       2.935   6.866  18.498  0.00  0.00    +0.000 A 
ATOM     10  N   UNL     1       4.029   7.500  18.179  0.00  0.00    +0.000 NA
ATOM     11  N   UNL     1       4.973   6.849  17.450  0.00  0.00    +0.000 N 
ATOM     12  C   UNL     1       4.946   5.529  17.087  0.00  0.00    +0.000 A 
ATOM     13  O   UNL     1       5.848   5.007  16.439  0.00  0.00    +0.000 OA
ATOM     14  C   UNL     1       3.762   4.765  17.510  0.00  0.00    +0.000 A 
ATOM     15  C   UNL     1       3.705   3.385  17.272  0.00  0.00    +0.000 A 
ATOM     16  C   UNL     1       2.586   2.659  17.666  0.00  0.00    +0.000 A 
ATOM     17  C   UNL     1       1.509   3.321  18.254  0.00  0.00    +0.000 A 
ATOM     18  C   UNL     1       1.565   4.702  18.482  0.00  0.00    +0.000 A 
ATOM     19  C   UNL     1       2.712   5.432  18.149  0.00  0.00    +0.000 A 
ATOM     20  H   UNL     1       5.791   7.385  17.178  0.00  0.00    +0.000 HD
ENDBRANCH   2   9
BRANCH   7  21
ATOM     21  C   UNL     1       0.203  11.645  21.050  0.00  0.00    +0.000 A 
ATOM     22  N   UNL     1      -0.892  11.196  21.628  0.00  0.00    +0.000 NA
ATOM     23  C   UNL     1      -1.428  12.174  22.457  0.00  0.00    +0.000 A 
ATOM     24  C   UNL     1      -2.592  12.049  23.243  0.00  0.00    +0.000 A 
ATOM     25  C   UNL     1      -3.008  13.116  24.049  0.00  0.00    +0.000 A 
ATOM     26  C   UNL     1      -2.280  14.301  24.078  0.00  0.00    +0.000 A 
ATOM     27  C   UNL     1      -1.128  14.453  23.301  0.00  0.00    +0.000 A 
ATOM     28  C   UNL     1      -0.718  13.376  22.498  0.00  0.00    +0.000 A 
ATOM     29  S   UNL     1       0.641  13.257  21.449  0.00  0.00    +0.000 S 
ENDBRANCH   7  21
TORSDOF 2
ENDMDL
MODEL 4
REMARK VINA RESULT:      -7.4      3.274     10.037
REMARK  Name = 
REMARK  2 active torsions:
REMARK  status: ('A' for Active; 'I' for Inactive)
REMARK    1  A    between atoms: C_2  and  C_3
REMARK    2  A    between atoms: C_18  and  C_19
REMARK                            x       y       z     vdW  Elec       q    Type
REMARK                         _______ _______ _______ _____ _____    ______ ____
ROOT
ATOM      1  O   UNL     1       1.847   7.199  20.686  0.00  0.00    +0.000 OA
ATOM      2  C   UNL     1       1.918   7.549  19.507  0.00  0.00    +0.000 C 
ATOM      3  N   UNL     1       1.216   8.651  19.014  0.00  0.00    +0.000 N 
ATOM      4  C   UNL     1       1.380   9.284  17.704  0.00  0.00    +0.000 C 
ATOM      5  C   UNL     1       2.150  10.602  17.852  0.00  0.00    +0.000 C 
ATOM      6  C   UNL     1       1.484  11.530  18.880  0.00  0.00    +0.000 C 
ATOM      7  C   UNL     1       1.231  10.808  20.219  0.00  0.00    +0.000 C 
ATOM      8  C   UNL     1       0.484   9.485  19.973  0.00  0.00    +0.000 C 
ENDROOT
BRANCH   2   9
ATOM      9  C   UNL     1       2.854   6.732  18.603  0.00  0.00    +0.000 A 
ATOM     10  N   UNL     1       3.945   7.319  18.196  0.00  0.00    +0.000 NA
ATOM     11  N   UNL     1       4.819   6.614  17.430  0.00  0.00    +0.000 N 
ATOM     12  C   UNL     1       4.727   5.286  17.113  0.00  0.00    +0.000 A 
ATOM     13  O   UNL     1       5.568   4.714  16.427  0.00  0.00    +0.000 OA
ATOM     14  C   UNL     1       3.548   4.576  17.634  0.00  0.00    +0.000 A 
ATOM     15  C   UNL     1       3.432   3.191  17.444  0.00  0.00    +0.000 A 
ATOM     16  C   UNL     1       2.318   2.517  17.931  0.00  0.00    +0.000 A 
ATOM     17  C   UNL     1       1.302   3.232  18.564  0.00  0.00    +0.000 A 
ATOM     18  C   UNL     1       1.416   4.617  18.744  0.00  0.00    +0.000 A 
ATOM     19  C   UNL     1       2.563   5.296  18.315  0.00  0.00    +0.000 A 
ATOM     20  H   UNL     1       5.635   7.114  17.090  0.00  0.00    +0.000 HD
ENDBRANCH   2   9
BRANCH   7  21
ATOM     21  C   UNL     1       0.450  11.676  21.173  0.00  0.00    +0.000 A 
ATOM     22  N   UNL     1       0.678  12.958  21.370  0.00  0.00    +0.000 NA
ATOM     23  C   UNL     1      -0.245  13.473  22.271  0.00  0.00    +0.000 A 
ATOM     24  C   UNL     1      -0.316  14.809  22.715  0.00  0.00    +0.000 A 
ATOM     25  C   UNL     1      -1.315  15.193  23.617  0.00  0.00    +0.000 A 
ATOM     26  C   UNL     1      -2.239  14.263  24.081  0.00  0.00    +0.000 A 
ATOM     27  C   UNL     1      -2.185  12.930  23.664  0.00  0.00    +0.000 A 
ATOM     28  C   UNL     1      -1.180  12.556  22.756  0.00  0.00    +0.000 A 
ATOM     29  S   UNL     1      -0.862  11.013  22.063  0.00  0.00    +0.000 S 
ENDBRANCH   7  21
TORSDOF 2
ENDMDL
MODEL 5
REMARK VINA RESULT:      -7.3      3.107      9.638
REMARK  Name = 
REMARK  2 active torsions:
REMARK  status: ('A' for Active; 'I' for Inactive)
REMARK    1  A    between atoms: C_2  and  C_3
REMARK    2  A    between atoms: C_18  and  C_19
REMARK                            x       y       z     vdW  Elec       q    Type
REMARK                         _______ _______ _______ _____ _____    ______ ____
ROOT
ATOM      1  O   UNL     1       1.709   7.805  21.354  0.00  0.00    +0.000 OA
ATOM      2  C   UNL     1       1.678   7.916  20.128  0.00  0.00    +0.000 C 
ATOM      3  N   UNL     1       1.025   8.974  19.492  0.00  0.00    +0.000 N 
ATOM      4  C   UNL     1       1.097   9.326  18.072  0.00  0.00    +0.000 C 
ATOM      5  C   UNL     1       1.992  10.556  17.883  0.00  0.00    +0.000 C 
ATOM      6  C   UNL     1       1.530  11.729  18.762  0.00  0.00    +0.000 C 
ATOM      7  C   UNL     1       1.365  11.305  20.236  0.00  0.00    +0.000 C 
ATOM      8  C   UNL     1       0.482  10.049  20.329  0.00  0.00    +0.000 C 
ENDROOT
BRANCH   2   9
ATOM      9  C   UNL     1       2.431   6.846  19.322  0.00  0.00    +0.000 A 
ATOM     10  N   UNL     1       3.351   7.264  18.499  0.00  0.00    +0.000 NA
ATOM     11  N   UNL     1       4.069   6.345  17.800  0.00  0.00    +0.000 N 
ATOM     12  C   UNL     1       4.000   4.985  17.945  0.00  0.00    +0.000 A 
ATOM     13  O   UNL     1       4.695   4.218  17.287  0.00  0.00    +0.000 OA
ATOM     14  C   UNL     1       3.030   4.488  18.934  0.00  0.00    +0.000 A 
ATOM     15  C   UNL     1       2.972   3.116  19.219  0.00  0.00    +0.000 A 
ATOM     16  C   UNL     1       2.054   2.641  20.150  0.00  0.00    +0.000 A 
ATOM     17  C   UNL     1       1.167   3.528  20.757  0.00  0.00    +0.000 A 
ATOM     18  C   UNL     1       1.222   4.898  20.463  0.00  0.00    +0.000 A 
ATOM     19  C   UNL     1       2.184   5.396  19.577  0.00  0.00    +0.000 A 
ATOM     20  H   UNL     1       4.744   6.703  17.132  0.00  0.00    +0.000 HD
ENDBRANCH   2   9
BRANCH   7  21
ATOM     21  C   UNL     1       0.776  12.418  21.066  0.00  0.00    +0.000 A 
ATOM     22  N   UNL     1      -0.213  12.264  21.922  0.00  0.00    +0.000 NA
ATOM     23  C   UNL     1      -0.484  13.469  22.557  0.00  0.00    +0.000 A 
ATOM     24  C   UNL     1      -1.470  13.686  23.541  0.00  0.00    +0.000 A 
ATOM     25  C   UNL     1      -1.621  14.955  24.111  0.00  0.00    +0.000 A 
ATOM     26  C   UNL     1      -0.806  16.008  23.709  0.00  0.00    +0.000 A 
ATOM     27  C   UNL     1       0.174  15.822  22.729  0.00  0.00    +0.000 A 
ATOM     28  C   UNL     1       0.319  14.543  22.166  0.00  0.00    +0.000 A 
ATOM     29  S   UNL     1       1.421  14.006  20.959  0.00  0.00    +0.000 S 
ENDBRANCH   7  21
TORSDOF 2
ENDMDL
MODEL 6
REMARK VINA RESULT:      -7.2      2.843      9.486
REMARK  Name = 
REMARK  2 active torsions:
REMARK  status: ('A' for Active; 'I' for Inactive)
REMARK    1  A    between atoms: C_2  and  C_3
REMARK    2  A    between atoms: C_18  and  C_19
REMARK                            x       y       z     vdW  Elec       q    Type
REMARK                         _______ _______ _______ _____ _____    ______ ____
ROOT
ATOM      1  O   UNL     1       1.517   8.570  21.876  0.00  0.00    +0.000 OA
ATOM      2  C   UNL     1       1.127   8.667  20.712  0.00  0.00    +0.000 C 
ATOM      3  N   UNL     1       0.041   9.470  20.355  0.00  0.00    +0.000 N 
ATOM      4  C   UNL     1      -0.379   9.828  18.999  0.00  0.00    +0.000 C 
ATOM      5  C   UNL     1       0.019  11.277  18.694  0.00  0.00    +0.000 C 
ATOM      6  C   UNL     1      -0.520  12.246  19.758  0.00  0.00    +0.000 C 
ATOM      7  C   UNL     1      -0.148  11.790  21.183  0.00  0.00    +0.000 C 
ATOM      8  C   UNL     1      -0.555  10.320  21.391  0.00  0.00    +0.000 C 
ENDROOT
BRANCH   2   9
ATOM      9  C   UNL     1       1.922   7.887  19.654  0.00  0.00    +0.000 A 
ATOM     10  N   UNL     1       2.447   8.577  18.680  0.00  0.00    +0.000 NA
ATOM     11  N   UNL     1       3.193   7.928  17.748  0.00  0.00    +0.000 N 
ATOM     12  C   UNL     1       3.549   6.606  17.775  0.00  0.00    +0.000 A 
ATOM     13  O   UNL     1       4.242   6.094  16.901  0.00  0.00    +0.000 OA
ATOM     14  C   UNL     1       3.042   5.822  18.912  0.00  0.00    +0.000 A 
ATOM     15  C   UNL     1       3.447   4.489  19.071  0.00  0.00    +0.000 A 
ATOM     16  C   UNL     1       2.968   3.743  20.142  0.00  0.00    +0.000 A 
ATOM     17  C   UNL     1       2.050   4.313  21.023  0.00  0.00    +0.000 A 
ATOM     18  C   UNL     1       1.640   5.643  20.856  0.00  0.00    +0.000 A 
ATOM     19  C   UNL     1       2.166   6.424  19.820  0.00  0.00    +0.000 A 
ATOM     20  H   UNL     1       3.548   8.485  16.977  0.00  0.00    +0.000 HD
ENDBRANCH   2   9
BRANCH   7  21
ATOM     21  C   UNL     1      -0.799  12.662  22.227  0.00  0.00    +0.000 A 
ATOM     22  N   UNL     1      -0.231  13.714  22.778  0.00  0.00    +0.000 NA
ATOM     23  C   UNL     1      -1.113  14.324  23.662  0.00  0.00    +0.000 A 
ATOM     24  C   UNL     1      -0.855  15.479  24.427  0.00  0.00    +0.000 A 
ATOM     25  C   UNL     1      -1.848  15.996  25.267  0.00  0.00    +0.000 A 
ATOM     26  C   UNL     1      -3.089  15.374  25.355  0.00  0.00    +0.000 A 
ATOM     27  C   UNL     1      -3.367  14.221  24.614  0.00  0.00    +0.000 A 
ATOM     28  C   UNL     1      -2.364  13.713  23.772  0.00  0.00    +0.000 A 
ATOM     29  S   UNL     1      -2.404  12.333  22.744  0.00  0.00    +0.000 S 
ENDBRANCH   7  21
TORSDOF 2
ENDMDL
MODEL 7
REMARK VINA RESULT:      -7.2      3.996      4.604
REMARK  Name = 
REMARK  2 active torsions:
REMARK  status: ('A' for Active; 'I' for Inactive)
REMARK    1  A    between atoms: C_2  and  C_3
REMARK    2  A    between atoms: C_18  and  C_19
REMARK                            x       y       z     vdW  Elec       q    Type
REMARK                         _______ _______ _______ _____ _____    ______ ____
ROOT
ATOM      1  O   UNL     1       2.166  11.592  18.026  0.00  0.00    +0.000 OA
ATOM      2  C   UNL     1       1.158  11.811  18.700  0.00  0.00    +0.000 C 
ATOM      3  N   UNL     1       0.359  10.782  19.200  0.00  0.00    +0.000 N 
ATOM      4  C   UNL     1      -0.727  10.906  20.175  0.00  0.00    +0.000 C 
ATOM      5  C   UNL     1      -0.262  10.395  21.544  0.00  0.00    +0.000 C 
ATOM      6  C   UNL     1       0.293   8.965  21.453  0.00  0.00    +0.000 C 
ATOM      7  C   UNL     1       1.363   8.839  20.349  0.00  0.00    +0.000 C 
ATOM      8  C   UNL     1       0.823   9.402  19.023  0.00  0.00    +0.000 C 
ENDROOT
BRANCH   2   9
ATOM      9  C   UNL     1       0.839  13.284  18.999  0.00  0.00    +0.000 A 
ATOM     10  N   UNL     1      -0.234  13.781  18.450  0.00  0.00    +0.000 NA
ATOM     11  N   UNL     1      -0.573  15.068  18.726  0.00  0.00    +0.000 N 
ATOM     12  C   UNL     1       0.051  15.894  19.622  0.00  0.00    +0.000 A 
ATOM     13  O   UNL     1      -0.326  17.043  19.829  0.00  0.00    +0.000 OA
ATOM     14  C   UNL     1       1.214  15.328  20.322  0.00  0.00    +0.000 A 
ATOM     15  C   UNL     1       1.845  16.070  21.332  0.00  0.00    +0.000 A 
ATOM     16  C   UNL     1       2.947  15.541  21.994  0.00  0.00    +0.000 A 
ATOM     17  C   UNL     1       3.446  14.296  21.615  0.00  0.00    +0.000 A 
ATOM     18  C   UNL     1       2.820  13.561  20.599  0.00  0.00    +0.000 A 
ATOM     19  C   UNL     1       1.670  14.054  19.971  0.00  0.00    +0.000 A 
ATOM     20  H   UNL     1      -1.387  15.439  18.246  0.00  0.00    +0.000 HD
ENDBRANCH   2   9
BRANCH   7  21
ATOM     21  C   UNL     1       1.799   7.407  20.167  0.00  0.00    +0.000 A 
ATOM     22  N   UNL     1       1.524   6.432  21.009  0.00  0.00    +0.000 NA
ATOM     23  C   UNL     1       2.026   5.230  20.526  0.00  0.00    +0.000 A 
ATOM     24  C   UNL     1       1.916   3.973  21.152  0.00  0.00    +0.000 A 
ATOM     25  C   UNL     1       2.458   2.837  20.540  0.00  0.00    +0.000 A 
ATOM     26  C   UNL     1       3.108   2.941  19.314  0.00  0.00    +0.000 A 
ATOM     27  C   UNL     1       3.239   4.178  18.676  0.00  0.00    +0.000 A 
ATOM     28  C   UNL     1       2.689   5.311  19.299  0.00  0.00    +0.000 A 
ATOM     29  S   UNL     1       2.683   6.948  18.768  0.00  0.00    +0.000 S 
ENDBRANCH   7  21
TORSDOF 2
ENDMDL
MODEL 8
REMARK VINA RESULT:      -7.2      1.718      2.658
REMARK  Name = 
REMARK  2 active torsions:
REMARK  status: ('A' for Active; 'I' for Inactive)
REMARK    1  A    between atoms: C_2  and  C_3
REMARK    2  A    between atoms: C_18  and  C_19
REMARK                            x       y       z     vdW  Elec       q    Type
REMARK                         _______ _______ _______ _____ _____    ______ ____
ROOT
ATOM      1  O   UNL     1      -2.496  11.172  23.494  0.00  0.00    +0.000 OA
ATOM      2  C   UNL     1      -2.338  12.303  23.033  0.00  0.00    +0.000 C 
ATOM      3  N   UNL     1      -1.252  12.631  22.220  0.00  0.00    +0.000 N 
ATOM      4  C   UNL     1      -1.070  13.864  21.451  0.00  0.00    +0.000 C 
ATOM      5  C   UNL     1      -1.330  13.597  19.964  0.00  0.00    +0.000 C 
ATOM      6  C   UNL     1      -0.466  12.437  19.441  0.00  0.00    +0.000 C 
ATOM      7  C   UNL     1      -0.600  11.183  20.328  0.00  0.00    +0.000 C 
ATOM      8  C   UNL     1      -0.354  11.549  21.802  0.00  0.00    +0.000 C 
ENDROOT
BRANCH   2   9
ATOM      9  C   UNL     1      -3.425  13.338  23.367  0.00  0.00    +0.000 A 
ATOM     10  N   UNL     1      -3.219  14.097  24.407  0.00  0.00    +0.000 NA
ATOM     11  N   UNL     1      -4.137  15.054  24.709  0.00  0.00    +0.000 N 
ATOM     12  C   UNL     1      -5.235  15.385  23.961  0.00  0.00    +0.000 A 
ATOM     13  O   UNL     1      -6.012  16.275  24.292  0.00  0.00    +0.000 OA
ATOM     14  C   UNL     1      -5.443  14.601  22.733  0.00  0.00    +0.000 A 
ATOM     15  C   UNL     1      -6.483  14.945  21.858  0.00  0.00    +0.000 A 
ATOM     16  C   UNL     1      -6.686  14.205  20.698  0.00  0.00    +0.000 A 
ATOM     17  C   UNL     1      -5.882  13.096  20.440  0.00  0.00    +0.000 A 
ATOM     18  C   UNL     1      -4.849  12.748  21.322  0.00  0.00    +0.000 A 
ATOM     19  C   UNL     1      -4.594  13.525  22.458  0.00  0.00    +0.000 A 
ATOM     20  H   UNL     1      -3.972  15.596  25.551  0.00  0.00    +0.000 HD
ENDBRANCH   2   9
BRANCH   7  21
ATOM     21  C   UNL     1       0.356  10.100  19.896  0.00  0.00    +0.000 A 
ATOM     22  N   UNL     1       0.622   9.019  20.599  0.00  0.00    +0.000 NA
ATOM     23  C   UNL     1       1.502   8.201  19.900  0.00  0.00    +0.000 A 
ATOM     24  C   UNL     1       2.003   6.957  20.335  0.00  0.00    +0.000 A 
ATOM     25  C   UNL     1       2.874   6.230  19.516  0.00  0.00    +0.000 A 
ATOM     26  C   UNL     1       3.250   6.728  18.272  0.00  0.00    +0.000 A 
ATOM     27  C   UNL     1       2.774   7.962  17.821  0.00  0.00    +0.000 A 
ATOM     28  C   UNL     1       1.899   8.683  18.651  0.00  0.00    +0.000 A 
ATOM     29  S   UNL     1       1.151  10.208  18.377  0.00  0.00    +0.000 S 
ENDBRANCH   7  21
TORSDOF 2
ENDMDL
MODEL 9
REMARK VINA RESULT:      -7.2      2.768      4.236
REMARK  Name = 
REMARK  2 active torsions:
REMARK  status: ('A' for Active; 'I' for Inactive)
REMARK    1  A    between atoms: C_2  and  C_3
REMARK    2  A    between atoms: C_18  and  C_19
REMARK                            x       y       z     vdW  Elec       q    Type
REMARK                         _______ _______ _______ _____ _____    ______ ____
ROOT
ATOM      1  O   UNL     1       1.357  11.722  18.570  0.00  0.00    +0.000 OA
ATOM      2  C   UNL     1       0.634  11.287  19.467  0.00  0.00    +0.000 C 
ATOM      3  N   UNL     1       0.355   9.926  19.606  0.00  0.00    +0.000 N 
ATOM      4  C   UNL     1      -0.306   9.275  20.739  0.00  0.00    +0.000 C 
ATOM      5  C   UNL     1       0.729   8.534  21.594  0.00  0.00    +0.000 C 
ATOM      6  C   UNL     1       1.560   7.556  20.749  0.00  0.00    +0.000 C 
ATOM      7  C   UNL     1       2.162   8.244  19.508  0.00  0.00    +0.000 C 
ATOM      8  C   UNL     1       1.062   8.987  18.729  0.00  0.00    +0.000 C 
ENDROOT
BRANCH   2   9
ATOM      9  C   UNL     1       0.079  12.320  20.462  0.00  0.00    +0.000 A 
ATOM     10  N   UNL     1       0.946  12.968  21.188  0.00  0.00    +0.000 NA
ATOM     11  N   UNL     1       0.497  13.919  22.048  0.00  0.00    +0.000 N 
ATOM     12  C   UNL     1      -0.795  14.356  22.167  0.00  0.00    +0.000 A 
ATOM     13  O   UNL     1      -1.122  15.235  22.958  0.00  0.00    +0.000 OA
ATOM     14  C   UNL     1      -1.783  13.702  21.294  0.00  0.00    +0.000 A 
ATOM     15  C   UNL     1      -3.107  14.163  21.277  0.00  0.00    +0.000 A 
ATOM     16  C   UNL     1      -4.045  13.545  20.456  0.00  0.00    +0.000 A 
ATOM     17  C   UNL     1      -3.670  12.442  19.692  0.00  0.00    +0.000 A 
ATOM     18  C   UNL     1      -2.348  11.977  19.718  0.00  0.00    +0.000 A 
ATOM     19  C   UNL     1      -1.380  12.631  20.490  0.00  0.00    +0.000 A 
ATOM     20  H   UNL     1       1.192  14.372  22.633  0.00  0.00    +0.000 HD
ENDBRANCH   2   9
BRANCH   7  21
ATOM     21  C   UNL     1       2.854   7.251  18.609  0.00  0.00    +0.000 A 
ATOM     22  N   UNL     1       3.698   7.576  17.651  0.00  0.00    +0.000 NA
ATOM     23  C   UNL     1       4.194   6.429  17.045  0.00  0.00    +0.000 A 
ATOM     24  C   UNL     1       5.126   6.385  15.987  0.00  0.00    +0.000 A 
ATOM     25  C   UNL     1       5.553   5.151  15.483  0.00  0.00    +0.000 A 
ATOM     26  C   UNL     1       5.061   3.965  16.018  0.00  0.00    +0.000 A 
ATOM     27  C   UNL     1       4.130   3.980  17.061  0.00  0.00    +0.000 A 
ATOM     28  C   UNL     1       3.710   5.224  17.560  0.00  0.00    +0.000 A 
ATOM     29  S   UNL     1       2.594   5.567  18.825  0.00  0.00    +0.000 S 
ENDBRANCH   7  21
TORSDOF 2
ENDMDL
