MODEL 1
REMARK VINA RESULT:      -9.1      0.000      0.000
REMARK  Name = 
REMARK  6 active torsions:
REMARK  status: ('A' for Active; 'I' for Inactive)
REMARK    1  A    between atoms: C_1  and  N_2
REMARK    2  A    between atoms: C_8  and  S_9
REMARK    3  A    between atoms: S_9  and  N_12
REMARK    4  A    between atoms: N_12  and  C_13
REMARK    5  A    between atoms: C_18  and  O_19
REMARK    6  A    between atoms: O_19  and  C_20
REMARK                            x       y       z     vdW  Elec       q    Type
REMARK                         _______ _______ _______ _____ _____    ______ ____
ROOT
ATOM      1  N   UNL     1       3.398   6.065  19.780  0.00  0.00    +0.000 N 
ATOM      2  H   UNL     1       3.199   6.602  20.625  0.00  0.00    +0.000 HD
ENDROOT
BRANCH   1   3
ATOM      3  C   UNL     1       2.963   4.699  19.875  0.00  0.00    +0.000 A 
ATOM      4  C   UNL     1       1.595   4.472  20.074  0.00  0.00    +0.000 A 
ATOM      5  C   UNL     1       1.100   3.171  20.154  0.00  0.00    +0.000 A 
ATOM      6  C   UNL     1       1.977   2.095  20.114  0.00  0.00    +0.000 A 
ATOM      7  C   UNL     1       3.346   2.318  19.970  0.00  0.00    +0.000 A 
ATOM      8  C   UNL     1       3.849   3.614  19.765  0.00  0.00    +0.000 A 
BRANCH   8   9
ATOM      9  O   UNL     1       5.178   3.855  19.453  0.00  0.00    +0.000 OA
BRANCH   9  10
ATOM     10  C   UNL     1       5.469   4.252  18.153  0.00  0.00    +0.000 A 
ATOM     11  C   UNL     1       4.690   3.827  17.068  0.00  0.00    +0.000 A 
ATOM     12  C   UNL     1       5.086   4.111  15.758  0.00  0.00    +0.000 A 
ATOM     13  C   UNL     1       6.221   4.883  15.521  0.00  0.00    +0.000 A 
ATOM     14  C   UNL     1       6.943   5.395  16.595  0.00  0.00    +0.000 A 
ATOM     15  C   UNL     1       6.561   5.090  17.906  0.00  0.00    +0.000 A 
ATOM     16 CL   UNL     1       7.487   5.783  19.170  0.00  0.00    +0.000 Cl
ENDBRANCH   9  10
ENDBRANCH   8   9
ENDBRANCH   1   3
BRANCH   1  17
ATOM     17  S   UNL     1       2.898   6.923  18.390  0.00  0.00    +0.000 S 
ATOM     18  O   UNL     1       2.032   6.114  17.565  0.00  0.00    +0.000 OA
ATOM     19  O   UNL     1       4.084   7.555  17.846  0.00  0.00    +0.000 OA
BRANCH  17  27
ATOM     20  C   UNL     1      -0.611  12.516  20.605  0.00  0.00    +0.000 C 
ATOM     21  N   UNL     1      -0.204  11.188  20.959  0.00  0.00    +0.000 N 
ATOM     22  C   UNL     1      -0.190  10.659  22.236  0.00  0.00    +0.000 A 
ATOM     23  O   UNL     1      -0.617  11.201  23.247  0.00  0.00    +0.000 OA
ATOM     24  O   UNL     1       0.408   9.389  22.247  0.00  0.00    +0.000 OA
ATOM     25  C   UNL     1       0.812   9.232  20.929  0.00  0.00    +0.000 A 
ATOM     26  C   UNL     1       1.568   8.184  20.448  0.00  0.00    +0.000 A 
ATOM     27  C   UNL     1       1.924   8.239  19.097  0.00  0.00    +0.000 A 
ATOM     28  C   UNL     1       1.490   9.297  18.260  0.00  0.00    +0.000 A 
ATOM     29  C   UNL     1       0.746  10.359  18.787  0.00  0.00    +0.000 A 
ATOM     30  C   UNL     1       0.438  10.297  20.129  0.00  0.00    +0.000 A 
ENDBRANCH  17  27
ENDBRANCH   1  17
TORSDOF 5
ENDMDL
MODEL 2
REMARK VINA RESULT:      -8.8      1.596      1.903
REMARK  Name = 
REMARK  6 active torsions:
REMARK  status: ('A' for Active; 'I' for Inactive)
REMARK    1  A    between atoms: C_1  and  N_2
REMARK    2  A    between atoms: C_8  and  S_9
REMARK    3  A    between atoms: S_9  and  N_12
REMARK    4  A    between atoms: N_12  and  C_13
REMARK    5  A    between atoms: C_18  and  O_19
REMARK    6  A    between atoms: O_19  and  C_20
REMARK                            x       y       z     vdW  Elec       q    Type
REMARK                         _______ _______ _______ _____ _____    ______ ____
ROOT
ATOM      1  N   UNL     1       1.929   5.710  17.833  0.00  0.00    +0.000 N 
ATOM      2  H   UNL     1       1.938   5.825  16.819  0.00  0.00    +0.000 HD
ENDROOT
BRANCH   1   3
ATOM      3  C   UNL     1       1.990   4.332  18.236  0.00  0.00    +0.000 A 
ATOM      4  C   UNL     1       1.142   3.928  19.276  0.00  0.00    +0.000 A 
ATOM      5  C   UNL     1       1.134   2.602  19.704  0.00  0.00    +0.000 A 
ATOM      6  C   UNL     1       2.026   1.692  19.151  0.00  0.00    +0.000 A 
ATOM      7  C   UNL     1       2.909   2.102  18.153  0.00  0.00    +0.000 A 
ATOM      8  C   UNL     1       2.847   3.403  17.624  0.00  0.00    +0.000 A 
BRANCH   8   9
ATOM      9  O   UNL     1       3.592   3.793  16.522  0.00  0.00    +0.000 OA
BRANCH   9  10
ATOM     10  C   UNL     1       4.938   4.071  16.724  0.00  0.00    +0.000 A 
ATOM     11  C   UNL     1       5.484   4.144  18.014  0.00  0.00    +0.000 A 
ATOM     12  C   UNL     1       6.800   4.573  18.203  0.00  0.00    +0.000 A 
ATOM     13  C   UNL     1       7.608   4.860  17.105  0.00  0.00    +0.000 A 
ATOM     14  C   UNL     1       7.106   4.690  15.818  0.00  0.00    +0.000 A 
ATOM     15  C   UNL     1       5.781   4.286  15.629  0.00  0.00    +0.000 A 
ATOM     16 CL   UNL     1       5.252   4.075  14.013  0.00  0.00    +0.000 Cl
ENDBRANCH   9  10
ENDBRANCH   8   9
ENDBRANCH   1   3
BRANCH   1  17
ATOM     17  S   UNL     1       3.053   6.765  18.569  0.00  0.00    +0.000 S 
ATOM     18  O   UNL     1       3.904   7.386  17.581  0.00  0.00    +0.000 OA
ATOM     19  O   UNL     1       3.608   6.053  19.703  0.00  0.00    +0.000 OA
BRANCH  17  27
ATOM     20  C   UNL     1      -0.821  12.142  20.709  0.00  0.00    +0.000 C 
ATOM     21  N   UNL     1      -0.346  10.839  21.071  0.00  0.00    +0.000 N 
ATOM     22  C   UNL     1      -0.331  10.308  22.347  0.00  0.00    +0.000 A 
ATOM     23  O   UNL     1      -0.811  10.823  23.349  0.00  0.00    +0.000 OA
ATOM     24  O   UNL     1       0.339   9.075  22.371  0.00  0.00    +0.000 OA
ATOM     25  C   UNL     1       0.780   8.944  21.062  0.00  0.00    +0.000 A 
ATOM     26  C   UNL     1       1.606   7.943  20.597  0.00  0.00    +0.000 A 
ATOM     27  C   UNL     1       1.989   8.021  19.254  0.00  0.00    +0.000 A 
ATOM     28  C   UNL     1       1.514   9.054  18.409  0.00  0.00    +0.000 A 
ATOM     29  C   UNL     1       0.698  10.070  18.920  0.00  0.00    +0.000 A 
ATOM     30  C   UNL     1       0.364   9.988  20.254  0.00  0.00    +0.000 A 
ENDBRANCH  17  27
ENDBRANCH   1  17
TORSDOF 5
ENDMDL
MODEL 3
REMARK VINA RESULT:      -8.7      1.137      1.562
REMARK  Name = 
REMARK  6 active torsions:
REMARK  status: ('A' for Active; 'I' for Inactive)
REMARK    1  A    between atoms: C_1  and  N_2
REMARK    2  A    between atoms: C_8  and  S_9
REMARK    3  A    between atoms: S_9  and  N_12
REMARK    4  A    between atoms: N_12  and  C_13
REMARK    5  A    between atoms: C_18  and  O_19
REMARK    6  A    between atoms: O_19  and  C_20
REMARK                            x       y       z     vdW  Elec       q    Type
REMARK                         _______ _______ _______ _____ _____    ______ ____
ROOT
ATOM      1  N   UNL     1       3.299   5.866  19.833  0.00  0.00    +0.000 N 
ATOM      2  H   UNL     1       2.981   6.265  20.717  0.00  0.00    +0.000 HD
ENDROOT
BRANCH   1   3
ATOM      3  C   UNL     1       3.009   4.462  19.721  0.00  0.00    +0.000 A 
ATOM      4  C   UNL     1       1.671   4.069  19.853  0.00  0.00    +0.000 A 
ATOM      5  C   UNL     1       1.315   2.727  19.735  0.00  0.00    +0.000 A 
ATOM      6  C   UNL     1       2.301   1.764  19.561  0.00  0.00    +0.000 A 
ATOM      7  C   UNL     1       3.640   2.145  19.483  0.00  0.00    +0.000 A 
ATOM      8  C   UNL     1       4.005   3.503  19.477  0.00  0.00    +0.000 A 
BRANCH   8   9
ATOM      9  O   UNL     1       5.304   3.921  19.234  0.00  0.00    +0.000 OA
BRANCH   9  10
ATOM     10  C   UNL     1       5.607   4.356  17.949  0.00  0.00    +0.000 A 
ATOM     11  C   UNL     1       4.838   3.963  16.844  0.00  0.00    +0.000 A 
ATOM     12  C   UNL     1       5.246   4.285  15.547  0.00  0.00    +0.000 A 
ATOM     13  C   UNL     1       6.382   5.064  15.343  0.00  0.00    +0.000 A 
ATOM     14  C   UNL     1       7.093   5.545  16.439  0.00  0.00    +0.000 A 
ATOM     15  C   UNL     1       6.700   5.202  17.736  0.00  0.00    +0.000 A 
ATOM     16 CL   UNL     1       7.614   5.858  19.028  0.00  0.00    +0.000 Cl
ENDBRANCH   9  10
ENDBRANCH   8   9
ENDBRANCH   1   3
BRANCH   1  17
ATOM     17  S   UNL     1       2.812   6.846  18.522  0.00  0.00    +0.000 S 
ATOM     18  O   UNL     1       1.911   6.132  17.648  0.00  0.00    +0.000 OA
ATOM     19  O   UNL     1       4.011   7.481  18.012  0.00  0.00    +0.000 OA
BRANCH  17  27
ATOM     20  C   UNL     1      -1.038  11.324  22.212  0.00  0.00    +0.000 C 
ATOM     21  N   UNL     1      -0.329  11.147  20.978  0.00  0.00    +0.000 N 
ATOM     22  C   UNL     1      -0.487  11.912  19.838  0.00  0.00    +0.000 A 
ATOM     23  O   UNL     1      -1.176  12.918  19.733  0.00  0.00    +0.000 OA
ATOM     24  O   UNL     1       0.245  11.374  18.767  0.00  0.00    +0.000 OA
ATOM     25  C   UNL     1       0.778  10.217  19.315  0.00  0.00    +0.000 A 
ATOM     26  C   UNL     1       1.486   9.260  18.620  0.00  0.00    +0.000 A 
ATOM     27  C   UNL     1       1.888   8.132  19.342  0.00  0.00    +0.000 A 
ATOM     28  C   UNL     1       1.618   8.006  20.727  0.00  0.00    +0.000 A 
ATOM     29  C   UNL     1       0.874   8.983  21.397  0.00  0.00    +0.000 A 
ATOM     30  C   UNL     1       0.460  10.067  20.654  0.00  0.00    +0.000 A 
ENDBRANCH  17  27
ENDBRANCH   1  17
TORSDOF 5
ENDMDL
MODEL 4
REMARK VINA RESULT:      -8.3      1.986      2.484
REMARK  Name = 
REMARK  6 active torsions:
REMARK  status: ('A' for Active; 'I' for Inactive)
REMARK    1  A    between atoms: C_1  and  N_2
REMARK    2  A    between atoms: C_8  and  S_9
REMARK    3  A    between atoms: S_9  and  N_12
REMARK    4  A    between atoms: N_12  and  C_13
REMARK    5  A    between atoms: C_18  and  O_19
REMARK    6  A    between atoms: O_19  and  C_20
REMARK                            x       y       z     vdW  Elec       q    Type
REMARK                         _______ _______ _______ _____ _____    ______ ____
ROOT
ATOM      1  N   UNL     1       1.905   5.744  17.846  0.00  0.00    +0.000 N 
ATOM      2  H   UNL     1       1.904   5.877  16.834  0.00  0.00    +0.000 HD
ENDROOT
BRANCH   1   3
ATOM      3  C   UNL     1       1.954   4.359  18.225  0.00  0.00    +0.000 A 
ATOM      4  C   UNL     1       1.101   3.943  19.255  0.00  0.00    +0.000 A 
ATOM      5  C   UNL     1       1.080   2.610  19.660  0.00  0.00    +0.000 A 
ATOM      6  C   UNL     1       1.966   1.702  19.091  0.00  0.00    +0.000 A 
ATOM      7  C   UNL     1       2.855   2.123  18.103  0.00  0.00    +0.000 A 
ATOM      8  C   UNL     1       2.804   3.433  17.597  0.00  0.00    +0.000 A 
BRANCH   8   9
ATOM      9  O   UNL     1       3.555   3.837  16.504  0.00  0.00    +0.000 OA
BRANCH   9  10
ATOM     10  C   UNL     1       4.905   4.090  16.712  0.00  0.00    +0.000 A 
ATOM     11  C   UNL     1       5.446   4.159  18.004  0.00  0.00    +0.000 A 
ATOM     12  C   UNL     1       6.769   4.563  18.197  0.00  0.00    +0.000 A 
ATOM     13  C   UNL     1       7.587   4.830  17.102  0.00  0.00    +0.000 A 
ATOM     14  C   UNL     1       7.089   4.664  15.813  0.00  0.00    +0.000 A 
ATOM     15  C   UNL     1       5.757   4.284  15.619  0.00  0.00    +0.000 A 
ATOM     16 CL   UNL     1       5.232   4.077  14.002  0.00  0.00    +0.000 Cl
ENDBRANCH   9  10
ENDBRANCH   8   9
ENDBRANCH   1   3
BRANCH   1  17
ATOM     17  S   UNL     1       3.052   6.772  18.586  0.00  0.00    +0.000 S 
ATOM     18  O   UNL     1       3.916   7.378  17.601  0.00  0.00    +0.000 OA
ATOM     19  O   UNL     1       3.591   6.044  19.717  0.00  0.00    +0.000 OA
BRANCH  17  27
ATOM     20  C   UNL     1      -1.249  11.224  21.776  0.00  0.00    +0.000 C 
ATOM     21  N   UNL     1      -0.449  11.024  20.604  0.00  0.00    +0.000 N 
ATOM     22  C   UNL     1      -0.562  11.725  19.418  0.00  0.00    +0.000 A 
ATOM     23  O   UNL     1      -1.288  12.690  19.215  0.00  0.00    +0.000 OA
ATOM     24  O   UNL     1       0.267  11.174  18.428  0.00  0.00    +0.000 OA
ATOM     25  C   UNL     1       0.814  10.072  19.069  0.00  0.00    +0.000 A 
ATOM     26  C   UNL     1       1.612   9.119  18.472  0.00  0.00    +0.000 A 
ATOM     27  C   UNL     1       2.015   8.048  19.276  0.00  0.00    +0.000 A 
ATOM     28  C   UNL     1       1.654   7.975  20.644  0.00  0.00    +0.000 A 
ATOM     29  C   UNL     1       0.821   8.945  21.212  0.00  0.00    +0.000 A 
ATOM     30  C   UNL     1       0.410   9.971  20.389  0.00  0.00    +0.000 A 
ENDBRANCH  17  27
ENDBRANCH   1  17
TORSDOF 5
ENDMDL
MODEL 5
REMARK VINA RESULT:      -8.3      3.004      7.691
REMARK  Name = 
REMARK  6 active torsions:
REMARK  status: ('A' for Active; 'I' for Inactive)
REMARK    1  A    between atoms: C_1  and  N_2
REMARK    2  A    between atoms: C_8  and  S_9
REMARK    3  A    between atoms: S_9  and  N_12
REMARK    4  A    between atoms: N_12  and  C_13
REMARK    5  A    between atoms: C_18  and  O_19
REMARK    6  A    between atoms: O_19  and  C_20
REMARK                            x       y       z     vdW  Elec       q    Type
REMARK                         _______ _______ _______ _____ _____    ______ ____
ROOT
ATOM      1  N   UNL     1       4.319   5.550  19.406  0.00  0.00    +0.000 N 
ATOM      2  H   UNL     1       4.251   6.192  18.616  0.00  0.00    +0.000 HD
ENDROOT
BRANCH   1   3
ATOM      3  C   UNL     1       3.071   4.905  19.708  0.00  0.00    +0.000 A 
ATOM      4  C   UNL     1       2.943   3.555  19.355  0.00  0.00    +0.000 A 
ATOM      5  C   UNL     1       1.767   2.861  19.637  0.00  0.00    +0.000 A 
ATOM      6  C   UNL     1       0.688   3.530  20.201  0.00  0.00    +0.000 A 
ATOM      7  C   UNL     1       0.793   4.887  20.505  0.00  0.00    +0.000 A 
ATOM      8  C   UNL     1       2.009   5.572  20.341  0.00  0.00    +0.000 A 
BRANCH   8   9
ATOM      9  O   UNL     1       2.196   6.871  20.788  0.00  0.00    +0.000 OA
BRANCH   9  10
ATOM     10  C   UNL     1       1.753   7.901  19.967  0.00  0.00    +0.000 A 
ATOM     11  C   UNL     1       2.052   7.923  18.597  0.00  0.00    +0.000 A 
ATOM     12  C   UNL     1       1.730   9.040  17.821  0.00  0.00    +0.000 A 
ATOM     13  C   UNL     1       1.041  10.110  18.384  0.00  0.00    +0.000 A 
ATOM     14  C   UNL     1       0.648  10.051  19.719  0.00  0.00    +0.000 A 
ATOM     15  C   UNL     1       0.993   8.945  20.503  0.00  0.00    +0.000 A 
ATOM     16 CL   UNL     1       0.448   8.940  22.127  0.00  0.00    +0.000 Cl
ENDBRANCH   9  10
ENDBRANCH   8   9
ENDBRANCH   1   3
BRANCH   1  17
ATOM     17  S   UNL     1       5.677   4.528  19.236  0.00  0.00    +0.000 S 
ATOM     18  O   UNL     1       5.392   3.201  19.729  0.00  0.00    +0.000 OA
ATOM     19  O   UNL     1       6.823   5.279  19.711  0.00  0.00    +0.000 OA
BRANCH  17  27
ATOM     20  C   UNL     1       6.045   3.474  12.362  0.00  0.00    +0.000 C 
ATOM     21  N   UNL     1       6.517   4.299  13.435  0.00  0.00    +0.000 N 
ATOM     22  C   UNL     1       7.624   5.125  13.394  0.00  0.00    +0.000 A 
ATOM     23  O   UNL     1       8.312   5.362  12.409  0.00  0.00    +0.000 OA
ATOM     24  O   UNL     1       7.892   5.670  14.660  0.00  0.00    +0.000 OA
ATOM     25  C   UNL     1       6.935   5.064  15.460  0.00  0.00    +0.000 A 
ATOM     26  C   UNL     1       6.856   5.177  16.832  0.00  0.00    +0.000 A 
ATOM     27  C   UNL     1       5.853   4.437  17.464  0.00  0.00    +0.000 A 
ATOM     28  C   UNL     1       4.939   3.647  16.724  0.00  0.00    +0.000 A 
ATOM     29  C   UNL     1       5.063   3.532  15.334  0.00  0.00    +0.000 A 
ATOM     30  C   UNL     1       6.082   4.244  14.740  0.00  0.00    +0.000 A 
ENDBRANCH  17  27
ENDBRANCH   1  17
TORSDOF 5
ENDMDL
MODEL 6
REMARK VINA RESULT:      -8.2      1.660      2.267
REMARK  Name = 
REMARK  6 active torsions:
REMARK  status: ('A' for Active; 'I' for Inactive)
REMARK    1  A    between atoms: C_1  and  N_2
REMARK    2  A    between atoms: C_8  and  S_9
REMARK    3  A    between atoms: S_9  and  N_12
REMARK    4  A    between atoms: N_12  and  C_13
REMARK    5  A    between atoms: C_18  and  O_19
REMARK    6  A    between atoms: O_19  and  C_20
REMARK                            x       y       z     vdW  Elec       q    Type
REMARK                         _______ _______ _______ _____ _____    ______ ____
ROOT
ATOM      1  N   UNL     1       3.326   6.571  19.716  0.00  0.00    +0.000 N 
ATOM      2  H   UNL     1       3.315   7.058  20.613  0.00  0.00    +0.000 HD
ENDROOT
BRANCH   1   3
ATOM      3  C   UNL     1       3.067   5.164  19.845  0.00  0.00    +0.000 A 
ATOM      4  C   UNL     1       2.265   4.753  20.918  0.00  0.00    +0.000 A 
ATOM      5  C   UNL     1       1.955   3.405  21.092  0.00  0.00    +0.000 A 
ATOM      6  C   UNL     1       2.507   2.455  20.242  0.00  0.00    +0.000 A 
ATOM      7  C   UNL     1       3.350   2.854  19.205  0.00  0.00    +0.000 A 
ATOM      8  C   UNL     1       3.573   4.216  18.940  0.00  0.00    +0.000 A 
BRANCH   8   9
ATOM      9  O   UNL     1       4.266   4.651  17.821  0.00  0.00    +0.000 OA
BRANCH   9  10
ATOM     10  C   UNL     1       5.507   5.242  18.025  0.00  0.00    +0.000 A 
ATOM     11  C   UNL     1       6.281   4.944  19.156  0.00  0.00    +0.000 A 
ATOM     12  C   UNL     1       7.453   5.659  19.420  0.00  0.00    +0.000 A 
ATOM     13  C   UNL     1       7.902   6.624  18.522  0.00  0.00    +0.000 A 
ATOM     14  C   UNL     1       7.195   6.853  17.346  0.00  0.00    +0.000 A 
ATOM     15  C   UNL     1       6.009   6.156  17.093  0.00  0.00    +0.000 A 
ATOM     16 CL   UNL     1       5.214   6.479  15.610  0.00  0.00    +0.000 Cl
ENDBRANCH   9  10
ENDBRANCH   8   9
ENDBRANCH   1   3
BRANCH   1  17
ATOM     17  S   UNL     1       2.385   7.411  18.563  0.00  0.00    +0.000 S 
ATOM     18  O   UNL     1       1.462   6.521  17.900  0.00  0.00    +0.000 OA
ATOM     19  O   UNL     1       3.301   8.246  17.811  0.00  0.00    +0.000 OA
BRANCH  17  27
ATOM     20  C   UNL     1      -1.390  11.160  23.057  0.00  0.00    +0.000 C 
ATOM     21  N   UNL     1      -0.854  11.140  21.727  0.00  0.00    +0.000 N 
ATOM     22  C   UNL     1      -1.269  11.935  20.676  0.00  0.00    +0.000 A 
ATOM     23  O   UNL     1      -2.082  12.849  20.738  0.00  0.00    +0.000 OA
ATOM     24  O   UNL     1      -0.642  11.553  19.479  0.00  0.00    +0.000 OA
ATOM     25  C   UNL     1       0.101  10.447  19.866  0.00  0.00    +0.000 A 
ATOM     26  C   UNL     1       0.808   9.626  19.014  0.00  0.00    +0.000 A 
ATOM     27  C   UNL     1       1.445   8.524  19.592  0.00  0.00    +0.000 A 
ATOM     28  C   UNL     1       1.397   8.292  20.989  0.00  0.00    +0.000 A 
ATOM     29  C   UNL     1       0.648   9.130  21.823  0.00  0.00    +0.000 A 
ATOM     30  C   UNL     1       0.002  10.188  21.222  0.00  0.00    +0.000 A 
ENDBRANCH  17  27
ENDBRANCH   1  17
TORSDOF 5
ENDMDL
MODEL 7
REMARK VINA RESULT:      -8.1      1.737      2.104
REMARK  Name = 
REMARK  6 active torsions:
REMARK  status: ('A' for Active; 'I' for Inactive)
REMARK    1  A    between atoms: C_1  and  N_2
REMARK    2  A    between atoms: C_8  and  S_9
REMARK    3  A    between atoms: S_9  and  N_12
REMARK    4  A    between atoms: N_12  and  C_13
REMARK    5  A    between atoms: C_18  and  O_19
REMARK    6  A    between atoms: O_19  and  C_20
REMARK                            x       y       z     vdW  Elec       q    Type
REMARK                         _______ _______ _______ _____ _____    ______ ____
ROOT
ATOM      1  N   UNL     1       2.563   6.930  20.072  0.00  0.00    +0.000 N 
ATOM      2  H   UNL     1       1.962   7.327  20.795  0.00  0.00    +0.000 HD
ENDROOT
BRANCH   1   3
ATOM      3  C   UNL     1       2.548   5.493  20.065  0.00  0.00    +0.000 A 
ATOM      4  C   UNL     1       1.334   4.861  20.366  0.00  0.00    +0.000 A 
ATOM      5  C   UNL     1       1.242   3.470  20.357  0.00  0.00    +0.000 A 
ATOM      6  C   UNL     1       2.378   2.704  20.124  0.00  0.00    +0.000 A 
ATOM      7  C   UNL     1       3.600   3.329  19.877  0.00  0.00    +0.000 A 
ATOM      8  C   UNL     1       3.685   4.727  19.761  0.00  0.00    +0.000 A 
BRANCH   8   9
ATOM      9  O   UNL     1       4.844   5.369  19.352  0.00  0.00    +0.000 OA
BRANCH   9  10
ATOM     10  C   UNL     1       5.348   5.045  18.098  0.00  0.00    +0.000 A 
ATOM     11  C   UNL     1       4.498   4.737  17.026  0.00  0.00    +0.000 A 
ATOM     12  C   UNL     1       5.023   4.267  15.819  0.00  0.00    +0.000 A 
ATOM     13  C   UNL     1       6.401   4.170  15.645  0.00  0.00    +0.000 A 
ATOM     14  C   UNL     1       7.255   4.571  16.668  0.00  0.00    +0.000 A 
ATOM     15  C   UNL     1       6.730   5.017  17.885  0.00  0.00    +0.000 A 
ATOM     16 CL   UNL     1       7.850   5.517  19.082  0.00  0.00    +0.000 Cl
ENDBRANCH   9  10
ENDBRANCH   8   9
ENDBRANCH   1   3
BRANCH   1  17
ATOM     17  S   UNL     1       2.284   7.696  18.571  0.00  0.00    +0.000 S 
ATOM     18  O   UNL     1       1.384   6.919  17.751  0.00  0.00    +0.000 OA
ATOM     19  O   UNL     1       3.579   8.121  18.076  0.00  0.00    +0.000 OA
BRANCH  17  27
ATOM     20  C   UNL     1      -1.566  13.057  20.795  0.00  0.00    +0.000 C 
ATOM     21  N   UNL     1      -0.470  12.690  19.947  0.00  0.00    +0.000 N 
ATOM     22  C   UNL     1       0.054  13.457  18.924  0.00  0.00    +0.000 A 
ATOM     23  O   UNL     1      -0.264  14.607  18.648  0.00  0.00    +0.000 OA
ATOM     24  O   UNL     1       1.016  12.737  18.198  0.00  0.00    +0.000 OA
ATOM     25  C   UNL     1       0.976  11.487  18.798  0.00  0.00    +0.000 A 
ATOM     26  C   UNL     1       1.659  10.372  18.360  0.00  0.00    +0.000 A 
ATOM     27  C   UNL     1       1.438   9.186  19.067  0.00  0.00    +0.000 A 
ATOM     28  C   UNL     1       0.589   9.148  20.200  0.00  0.00    +0.000 A 
ATOM     29  C   UNL     1      -0.110  10.292  20.602  0.00  0.00    +0.000 A 
ATOM     30  C   UNL     1       0.099  11.439  19.867  0.00  0.00    +0.000 A 
ENDBRANCH  17  27
ENDBRANCH   1  17
TORSDOF 5
ENDMDL
MODEL 8
REMARK VINA RESULT:      -8.0      1.066      1.389
REMARK  Name = 
REMARK  6 active torsions:
REMARK  status: ('A' for Active; 'I' for Inactive)
REMARK    1  A    between atoms: C_1  and  N_2
REMARK    2  A    between atoms: C_8  and  S_9
REMARK    3  A    between atoms: S_9  and  N_12
REMARK    4  A    between atoms: N_12  and  C_13
REMARK    5  A    between atoms: C_18  and  O_19
REMARK    6  A    between atoms: O_19  and  C_20
REMARK                            x       y       z     vdW  Elec       q    Type
REMARK                         _______ _______ _______ _____ _____    ______ ____
ROOT
ATOM      1  N   UNL     1       3.537   6.153  19.731  0.00  0.00    +0.000 N 
ATOM      2  H   UNL     1       3.527   6.791  20.527  0.00  0.00    +0.000 HD
ENDROOT
BRANCH   1   3
ATOM      3  C   UNL     1       3.011   4.855  20.053  0.00  0.00    +0.000 A 
ATOM      4  C   UNL     1       1.643   4.770  20.344  0.00  0.00    +0.000 A 
ATOM      5  C   UNL     1       1.060   3.540  20.643  0.00  0.00    +0.000 A 
ATOM      6  C   UNL     1       1.854   2.403  20.729  0.00  0.00    +0.000 A 
ATOM      7  C   UNL     1       3.226   2.492  20.493  0.00  0.00    +0.000 A 
ATOM      8  C   UNL     1       3.808   3.699  20.070  0.00  0.00    +0.000 A 
BRANCH   8   9
ATOM      9  O   UNL     1       5.131   3.783  19.666  0.00  0.00    +0.000 OA
BRANCH   9  10
ATOM     10  C   UNL     1       5.378   4.193  18.361  0.00  0.00    +0.000 A 
ATOM     11  C   UNL     1       6.347   5.164  18.071  0.00  0.00    +0.000 A 
ATOM     12  C   UNL     1       6.475   5.672  16.776  0.00  0.00    +0.000 A 
ATOM     13  C   UNL     1       5.691   5.163  15.743  0.00  0.00    +0.000 A 
ATOM     14  C   UNL     1       4.800   4.126  16.002  0.00  0.00    +0.000 A 
ATOM     15  C   UNL     1       4.653   3.635  17.303  0.00  0.00    +0.000 A 
ATOM     16 CL   UNL     1       3.554   2.340  17.530  0.00  0.00    +0.000 Cl
ENDBRANCH   9  10
ENDBRANCH   8   9
ENDBRANCH   1   3
BRANCH   1  17
ATOM     17  S   UNL     1       2.888   6.910  18.344  0.00  0.00    +0.000 S 
ATOM     18  O   UNL     1       2.022   6.010  17.619  0.00  0.00    +0.000 OA
ATOM     19  O   UNL     1       3.989   7.589  17.689  0.00  0.00    +0.000 OA
BRANCH  17  27
ATOM     20  C   UNL     1      -0.812  12.375  20.568  0.00  0.00    +0.000 C 
ATOM     21  N   UNL     1      -0.307  11.087  20.943  0.00  0.00    +0.000 N 
ATOM     22  C   UNL     1      -0.188  10.610  22.235  0.00  0.00    +0.000 A 
ATOM     23  O   UNL     1      -0.587  11.166  23.250  0.00  0.00    +0.000 OA
ATOM     24  O   UNL     1       0.484   9.377  22.255  0.00  0.00    +0.000 OA
ATOM     25  C   UNL     1       0.819   9.192  20.922  0.00  0.00    +0.000 A 
ATOM     26  C   UNL     1       1.607   8.172  20.433  0.00  0.00    +0.000 A 
ATOM     27  C   UNL     1       1.880   8.195  19.061  0.00  0.00    +0.000 A 
ATOM     28  C   UNL     1       1.336   9.193  18.216  0.00  0.00    +0.000 A 
ATOM     29  C   UNL     1       0.562  10.230  18.748  0.00  0.00    +0.000 A 
ATOM     30  C   UNL     1       0.337  10.203  20.108  0.00  0.00    +0.000 A 
ENDBRANCH  17  27
ENDBRANCH   1  17
TORSDOF 5
ENDMDL
MODEL 9
REMARK VINA RESULT:      -7.9      1.459      1.844
REMARK  Name = 
REMARK  6 active torsions:
REMARK  status: ('A' for Active; 'I' for Inactive)
REMARK    1  A    between atoms: C_1  and  N_2
REMARK    2  A    between atoms: C_8  and  S_9
REMARK    3  A    between atoms: S_9  and  N_12
REMARK    4  A    between atoms: N_12  and  C_13
REMARK    5  A    between atoms: C_18  and  O_19
REMARK    6  A    between atoms: O_19  and  C_20
REMARK                            x       y       z     vdW  Elec       q    Type
REMARK                         _______ _______ _______ _____ _____    ______ ____
ROOT
ATOM      1  N   UNL     1       2.602   6.894  19.801  0.00  0.00    +0.000 N 
ATOM      2  H   UNL     1       2.235   7.326  20.649  0.00  0.00    +0.000 HD
ENDROOT
BRANCH   1   3
ATOM      3  C   UNL     1       2.386   5.473  19.763  0.00  0.00    +0.000 A 
ATOM      4  C   UNL     1       1.455   4.941  20.664  0.00  0.00    +0.000 A 
ATOM      5  C   UNL     1       1.180   3.574  20.669  0.00  0.00    +0.000 A 
ATOM      6  C   UNL     1       1.889   2.724  19.829  0.00  0.00    +0.000 A 
ATOM      7  C   UNL     1       2.855   3.244  18.968  0.00  0.00    +0.000 A 
ATOM      8  C   UNL     1       3.058   4.630  18.863  0.00  0.00    +0.000 A 
BRANCH   8   9
ATOM      9  O   UNL     1       3.887   5.189  17.903  0.00  0.00    +0.000 OA
BRANCH   9  10
ATOM     10  C   UNL     1       5.258   5.081  18.098  0.00  0.00    +0.000 A 
ATOM     11  C   UNL     1       5.852   5.433  19.318  0.00  0.00    +0.000 A 
ATOM     12  C   UNL     1       7.243   5.463  19.446  0.00  0.00    +0.000 A 
ATOM     13  C   UNL     1       8.053   5.071  18.383  0.00  0.00    +0.000 A 
ATOM     14  C   UNL     1       7.470   4.621  17.202  0.00  0.00    +0.000 A 
ATOM     15  C   UNL     1       6.078   4.615  17.065  0.00  0.00    +0.000 A 
ATOM     16 CL   UNL     1       5.441   4.021  15.590  0.00  0.00    +0.000 Cl
ENDBRANCH   9  10
ENDBRANCH   8   9
ENDBRANCH   1   3
BRANCH   1  17
ATOM     17  S   UNL     1       2.112   7.770  18.418  0.00  0.00    +0.000 S 
ATOM     18  O   UNL     1       1.282   6.960  17.558  0.00  0.00    +0.000 OA
ATOM     19  O   UNL     1       3.295   8.440  17.913  0.00  0.00    +0.000 OA
BRANCH  17  27
ATOM     20  C   UNL     1      -1.792  13.134  20.534  0.00  0.00    +0.000 C 
ATOM     21  N   UNL     1      -1.073  11.977  20.980  0.00  0.00    +0.000 N 
ATOM     22  C   UNL     1      -0.669  11.725  22.278  0.00  0.00    +0.000 A 
ATOM     23  O   UNL     1      -0.950  12.394  23.264  0.00  0.00    +0.000 OA
ATOM     24  O   UNL     1       0.144  10.583  22.339  0.00  0.00    +0.000 OA
ATOM     25  C   UNL     1       0.260  10.221  21.004  0.00  0.00    +0.000 A 
ATOM     26  C   UNL     1       1.071   9.218  20.519  0.00  0.00    +0.000 A 
ATOM     27  C   UNL     1       1.094   9.048  19.131  0.00  0.00    +0.000 A 
ATOM     28  C   UNL     1       0.290   9.842  18.277  0.00  0.00    +0.000 A 
ATOM     29  C   UNL     1      -0.502  10.870  18.799  0.00  0.00    +0.000 A 
ATOM     30  C   UNL     1      -0.480  11.038  20.167  0.00  0.00    +0.000 A 
ENDBRANCH  17  27
ENDBRANCH   1  17
TORSDOF 5
ENDMDL
