MODEL 1
REMARK VINA RESULT:      -8.4      0.000      0.000
REMARK  Name = 
REMARK  8 active torsions:
REMARK  status: ('A' for Active; 'I' for Inactive)
REMARK    1  A    between atoms: C_1  and  C_2
REMARK    2  A    between atoms: C_5  and  N_6
REMARK    3  A    between atoms: C_7  and  C_9
REMARK    4  A    between atoms: C_9  and  N_10
REMARK    5  A    between atoms: C_23  and  S_24
REMARK    6  A    between atoms: S_24  and  N_27
REMARK    7  A    between atoms: N_27  and  C_28
REMARK    8  A    between atoms: N_27  and  C_29
REMARK                            x       y       z     vdW  Elec       q    Type
REMARK                         _______ _______ _______ _____ _____    ______ ____
ROOT
ATOM      1  N   UNL     1       1.715   6.981  20.810  0.00  0.00    +0.000 N 
ATOM      2  C   UNL     1       2.549   6.626  19.739  0.00  0.00    +0.000 C 
ATOM      3  O   UNL     1       2.845   7.354  18.795  0.00  0.00    +0.000 OA
ATOM      4  H   UNL     1       1.534   6.269  21.512  0.00  0.00    +0.000 HD
ENDROOT
BRANCH   1   9
ATOM      5  C   UNL     1      -0.955  11.982  21.913  0.00  0.00    +0.000 C 
ATOM      6  C   UNL     1      -0.173  10.759  21.521  0.00  0.00    +0.000 A 
ATOM      7  C   UNL     1       0.496  10.075  22.545  0.00  0.00    +0.000 A 
ATOM      8  C   UNL     1       1.154   8.863  22.310  0.00  0.00    +0.000 A 
ATOM      9  C   UNL     1       1.166   8.273  21.052  0.00  0.00    +0.000 A 
ATOM     10  C   UNL     1       0.580   8.990  19.994  0.00  0.00    +0.000 A 
ATOM     11  C   UNL     1      -0.075  10.237  20.218  0.00  0.00    +0.000 A 
BRANCH  11  12
ATOM     12  S   UNL     1      -0.859  11.023  18.797  0.00  0.00    +0.000 S 
ATOM     13  O   UNL     1      -0.731  10.106  17.689  0.00  0.00    +0.000 OA
ATOM     14  O   UNL     1      -2.166  11.515  19.187  0.00  0.00    +0.000 OA
BRANCH  12  15
ATOM     15  N   UNL     1       0.129  12.356  18.465  0.00  0.00    +0.000 NA
ATOM     16  C   UNL     1      -0.383  13.718  18.739  0.00  0.00    +0.000 C 
ATOM     17  C   UNL     1       1.570  12.227  18.723  0.00  0.00    +0.000 C 
ENDBRANCH  12  15
ENDBRANCH  11  12
ENDBRANCH   1   9
BRANCH   2  18
ATOM     18  C   UNL     1       3.095   5.190  19.783  0.00  0.00    +0.000 C 
BRANCH  18  19
ATOM     19  N   UNL     1       4.025   4.909  18.700  0.00  0.00    +0.000 N 
ATOM     20  C   UNL     1       5.391   5.010  18.785  0.00  0.00    +0.000 C 
ATOM     21  O   UNL     1       6.033   5.480  19.712  0.00  0.00    +0.000 OA
ATOM     22  C   UNL     1       6.014   4.392  17.541  0.00  0.00    +0.000 C 
ATOM     23  C   UNL     1       6.848   5.379  16.699  0.00  0.00    +0.000 C 
ATOM     24  C   UNL     1       7.188   4.755  15.351  0.00  0.00    +0.000 C 
ATOM     25  C   UNL     1       6.051   4.686  14.639  0.00  0.00    +0.000 C 
ATOM     26  C   UNL     1       4.945   5.193  15.535  0.00  0.00    +0.000 C 
ATOM     27  C   UNL     1       5.749   6.324  16.202  0.00  0.00    +0.000 C 
ATOM     28  C   UNL     1       4.788   4.122  16.640  0.00  0.00    +0.000 C 
ATOM     29  C   UNL     1       3.614   4.293  17.556  0.00  0.00    +0.000 C 
ATOM     30  O   UNL     1       2.478   3.911  17.323  0.00  0.00    +0.000 OA
ENDBRANCH  18  19
ENDBRANCH   2  18
TORSDOF 5
ENDMDL
MODEL 2
REMARK VINA RESULT:      -8.3      2.949      8.252
REMARK  Name = 
REMARK  8 active torsions:
REMARK  status: ('A' for Active; 'I' for Inactive)
REMARK    1  A    between atoms: C_1  and  C_2
REMARK    2  A    between atoms: C_5  and  N_6
REMARK    3  A    between atoms: C_7  and  C_9
REMARK    4  A    between atoms: C_9  and  N_10
REMARK    5  A    between atoms: C_23  and  S_24
REMARK    6  A    between atoms: S_24  and  N_27
REMARK    7  A    between atoms: N_27  and  C_28
REMARK    8  A    between atoms: N_27  and  C_29
REMARK                            x       y       z     vdW  Elec       q    Type
REMARK                         _______ _______ _______ _____ _____    ______ ____
ROOT
ATOM      1  N   UNL     1       1.808   8.068  19.897  0.00  0.00    +0.000 N 
ATOM      2  C   UNL     1       0.853   8.655  20.741  0.00  0.00    +0.000 C 
ATOM      3  O   UNL     1       0.134   8.050  21.532  0.00  0.00    +0.000 OA
ATOM      4  H   UNL     1       2.316   8.686  19.272  0.00  0.00    +0.000 HD
ENDROOT
BRANCH   1   9
ATOM      5  C   UNL     1       3.676   2.617  20.288  0.00  0.00    +0.000 C 
ATOM      6  C   UNL     1       3.172   4.010  20.032  0.00  0.00    +0.000 A 
ATOM      7  C   UNL     1       2.049   4.425  20.761  0.00  0.00    +0.000 A 
ATOM      8  C   UNL     1       1.571   5.737  20.687  0.00  0.00    +0.000 A 
ATOM      9  C   UNL     1       2.193   6.695  19.895  0.00  0.00    +0.000 A 
ATOM     10  C   UNL     1       3.263   6.273  19.087  0.00  0.00    +0.000 A 
ATOM     11  C   UNL     1       3.746   4.933  19.139  0.00  0.00    +0.000 A 
BRANCH  11  12
ATOM     12  S   UNL     1       5.175   4.532  18.115  0.00  0.00    +0.000 S 
ATOM     13  O   UNL     1       6.258   4.214  19.016  0.00  0.00    +0.000 OA
ATOM     14  O   UNL     1       4.777   3.585  17.093  0.00  0.00    +0.000 OA
BRANCH  12  15
ATOM     15  N   UNL     1       5.564   5.994  17.357  0.00  0.00    +0.000 NA
ATOM     16  C   UNL     1       6.853   6.649  17.672  0.00  0.00    +0.000 C 
ATOM     17  C   UNL     1       5.165   6.169  15.953  0.00  0.00    +0.000 C 
ENDBRANCH  12  15
ENDBRANCH  11  12
ENDBRANCH   1   9
BRANCH   2  18
ATOM     18  C   UNL     1       0.716  10.180  20.611  0.00  0.00    +0.000 C 
BRANCH  18  19
ATOM     19  N   UNL     1      -0.233  10.573  19.581  0.00  0.00    +0.000 N 
ATOM     20  C   UNL     1      -1.351  11.341  19.788  0.00  0.00    +0.000 C 
ATOM     21  O   UNL     1      -1.807  11.692  20.866  0.00  0.00    +0.000 OA
ATOM     22  C   UNL     1      -1.936  11.743  18.441  0.00  0.00    +0.000 C 
ATOM     23  C   UNL     1      -3.373  11.235  18.202  0.00  0.00    +0.000 C 
ATOM     24  C   UNL     1      -3.761  11.438  16.742  0.00  0.00    +0.000 C 
ATOM     25  C   UNL     1      -3.042  10.571  16.010  0.00  0.00    +0.000 C 
ATOM     26  C   UNL     1      -2.126   9.845  16.966  0.00  0.00    +0.000 C 
ATOM     27  C   UNL     1      -3.129   9.724  18.128  0.00  0.00    +0.000 C 
ATOM     28  C   UNL     1      -1.104  10.906  17.443  0.00  0.00    +0.000 C 
ATOM     29  C   UNL     1       0.042  10.392  18.259  0.00  0.00    +0.000 C 
ATOM     30  O   UNL     1       1.071   9.916  17.805  0.00  0.00    +0.000 OA
ENDBRANCH  18  19
ENDBRANCH   2  18
TORSDOF 5
ENDMDL
MODEL 3
REMARK VINA RESULT:      -8.3      1.745      2.336
REMARK  Name = 
REMARK  8 active torsions:
REMARK  status: ('A' for Active; 'I' for Inactive)
REMARK    1  A    between atoms: C_1  and  C_2
REMARK    2  A    between atoms: C_5  and  N_6
REMARK    3  A    between atoms: C_7  and  C_9
REMARK    4  A    between atoms: C_9  and  N_10
REMARK    5  A    between atoms: C_23  and  S_24
REMARK    6  A    between atoms: S_24  and  N_27
REMARK    7  A    between atoms: N_27  and  C_28
REMARK    8  A    between atoms: N_27  and  C_29
REMARK                            x       y       z     vdW  Elec       q    Type
REMARK                         _______ _______ _______ _____ _____    ______ ____
ROOT
ATOM      1  N   UNL     1       2.786   6.994  19.766  0.00  0.00    +0.000 N 
ATOM      2  C   UNL     1       2.436   5.649  19.958  0.00  0.00    +0.000 C 
ATOM      3  O   UNL     1       1.289   5.210  20.002  0.00  0.00    +0.000 OA
ATOM      4  H   UNL     1       3.776   7.221  19.776  0.00  0.00    +0.000 HD
ENDROOT
BRANCH   1   9
ATOM      5  C   UNL     1      -0.442  11.621  18.531  0.00  0.00    +0.000 C 
ATOM      6  C   UNL     1       0.276  10.365  18.939  0.00  0.00    +0.000 A 
ATOM      7  C   UNL     1       0.751   9.540  17.909  0.00  0.00    +0.000 A 
ATOM      8  C   UNL     1       1.533   8.412  18.175  0.00  0.00    +0.000 A 
ATOM      9  C   UNL     1       1.887   8.060  19.473  0.00  0.00    +0.000 A 
ATOM     10  C   UNL     1       1.344   8.822  20.522  0.00  0.00    +0.000 A 
ATOM     11  C   UNL     1       0.528   9.963  20.263  0.00  0.00    +0.000 A 
BRANCH  11  12
ATOM     12  S   UNL     1      -0.044  10.907  21.689  0.00  0.00    +0.000 S 
ATOM     13  O   UNL     1      -1.439  11.203  21.462  0.00  0.00    +0.000 OA
ATOM     14  O   UNL     1       0.369  10.232  22.903  0.00  0.00    +0.000 OA
BRANCH  12  15
ATOM     15  N   UNL     1       0.804  12.368  21.584  0.00  0.00    +0.000 NA
ATOM     16  C   UNL     1       1.977  12.457  20.685  0.00  0.00    +0.000 C 
ATOM     17  C   UNL     1       0.033  13.618  21.638  0.00  0.00    +0.000 C 
ENDBRANCH  12  15
ENDBRANCH  11  12
ENDBRANCH   1   9
BRANCH   2  18
ATOM     18  C   UNL     1       3.619   4.686  20.145  0.00  0.00    +0.000 C 
BRANCH  18  19
ATOM     19  N   UNL     1       4.437   4.561  18.948  0.00  0.00    +0.000 N 
ATOM     20  C   UNL     1       5.755   4.929  18.850  0.00  0.00    +0.000 C 
ATOM     21  O   UNL     1       6.407   5.542  19.682  0.00  0.00    +0.000 OA
ATOM     22  C   UNL     1       6.320   4.410  17.535  0.00  0.00    +0.000 C 
ATOM     23  C   UNL     1       6.825   5.516  16.587  0.00  0.00    +0.000 C 
ATOM     24  C   UNL     1       7.103   4.932  15.206  0.00  0.00    +0.000 C 
ATOM     25  C   UNL     1       5.919   4.622  14.654  0.00  0.00    +0.000 C 
ATOM     26  C   UNL     1       4.861   4.929  15.688  0.00  0.00    +0.000 C 
ATOM     27  C   UNL     1       5.506   6.213  16.239  0.00  0.00    +0.000 C 
ATOM     28  C   UNL     1       5.064   3.880  16.807  0.00  0.00    +0.000 C 
ATOM     29  C   UNL     1       4.010   3.844  17.871  0.00  0.00    +0.000 C 
ATOM     30  O   UNL     1       2.951   3.241  17.793  0.00  0.00    +0.000 OA
ENDBRANCH  18  19
ENDBRANCH   2  18
TORSDOF 5
ENDMDL
MODEL 4
REMARK VINA RESULT:      -8.1      1.979      2.808
REMARK  Name = 
REMARK  8 active torsions:
REMARK  status: ('A' for Active; 'I' for Inactive)
REMARK    1  A    between atoms: C_1  and  C_2
REMARK    2  A    between atoms: C_5  and  N_6
REMARK    3  A    between atoms: C_7  and  C_9
REMARK    4  A    between atoms: C_9  and  N_10
REMARK    5  A    between atoms: C_23  and  S_24
REMARK    6  A    between atoms: S_24  and  N_27
REMARK    7  A    between atoms: N_27  and  C_28
REMARK    8  A    between atoms: N_27  and  C_29
REMARK                            x       y       z     vdW  Elec       q    Type
REMARK                         _______ _______ _______ _____ _____    ______ ____
ROOT
ATOM      1  N   UNL     1       2.868   6.335  19.187  0.00  0.00    +0.000 N 
ATOM      2  C   UNL     1       2.492   5.255  20.000  0.00  0.00    +0.000 C 
ATOM      3  O   UNL     1       1.560   5.256  20.800  0.00  0.00    +0.000 OA
ATOM      4  H   UNL     1       3.678   6.204  18.588  0.00  0.00    +0.000 HD
ENDROOT
BRANCH   1   9
ATOM      5  C   UNL     1       0.497  11.567  18.594  0.00  0.00    +0.000 C 
ATOM      6  C   UNL     1       0.994  10.171  18.844  0.00  0.00    +0.000 A 
ATOM      7  C   UNL     1       1.196   9.356  17.722  0.00  0.00    +0.000 A 
ATOM      8  C   UNL     1       1.766   8.084  17.832  0.00  0.00    +0.000 A 
ATOM      9  C   UNL     1       2.169   7.570  19.059  0.00  0.00    +0.000 A 
ATOM     10  C   UNL     1       1.890   8.334  20.205  0.00  0.00    +0.000 A 
ATOM     11  C   UNL     1       1.290   9.625  20.106  0.00  0.00    +0.000 A 
BRANCH  11  12
ATOM     12  S   UNL     1       1.055  10.543  21.640  0.00  0.00    +0.000 S 
ATOM     13  O   UNL     1       1.644   9.753  22.695  0.00  0.00    +0.000 OA
ATOM     14  O   UNL     1       1.472  11.917  21.440  0.00  0.00    +0.000 OA
BRANCH  12  15
ATOM     15  N   UNL     1      -0.621  10.531  21.877  0.00  0.00    +0.000 NA
ATOM     16  C   UNL     1      -1.172   9.881  23.087  0.00  0.00    +0.000 C 
ATOM     17  C   UNL     1      -1.383  11.721  21.472  0.00  0.00    +0.000 C 
ENDBRANCH  12  15
ENDBRANCH  11  12
ENDBRANCH   1   9
BRANCH   2  18
ATOM     18  C   UNL     1       3.363   3.996  19.859  0.00  0.00    +0.000 C 
BRANCH  18  19
ATOM     19  N   UNL     1       4.275   4.068  18.727  0.00  0.00    +0.000 N 
ATOM     20  C   UNL     1       5.508   4.670  18.743  0.00  0.00    +0.000 C 
ATOM     21  O   UNL     1       5.975   5.355  19.640  0.00  0.00    +0.000 OA
ATOM     22  C   UNL     1       6.252   4.313  17.464  0.00  0.00    +0.000 C 
ATOM     23  C   UNL     1       6.616   5.530  16.588  0.00  0.00    +0.000 C 
ATOM     24  C   UNL     1       7.094   5.062  15.219  0.00  0.00    +0.000 C 
ATOM     25  C   UNL     1       6.029   4.568  14.566  0.00  0.00    +0.000 C 
ATOM     26  C   UNL     1       4.861   4.638  15.521  0.00  0.00    +0.000 C 
ATOM     27  C   UNL     1       5.221   5.994  16.156  0.00  0.00    +0.000 C 
ATOM     28  C   UNL     1       5.169   3.597  16.625  0.00  0.00    +0.000 C 
ATOM     29  C   UNL     1       4.064   3.331  17.601  0.00  0.00    +0.000 C 
ATOM     30  O   UNL     1       3.140   2.552  17.423  0.00  0.00    +0.000 OA
ENDBRANCH  18  19
ENDBRANCH   2  18
TORSDOF 5
ENDMDL
MODEL 5
REMARK VINA RESULT:      -8.1      0.978      1.159
REMARK  Name = 
REMARK  8 active torsions:
REMARK  status: ('A' for Active; 'I' for Inactive)
REMARK    1  A    between atoms: C_1  and  C_2
REMARK    2  A    between atoms: C_5  and  N_6
REMARK    3  A    between atoms: C_7  and  C_9
REMARK    4  A    between atoms: C_9  and  N_10
REMARK    5  A    between atoms: C_23  and  S_24
REMARK    6  A    between atoms: S_24  and  N_27
REMARK    7  A    between atoms: N_27  and  C_28
REMARK    8  A    between atoms: N_27  and  C_29
REMARK                            x       y       z     vdW  Elec       q    Type
REMARK                         _______ _______ _______ _____ _____    ______ ____
ROOT
ATOM      1  N   UNL     1       1.731   6.915  20.914  0.00  0.00    +0.000 N 
ATOM      2  C   UNL     1       2.507   6.554  19.803  0.00  0.00    +0.000 C 
ATOM      3  O   UNL     1       2.707   7.255  18.814  0.00  0.00    +0.000 OA
ATOM      4  H   UNL     1       1.629   6.226  21.652  0.00  0.00    +0.000 HD
ENDROOT
BRANCH   1   9
ATOM      5  C   UNL     1      -1.092  11.903  21.630  0.00  0.00    +0.000 C 
ATOM      6  C   UNL     1      -0.226  10.690  21.431  0.00  0.00    +0.000 A 
ATOM      7  C   UNL     1      -0.277   9.701  22.423  0.00  0.00    +0.000 A 
ATOM      8  C   UNL     1       0.396   8.484  22.281  0.00  0.00    +0.000 A 
ATOM      9  C   UNL     1       1.141   8.192  21.144  0.00  0.00    +0.000 A 
ATOM     10  C   UNL     1       1.279   9.207  20.182  0.00  0.00    +0.000 A 
ATOM     11  C   UNL     1       0.613  10.460  20.326  0.00  0.00    +0.000 A 
BRANCH  11  12
ATOM     12  S   UNL     1       0.803  11.653  18.987  0.00  0.00    +0.000 S 
ATOM     13  O   UNL     1       2.011  11.299  18.280  0.00  0.00    +0.000 OA
ATOM     14  O   UNL     1      -0.453  11.768  18.272  0.00  0.00    +0.000 OA
BRANCH  12  15
ATOM     15  N   UNL     1       1.094  13.120  19.778  0.00  0.00    +0.000 NA
ATOM     16  C   UNL     1       2.445  13.390  20.322  0.00  0.00    +0.000 C 
ATOM     17  C   UNL     1       0.441  14.328  19.254  0.00  0.00    +0.000 C 
ENDBRANCH  12  15
ENDBRANCH  11  12
ENDBRANCH   1   9
BRANCH   2  18
ATOM     18  C   UNL     1       3.119   5.145  19.863  0.00  0.00    +0.000 C 
BRANCH  18  19
ATOM     19  N   UNL     1       4.033   4.882  18.762  0.00  0.00    +0.000 N 
ATOM     20  C   UNL     1       5.397   5.015  18.819  0.00  0.00    +0.000 C 
ATOM     21  O   UNL     1       6.047   5.503  19.731  0.00  0.00    +0.000 OA
ATOM     22  C   UNL     1       6.009   4.407  17.564  0.00  0.00    +0.000 C 
ATOM     23  C   UNL     1       6.803   5.410  16.702  0.00  0.00    +0.000 C 
ATOM     24  C   UNL     1       7.129   4.790  15.349  0.00  0.00    +0.000 C 
ATOM     25  C   UNL     1       5.980   4.692  14.661  0.00  0.00    +0.000 C 
ATOM     26  C   UNL     1       4.881   5.176  15.577  0.00  0.00    +0.000 C 
ATOM     27  C   UNL     1       5.672   6.327  16.225  0.00  0.00    +0.000 C 
ATOM     28  C   UNL     1       4.771   4.105  16.689  0.00  0.00    +0.000 C 
ATOM     29  C   UNL     1       3.613   4.253  17.629  0.00  0.00    +0.000 C 
ATOM     30  O   UNL     1       2.481   3.844  17.420  0.00  0.00    +0.000 OA
ENDBRANCH  18  19
ENDBRANCH   2  18
TORSDOF 5
ENDMDL
MODEL 6
REMARK VINA RESULT:      -8.1      2.418      3.943
REMARK  Name = 
REMARK  8 active torsions:
REMARK  status: ('A' for Active; 'I' for Inactive)
REMARK    1  A    between atoms: C_1  and  C_2
REMARK    2  A    between atoms: C_5  and  N_6
REMARK    3  A    between atoms: C_7  and  C_9
REMARK    4  A    between atoms: C_9  and  N_10
REMARK    5  A    between atoms: C_23  and  S_24
REMARK    6  A    between atoms: S_24  and  N_27
REMARK    7  A    between atoms: N_27  and  C_28
REMARK    8  A    between atoms: N_27  and  C_29
REMARK                            x       y       z     vdW  Elec       q    Type
REMARK                         _______ _______ _______ _____ _____    ______ ____
ROOT
ATOM      1  N   UNL     1       1.882   7.939  19.505  0.00  0.00    +0.000 N 
ATOM      2  C   UNL     1       2.344   8.158  18.198  0.00  0.00    +0.000 C 
ATOM      3  O   UNL     1       2.154   9.175  17.536  0.00  0.00    +0.000 OA
ATOM      4  H   UNL     1       2.091   7.038  19.925  0.00  0.00    +0.000 HD
ENDROOT
BRANCH   1   9
ATOM      5  C   UNL     1      -1.227  11.530  22.790  0.00  0.00    +0.000 C 
ATOM      6  C   UNL     1      -0.331  10.720  21.895  0.00  0.00    +0.000 A 
ATOM      7  C   UNL     1       0.318   9.619  22.472  0.00  0.00    +0.000 A 
ATOM      8  C   UNL     1       1.080   8.732  21.704  0.00  0.00    +0.000 A 
ATOM      9  C   UNL     1       1.222   8.894  20.331  0.00  0.00    +0.000 A 
ATOM     10  C   UNL     1       0.655  10.043  19.752  0.00  0.00    +0.000 A 
ATOM     11  C   UNL     1      -0.107  10.965  20.528  0.00  0.00    +0.000 A 
BRANCH  11  12
ATOM     12  S   UNL     1      -0.850  12.358  19.658  0.00  0.00    +0.000 S 
ATOM     13  O   UNL     1      -0.750  13.500  20.535  0.00  0.00    +0.000 OA
ATOM     14  O   UNL     1      -0.311  12.422  18.314  0.00  0.00    +0.000 OA
BRANCH  12  15
ATOM     15  N   UNL     1      -2.490  11.949  19.548  0.00  0.00    +0.000 NA
ATOM     16  C   UNL     1      -3.489  12.783  20.253  0.00  0.00    +0.000 C 
ATOM     17  C   UNL     1      -2.986  11.429  18.266  0.00  0.00    +0.000 C 
ENDBRANCH  12  15
ENDBRANCH  11  12
ENDBRANCH   1   9
BRANCH   2  18
ATOM     18  C   UNL     1       3.127   6.990  17.578  0.00  0.00    +0.000 C 
BRANCH  18  19
ATOM     19  N   UNL     1       2.918   5.735  18.285  0.00  0.00    +0.000 N 
ATOM     20  C   UNL     1       1.972   4.795  17.962  0.00  0.00    +0.000 C 
ATOM     21  O   UNL     1       1.073   4.914  17.143  0.00  0.00    +0.000 OA
ATOM     22  C   UNL     1       2.236   3.528  18.763  0.00  0.00    +0.000 C 
ATOM     23  C   UNL     1       1.082   3.126  19.704  0.00  0.00    +0.000 C 
ATOM     24  C   UNL     1       1.544   2.029  20.657  0.00  0.00    +0.000 C 
ATOM     25  C   UNL     1       2.414   2.582  21.517  0.00  0.00    +0.000 C 
ATOM     26  C   UNL     1       2.589   4.023  21.096  0.00  0.00    +0.000 C 
ATOM     27  C   UNL     1       1.121   4.282  20.708  0.00  0.00    +0.000 C 
ATOM     28  C   UNL     1       3.344   3.968  19.747  0.00  0.00    +0.000 C 
ATOM     29  C   UNL     1       3.815   5.283  19.205  0.00  0.00    +0.000 C 
ATOM     30  O   UNL     1       4.854   5.843  19.520  0.00  0.00    +0.000 OA
ENDBRANCH  18  19
ENDBRANCH   2  18
TORSDOF 5
ENDMDL
MODEL 7
REMARK VINA RESULT:      -8.1      2.231      3.776
REMARK  Name = 
REMARK  8 active torsions:
REMARK  status: ('A' for Active; 'I' for Inactive)
REMARK    1  A    between atoms: C_1  and  C_2
REMARK    2  A    between atoms: C_5  and  N_6
REMARK    3  A    between atoms: C_7  and  C_9
REMARK    4  A    between atoms: C_9  and  N_10
REMARK    5  A    between atoms: C_23  and  S_24
REMARK    6  A    between atoms: S_24  and  N_27
REMARK    7  A    between atoms: N_27  and  C_28
REMARK    8  A    between atoms: N_27  and  C_29
REMARK                            x       y       z     vdW  Elec       q    Type
REMARK                         _______ _______ _______ _____ _____    ______ ____
ROOT
ATOM      1  N   UNL     1       1.849   7.892  19.427  0.00  0.00    +0.000 N 
ATOM      2  C   UNL     1       2.359   8.103  18.138  0.00  0.00    +0.000 C 
ATOM      3  O   UNL     1       2.225   9.131  17.478  0.00  0.00    +0.000 OA
ATOM      4  H   UNL     1       2.012   6.982  19.847  0.00  0.00    +0.000 HD
ENDROOT
BRANCH   1   9
ATOM      5  C   UNL     1      -1.210  11.513  22.727  0.00  0.00    +0.000 C 
ATOM      6  C   UNL     1      -0.342  10.698  21.809  0.00  0.00    +0.000 A 
ATOM      7  C   UNL     1       0.454   9.707  22.399  0.00  0.00    +0.000 A 
ATOM      8  C   UNL     1       1.208   8.816  21.629  0.00  0.00    +0.000 A 
ATOM      9  C   UNL     1       1.195   8.864  20.240  0.00  0.00    +0.000 A 
ATOM     10  C   UNL     1       0.476   9.908  19.633  0.00  0.00    +0.000 A 
ATOM     11  C   UNL     1      -0.280  10.835  20.411  0.00  0.00    +0.000 A 
BRANCH  11  12
ATOM     12  S   UNL     1      -1.226  12.082  19.515  0.00  0.00    +0.000 S 
ATOM     13  O   UNL     1      -0.964  11.876  18.110  0.00  0.00    +0.000 OA
ATOM     14  O   UNL     1      -2.589  12.090  20.008  0.00  0.00    +0.000 OA
BRANCH  12  15
ATOM     15  N   UNL     1      -0.499  13.546  19.954  0.00  0.00    +0.000 NA
ATOM     16  C   UNL     1       0.633  14.058  19.149  0.00  0.00    +0.000 C 
ATOM     17  C   UNL     1      -1.364  14.619  20.466  0.00  0.00    +0.000 C 
ENDBRANCH  12  15
ENDBRANCH  11  12
ENDBRANCH   1   9
BRANCH   2  18
ATOM     18  C   UNL     1       3.121   6.913  17.533  0.00  0.00    +0.000 C 
BRANCH  18  19
ATOM     19  N   UNL     1       2.909   5.678  18.272  0.00  0.00    +0.000 N 
ATOM     20  C   UNL     1       1.973   4.723  17.962  0.00  0.00    +0.000 C 
ATOM     21  O   UNL     1       1.086   4.813  17.127  0.00  0.00    +0.000 OA
ATOM     22  C   UNL     1       2.234   3.480  18.802  0.00  0.00    +0.000 C 
ATOM     23  C   UNL     1       1.068   3.097  19.737  0.00  0.00    +0.000 C 
ATOM     24  C   UNL     1       1.523   2.030  20.726  0.00  0.00    +0.000 C 
ATOM     25  C   UNL     1       2.377   2.613  21.583  0.00  0.00    +0.000 C 
ATOM     26  C   UNL     1       2.549   4.042  21.125  0.00  0.00    +0.000 C 
ATOM     27  C   UNL     1       1.086   4.281  20.709  0.00  0.00    +0.000 C 
ATOM     28  C   UNL     1       3.325   3.955  19.789  0.00  0.00    +0.000 C 
ATOM     29  C   UNL     1       3.795   5.257  19.217  0.00  0.00    +0.000 C 
ATOM     30  O   UNL     1       4.826   5.832  19.531  0.00  0.00    +0.000 OA
ENDBRANCH  18  19
ENDBRANCH   2  18
TORSDOF 5
ENDMDL
MODEL 8
REMARK VINA RESULT:      -7.9      5.714      7.268
REMARK  Name = 
REMARK  8 active torsions:
REMARK  status: ('A' for Active; 'I' for Inactive)
REMARK    1  A    between atoms: C_1  and  C_2
REMARK    2  A    between atoms: C_5  and  N_6
REMARK    3  A    between atoms: C_7  and  C_9
REMARK    4  A    between atoms: C_9  and  N_10
REMARK    5  A    between atoms: C_23  and  S_24
REMARK    6  A    between atoms: S_24  and  N_27
REMARK    7  A    between atoms: N_27  and  C_28
REMARK    8  A    between atoms: N_27  and  C_29
REMARK                            x       y       z     vdW  Elec       q    Type
REMARK                         _______ _______ _______ _____ _____    ______ ____
ROOT
ATOM      1  N   UNL     1       7.836   9.019  17.489  0.00  0.00    +0.000 N 
ATOM      2  C   UNL     1       7.744   7.656  17.809  0.00  0.00    +0.000 C 
ATOM      3  O   UNL     1       8.318   7.103  18.744  0.00  0.00    +0.000 OA
ATOM      4  H   UNL     1       7.326   9.338  16.671  0.00  0.00    +0.000 HD
ENDROOT
BRANCH   1   9
ATOM      5  C   UNL     1      10.159  13.040  20.922  0.00  0.00    +0.000 C 
ATOM      6  C   UNL     1       9.628  12.065  19.909  0.00  0.00    +0.000 A 
ATOM      7  C   UNL     1       9.895  10.707  20.131  0.00  0.00    +0.000 A 
ATOM      8  C   UNL     1       9.349   9.709  19.317  0.00  0.00    +0.000 A 
ATOM      9  C   UNL     1       8.507  10.016  18.255  0.00  0.00    +0.000 A 
ATOM     10  C   UNL     1       8.303  11.375  17.961  0.00  0.00    +0.000 A 
ATOM     11  C   UNL     1       8.871  12.401  18.772  0.00  0.00    +0.000 A 
BRANCH  11  12
ATOM     12  S   UNL     1       8.472  14.107  18.342  0.00  0.00    +0.000 S 
ATOM     13  O   UNL     1       7.616  14.055  17.181  0.00  0.00    +0.000 OA
ATOM     14  O   UNL     1       8.042  14.809  19.534  0.00  0.00    +0.000 OA
BRANCH  12  15
ATOM     15  N   UNL     1       9.952  14.765  17.848  0.00  0.00    +0.000 NA
ATOM     16  C   UNL     1      10.901  13.917  17.093  0.00  0.00    +0.000 C 
ATOM     17  C   UNL     1       9.969  16.168  17.409  0.00  0.00    +0.000 C 
ENDBRANCH  12  15
ENDBRANCH  11  12
ENDBRANCH   1   9
BRANCH   2  18
ATOM     18  C   UNL     1       6.860   6.822  16.869  0.00  0.00    +0.000 C 
BRANCH  18  19
ATOM     19  N   UNL     1       5.835   6.072  17.580  0.00  0.00    +0.000 N 
ATOM     20  C   UNL     1       6.056   4.937  18.318  0.00  0.00    +0.000 C 
ATOM     21  O   UNL     1       7.095   4.297  18.382  0.00  0.00    +0.000 OA
ATOM     22  C   UNL     1       4.797   4.603  19.106  0.00  0.00    +0.000 C 
ATOM     23  C   UNL     1       4.184   3.231  18.760  0.00  0.00    +0.000 C 
ATOM     24  C   UNL     1       2.796   3.110  19.378  0.00  0.00    +0.000 C 
ATOM     25  C   UNL     1       1.983   3.946  18.712  0.00  0.00    +0.000 C 
ATOM     26  C   UNL     1       2.839   4.675  17.703  0.00  0.00    +0.000 C 
ATOM     27  C   UNL     1       3.731   3.481  17.318  0.00  0.00    +0.000 C 
ATOM     28  C   UNL     1       3.760   5.597  18.536  0.00  0.00    +0.000 C 
ATOM     29  C   UNL     1       4.583   6.579  17.758  0.00  0.00    +0.000 C 
ATOM     30  O   UNL     1       4.196   7.671  17.372  0.00  0.00    +0.000 OA
ENDBRANCH  18  19
ENDBRANCH   2  18
TORSDOF 5
ENDMDL
MODEL 9
REMARK VINA RESULT:      -7.9      1.132      1.400
REMARK  Name = 
REMARK  8 active torsions:
REMARK  status: ('A' for Active; 'I' for Inactive)
REMARK    1  A    between atoms: C_1  and  C_2
REMARK    2  A    between atoms: C_5  and  N_6
REMARK    3  A    between atoms: C_7  and  C_9
REMARK    4  A    between atoms: C_9  and  N_10
REMARK    5  A    between atoms: C_23  and  S_24
REMARK    6  A    between atoms: S_24  and  N_27
REMARK    7  A    between atoms: N_27  and  C_28
REMARK    8  A    between atoms: N_27  and  C_29
REMARK                            x       y       z     vdW  Elec       q    Type
REMARK                         _______ _______ _______ _____ _____    ______ ____
ROOT
ATOM      1  N   UNL     1       1.763   6.866  20.879  0.00  0.00    +0.000 N 
ATOM      2  C   UNL     1       2.560   6.525  19.776  0.00  0.00    +0.000 C 
ATOM      3  O   UNL     1       2.806   7.256  18.821  0.00  0.00    +0.000 OA
ATOM      4  H   UNL     1       1.622   6.153  21.588  0.00  0.00    +0.000 HD
ENDROOT
BRANCH   1   9
ATOM      5  C   UNL     1      -0.980  11.839  21.929  0.00  0.00    +0.000 C 
ATOM      6  C   UNL     1      -0.155  10.630  21.584  0.00  0.00    +0.000 A 
ATOM      7  C   UNL     1       0.239   9.803  22.645  0.00  0.00    +0.000 A 
ATOM      8  C   UNL     1       0.906   8.595  22.424  0.00  0.00    +0.000 A 
ATOM      9  C   UNL     1       1.201   8.150  21.141  0.00  0.00    +0.000 A 
ATOM     10  C   UNL     1       0.897   9.009  20.071  0.00  0.00    +0.000 A 
ATOM     11  C   UNL     1       0.234  10.253  20.286  0.00  0.00    +0.000 A 
BRANCH  11  12
ATOM     12  S   UNL     1      -0.175  11.231  18.827  0.00  0.00    +0.000 S 
ATOM     13  O   UNL     1      -0.201  12.613  19.245  0.00  0.00    +0.000 OA
ATOM     14  O   UNL     1       0.671  10.819  17.726  0.00  0.00    +0.000 OA
BRANCH  12  15
ATOM     15  N   UNL     1      -1.767  10.785  18.464  0.00  0.00    +0.000 NA
ATOM     16  C   UNL     1      -2.859  11.758  18.694  0.00  0.00    +0.000 C 
ATOM     17  C   UNL     1      -1.994   9.944  17.280  0.00  0.00    +0.000 C 
ENDBRANCH  12  15
ENDBRANCH  11  12
ENDBRANCH   1   9
BRANCH   2  18
ATOM     18  C   UNL     1       3.132   5.099  19.800  0.00  0.00    +0.000 C 
BRANCH  18  19
ATOM     19  N   UNL     1       4.059   4.847  18.707  0.00  0.00    +0.000 N 
ATOM     20  C   UNL     1       5.422   4.980  18.780  0.00  0.00    +0.000 C 
ATOM     21  O   UNL     1       6.061   5.460  19.704  0.00  0.00    +0.000 OA
ATOM     22  C   UNL     1       6.048   4.385  17.526  0.00  0.00    +0.000 C 
ATOM     23  C   UNL     1       6.851   5.397  16.682  0.00  0.00    +0.000 C 
ATOM     24  C   UNL     1       7.193   4.790  15.327  0.00  0.00    +0.000 C 
ATOM     25  C   UNL     1       6.051   4.697  14.626  0.00  0.00    +0.000 C 
ATOM     26  C   UNL     1       4.941   5.172  15.535  0.00  0.00    +0.000 C 
ATOM     27  C   UNL     1       5.724   6.318  16.202  0.00  0.00    +0.000 C 
ATOM     28  C   UNL     1       4.820   4.091  16.635  0.00  0.00    +0.000 C 
ATOM     29  C   UNL     1       3.652   4.228  17.563  0.00  0.00    +0.000 C 
ATOM     30  O   UNL     1       2.523   3.820  17.338  0.00  0.00    +0.000 OA
ENDBRANCH  18  19
ENDBRANCH   2  18
TORSDOF 5
ENDMDL
