MODEL 1
REMARK VINA RESULT:      -8.7      0.000      0.000
REMARK  Name = 
REMARK  3 active torsions:
REMARK  status: ('A' for Active; 'I' for Inactive)
REMARK    1  A    between atoms: C_2  and  C_18
REMARK    2  A    between atoms: N_3  and  C_4
REMARK    3  A    between atoms: C_9  and  N_10
REMARK                            x       y       z     vdW  Elec       q    Type
REMARK                         _______ _______ _______ _____ _____    ______ ____
ROOT
ATOM      1  C   UNL     1       3.412   3.947  19.279  0.00  0.00    +0.000 A 
ATOM      2  C   UNL     1       3.387   2.632  19.778  0.00  0.00    +0.000 A 
ATOM      3  C   UNL     1       2.797   2.348  21.009  0.00  0.00    +0.000 A 
ATOM      4  C   UNL     1       2.184   3.364  21.726  0.00  0.00    +0.000 A 
ATOM      5  C   UNL     1       2.140   4.656  21.202  0.00  0.00    +0.000 A 
ATOM      6  C   UNL     1       2.747   4.982  19.979  0.00  0.00    +0.000 A 
ENDROOT
BRANCH   6   7
ATOM      7  N   UNL     1       2.607   6.281  19.407  0.00  0.00    +0.000 N 
ATOM      8  C   UNL     1       1.926   7.342  19.953  0.00  0.00    +0.000 C 
ATOM      9  O   UNL     1       1.419   7.344  21.076  0.00  0.00    +0.000 OA
ATOM     10  N   UNL     1       1.786   8.459  19.164  0.00  0.00    +0.000 N 
ATOM     11  C   UNL     1       2.239   8.729  17.813  0.00  0.00    +0.000 C 
ATOM     12  C   UNL     1       2.267  10.251  17.753  0.00  0.00    +0.000 C 
ATOM     13  C   UNL     1       1.090  10.670  18.627  0.00  0.00    +0.000 C 
ATOM     14  C   UNL     1       0.976   9.560  19.661  0.00  0.00    +0.000 C 
ATOM     15  H   UNL     1       3.216   6.480  18.631  0.00  0.00    +0.000 HD
ENDBRANCH   6   7
BRANCH   1  18
ATOM     16  O   UNL     1       6.203   4.610  18.997  0.00  0.00    +0.000 OA
ATOM     17  C   UNL     1       5.483   4.387  18.030  0.00  0.00    +0.000 C 
ATOM     18  N   UNL     1       4.125   4.135  18.072  0.00  0.00    +0.000 N 
ATOM     19  H   UNL     1       3.788   3.658  17.241  0.00  0.00    +0.000 HD
BRANCH  17  20
ATOM     20  C   UNL     1       6.018   4.358  16.667  0.00  0.00    +0.000 A 
ATOM     21  C   UNL     1       7.034   5.157  16.179  0.00  0.00    +0.000 A 
ATOM     22  N   UNL     1       7.090   4.910  14.836  0.00  0.00    +0.000 N 
ATOM     23  C   UNL     1       7.877   5.516  13.859  0.00  0.00    +0.000 A 
ATOM     24  C   UNL     1       7.714   5.159  12.574  0.00  0.00    +0.000 A 
ATOM     25  C   UNL     1       6.724   4.142  12.248  0.00  0.00    +0.000 A 
ATOM     26  C   UNL     1       5.983   3.545  13.202  0.00  0.00    +0.000 A 
ATOM     27  C   UNL     1       6.144   3.925  14.565  0.00  0.00    +0.000 A 
ATOM     28  N   UNL     1       5.518   3.543  15.661  0.00  0.00    +0.000 NA
ENDBRANCH  17  20
ENDBRANCH   1  18
TORSDOF 3
ENDMDL
MODEL 2
REMARK VINA RESULT:      -8.4      0.614      1.199
REMARK  Name = 
REMARK  3 active torsions:
REMARK  status: ('A' for Active; 'I' for Inactive)
REMARK    1  A    between atoms: C_2  and  C_18
REMARK    2  A    between atoms: N_3  and  C_4
REMARK    3  A    between atoms: C_9  and  N_10
REMARK                            x       y       z     vdW  Elec       q    Type
REMARK                         _______ _______ _______ _____ _____    ______ ____
ROOT
ATOM      1  C   UNL     1       3.332   4.189  19.107  0.00  0.00    +0.000 A 
ATOM      2  C   UNL     1       3.350   2.855  19.554  0.00  0.00    +0.000 A 
ATOM      3  C   UNL     1       2.848   2.517  20.810  0.00  0.00    +0.000 A 
ATOM      4  C   UNL     1       2.278   3.499  21.606  0.00  0.00    +0.000 A 
ATOM      5  C   UNL     1       2.189   4.810  21.139  0.00  0.00    +0.000 A 
ATOM      6  C   UNL     1       2.709   5.189  19.891  0.00  0.00    +0.000 A 
ENDROOT
BRANCH   6   7
ATOM      7  N   UNL     1       2.520   6.508  19.381  0.00  0.00    +0.000 N 
ATOM      8  C   UNL     1       1.844   7.531  20.000  0.00  0.00    +0.000 C 
ATOM      9  O   UNL     1       1.386   7.476  21.143  0.00  0.00    +0.000 OA
ATOM     10  N   UNL     1       1.650   8.678  19.266  0.00  0.00    +0.000 N 
ATOM     11  C   UNL     1       2.040   9.012  17.910  0.00  0.00    +0.000 C 
ATOM     12  C   UNL     1       2.037  10.536  17.914  0.00  0.00    +0.000 C 
ATOM     13  C   UNL     1       0.891  10.894  18.854  0.00  0.00    +0.000 C 
ATOM     14  C   UNL     1       0.842   9.739  19.843  0.00  0.00    +0.000 C 
ATOM     15  H   UNL     1       3.092   6.752  18.589  0.00  0.00    +0.000 HD
ENDBRANCH   6   7
BRANCH   1  18
ATOM     16  O   UNL     1       6.162   4.398  18.601  0.00  0.00    +0.000 OA
ATOM     17  C   UNL     1       5.332   4.449  17.701  0.00  0.00    +0.000 C 
ATOM     18  N   UNL     1       3.959   4.430  17.863  0.00  0.00    +0.000 N 
ATOM     19  H   UNL     1       3.468   4.149  17.019  0.00  0.00    +0.000 HD
BRANCH  17  20
ATOM     20  C   UNL     1       5.731   4.534  16.294  0.00  0.00    +0.000 A 
ATOM     21  C   UNL     1       5.251   3.745  15.267  0.00  0.00    +0.000 A 
ATOM     22  N   UNL     1       6.010   4.052  14.173  0.00  0.00    +0.000 N 
ATOM     23  C   UNL     1       6.001   3.481  12.903  0.00  0.00    +0.000 A 
ATOM     24  C   UNL     1       6.894   3.900  11.991  0.00  0.00    +0.000 A 
ATOM     25  C   UNL     1       7.839   4.945  12.362  0.00  0.00    +0.000 A 
ATOM     26  C   UNL     1       7.826   5.508  13.587  0.00  0.00    +0.000 A 
ATOM     27  C   UNL     1       6.887   5.062  14.561  0.00  0.00    +0.000 A 
ATOM     28  N   UNL     1       6.706   5.402  15.822  0.00  0.00    +0.000 NA
ENDBRANCH  17  20
ENDBRANCH   1  18
TORSDOF 3
ENDMDL
MODEL 3
REMARK VINA RESULT:      -8.2      2.756      6.992
REMARK  Name = 
REMARK  3 active torsions:
REMARK  status: ('A' for Active; 'I' for Inactive)
REMARK    1  A    between atoms: C_2  and  C_18
REMARK    2  A    between atoms: N_3  and  C_4
REMARK    3  A    between atoms: C_9  and  N_10
REMARK                            x       y       z     vdW  Elec       q    Type
REMARK                         _______ _______ _______ _____ _____    ______ ____
ROOT
ATOM      1  C   UNL     1       2.075   4.281  18.669  0.00  0.00    +0.000 A 
ATOM      2  C   UNL     1       1.114   3.312  19.014  0.00  0.00    +0.000 A 
ATOM      3  C   UNL     1       1.304   1.971  18.684  0.00  0.00    +0.000 A 
ATOM      4  C   UNL     1       2.475   1.580  18.054  0.00  0.00    +0.000 A 
ATOM      5  C   UNL     1       3.464   2.523  17.774  0.00  0.00    +0.000 A 
ATOM      6  C   UNL     1       3.294   3.885  18.069  0.00  0.00    +0.000 A 
ENDROOT
BRANCH   6   7
ATOM      7  N   UNL     1       4.352   4.821  17.873  0.00  0.00    +0.000 N 
ATOM      8  C   UNL     1       5.546   4.855  18.552  0.00  0.00    +0.000 C 
ATOM      9  O   UNL     1       5.911   4.005  19.366  0.00  0.00    +0.000 OA
ATOM     10  N   UNL     1       6.363   5.934  18.312  0.00  0.00    +0.000 N 
ATOM     11  C   UNL     1       6.186   7.085  17.448  0.00  0.00    +0.000 C 
ATOM     12  C   UNL     1       7.613   7.570  17.219  0.00  0.00    +0.000 C 
ATOM     13  C   UNL     1       8.311   7.281  18.543  0.00  0.00    +0.000 C 
ATOM     14  C   UNL     1       7.582   6.065  19.094  0.00  0.00    +0.000 C 
ATOM     15  H   UNL     1       4.284   5.383  17.040  0.00  0.00    +0.000 HD
ENDBRANCH   6   7
BRANCH   1  18
ATOM     16  O   UNL     1       2.317   5.619  21.211  0.00  0.00    +0.000 OA
ATOM     17  C   UNL     1       1.944   6.201  20.199  0.00  0.00    +0.000 C 
ATOM     18  N   UNL     1       1.731   5.621  18.962  0.00  0.00    +0.000 N 
ATOM     19  H   UNL     1       1.754   6.296  18.203  0.00  0.00    +0.000 HD
BRANCH  17  20
ATOM     20  C   UNL     1       1.679   7.641  20.197  0.00  0.00    +0.000 A 
ATOM     21  C   UNL     1       1.215   8.381  21.268  0.00  0.00    +0.000 A 
ATOM     22  N   UNL     1       0.957   9.629  20.776  0.00  0.00    +0.000 N 
ATOM     23  C   UNL     1       0.391  10.730  21.414  0.00  0.00    +0.000 A 
ATOM     24  C   UNL     1       0.164  11.850  20.708  0.00  0.00    +0.000 A 
ATOM     25  C   UNL     1       0.526  11.877  19.298  0.00  0.00    +0.000 A 
ATOM     26  C   UNL     1       1.094  10.814  18.694  0.00  0.00    +0.000 A 
ATOM     27  C   UNL     1       1.329   9.621  19.434  0.00  0.00    +0.000 A 
ATOM     28  N   UNL     1       1.812   8.447  19.075  0.00  0.00    +0.000 NA
ENDBRANCH  17  20
ENDBRANCH   1  18
TORSDOF 3
ENDMDL
MODEL 4
REMARK VINA RESULT:      -8.2      2.914      7.373
REMARK  Name = 
REMARK  3 active torsions:
REMARK  status: ('A' for Active; 'I' for Inactive)
REMARK    1  A    between atoms: C_2  and  C_18
REMARK    2  A    between atoms: N_3  and  C_4
REMARK    3  A    between atoms: C_9  and  N_10
REMARK                            x       y       z     vdW  Elec       q    Type
REMARK                         _______ _______ _______ _____ _____    ______ ____
ROOT
ATOM      1  C   UNL     1       2.138   4.377  19.191  0.00  0.00    +0.000 A 
ATOM      2  C   UNL     1       1.192   3.400  19.548  0.00  0.00    +0.000 A 
ATOM      3  C   UNL     1       1.232   2.127  18.980  0.00  0.00    +0.000 A 
ATOM      4  C   UNL     1       2.246   1.806  18.092  0.00  0.00    +0.000 A 
ATOM      5  C   UNL     1       3.231   2.746  17.789  0.00  0.00    +0.000 A 
ATOM      6  C   UNL     1       3.205   4.044  18.322  0.00  0.00    +0.000 A 
ENDROOT
BRANCH   6   7
ATOM      7  N   UNL     1       4.272   4.962  18.087  0.00  0.00    +0.000 N 
ATOM      8  C   UNL     1       5.518   4.927  18.664  0.00  0.00    +0.000 C 
ATOM      9  O   UNL     1       5.923   4.025  19.400  0.00  0.00    +0.000 OA
ATOM     10  N   UNL     1       6.346   5.996  18.412  0.00  0.00    +0.000 N 
ATOM     11  C   UNL     1       6.133   7.196  17.626  0.00  0.00    +0.000 C 
ATOM     12  C   UNL     1       7.550   7.655  17.304  0.00  0.00    +0.000 C 
ATOM     13  C   UNL     1       8.346   7.276  18.548  0.00  0.00    +0.000 C 
ATOM     14  C   UNL     1       7.629   6.052  19.094  0.00  0.00    +0.000 C 
ATOM     15  H   UNL     1       4.152   5.569  17.293  0.00  0.00    +0.000 HD
ENDBRANCH   6   7
BRANCH   1  18
ATOM     16  O   UNL     1       2.278   6.910  17.821  0.00  0.00    +0.000 OA
ATOM     17  C   UNL     1       1.962   6.822  19.002  0.00  0.00    +0.000 C 
ATOM     18  N   UNL     1       1.940   5.661  19.751  0.00  0.00    +0.000 N 
ATOM     19  H   UNL     1       1.350   5.736  20.574  0.00  0.00    +0.000 HD
BRANCH  17  20
ATOM     20  C   UNL     1       1.549   7.996  19.773  0.00  0.00    +0.000 A 
ATOM     21  C   UNL     1       1.170   8.001  21.101  0.00  0.00    +0.000 A 
ATOM     22  N   UNL     1       0.713   9.263  21.356  0.00  0.00    +0.000 N 
ATOM     23  C   UNL     1       0.132   9.775  22.513  0.00  0.00    +0.000 A 
ATOM     24  C   UNL     1      -0.312  11.044  22.516  0.00  0.00    +0.000 A 
ATOM     25  C   UNL     1      -0.162  11.843  21.308  0.00  0.00    +0.000 A 
ATOM     26  C   UNL     1       0.422  11.346  20.199  0.00  0.00    +0.000 A 
ATOM     27  C   UNL     1       0.886   9.999  20.187  0.00  0.00    +0.000 A 
ATOM     28  N   UNL     1       1.432   9.270  19.233  0.00  0.00    +0.000 NA
ENDBRANCH  17  20
ENDBRANCH   1  18
TORSDOF 3
ENDMDL
MODEL 5
REMARK VINA RESULT:      -8.1      4.430      6.112
REMARK  Name = 
REMARK  3 active torsions:
REMARK  status: ('A' for Active; 'I' for Inactive)
REMARK    1  A    between atoms: C_2  and  C_18
REMARK    2  A    between atoms: N_3  and  C_4
REMARK    3  A    between atoms: C_9  and  N_10
REMARK                            x       y       z     vdW  Elec       q    Type
REMARK                         _______ _______ _______ _____ _____    ______ ____
ROOT
ATOM      1  C   UNL     1       6.320   6.369  16.663  0.00  0.00    +0.000 A 
ATOM      2  C   UNL     1       7.177   5.633  15.824  0.00  0.00    +0.000 A 
ATOM      3  C   UNL     1       6.813   4.367  15.366  0.00  0.00    +0.000 A 
ATOM      4  C   UNL     1       5.571   3.850  15.700  0.00  0.00    +0.000 A 
ATOM      5  C   UNL     1       4.686   4.604  16.471  0.00  0.00    +0.000 A 
ATOM      6  C   UNL     1       5.032   5.870  16.970  0.00  0.00    +0.000 A 
ENDROOT
BRANCH   6   7
ATOM      7  N   UNL     1       4.082   6.674  17.669  0.00  0.00    +0.000 N 
ATOM      8  C   UNL     1       3.560   6.419  18.914  0.00  0.00    +0.000 C 
ATOM      9  O   UNL     1       3.922   5.499  19.649  0.00  0.00    +0.000 OA
ATOM     10  N   UNL     1       2.544   7.243  19.338  0.00  0.00    +0.000 N 
ATOM     11  C   UNL     1       1.899   8.366  18.686  0.00  0.00    +0.000 C 
ATOM     12  C   UNL     1       1.301   9.146  19.851  0.00  0.00    +0.000 C 
ATOM     13  C   UNL     1       0.892   8.062  20.842  0.00  0.00    +0.000 C 
ATOM     14  C   UNL     1       1.888   6.938  20.599  0.00  0.00    +0.000 C 
ATOM     15  H   UNL     1       3.932   7.594  17.290  0.00  0.00    +0.000 HD
ENDBRANCH   6   7
BRANCH   1  18
ATOM     16  O   UNL     1       8.241   6.726  18.783  0.00  0.00    +0.000 OA
ATOM     17  C   UNL     1       7.807   7.667  18.129  0.00  0.00    +0.000 C 
ATOM     18  N   UNL     1       6.835   7.593  17.149  0.00  0.00    +0.000 N 
ATOM     19  H   UNL     1       6.856   8.386  16.514  0.00  0.00    +0.000 HD
BRANCH  17  20
ATOM     20  C   UNL     1       8.304   9.031  18.326  0.00  0.00    +0.000 A 
ATOM     21  C   UNL     1       7.947  10.138  17.581  0.00  0.00    +0.000 A 
ATOM     22  N   UNL     1       8.767  11.149  17.998  0.00  0.00    +0.000 N 
ATOM     23  C   UNL     1       8.884  12.448  17.512  0.00  0.00    +0.000 A 
ATOM     24  C   UNL     1       9.817  13.261  18.036  0.00  0.00    +0.000 A 
ATOM     25  C   UNL     1      10.671  12.756  19.102  0.00  0.00    +0.000 A 
ATOM     26  C   UNL     1      10.535  11.503  19.582  0.00  0.00    +0.000 A 
ATOM     27  C   UNL     1       9.554  10.634  19.025  0.00  0.00    +0.000 A 
ATOM     28  N   UNL     1       9.260   9.372  19.272  0.00  0.00    +0.000 NA
ENDBRANCH  17  20
ENDBRANCH   1  18
TORSDOF 3
ENDMDL
MODEL 6
REMARK VINA RESULT:      -8.0      2.738      6.768
REMARK  Name = 
REMARK  3 active torsions:
REMARK  status: ('A' for Active; 'I' for Inactive)
REMARK    1  A    between atoms: C_2  and  C_18
REMARK    2  A    between atoms: N_3  and  C_4
REMARK    3  A    between atoms: C_9  and  N_10
REMARK                            x       y       z     vdW  Elec       q    Type
REMARK                         _______ _______ _______ _____ _____    ______ ____
ROOT
ATOM      1  C   UNL     1       2.458   4.085  18.794  0.00  0.00    +0.000 A 
ATOM      2  C   UNL     1       1.401   3.163  18.910  0.00  0.00    +0.000 A 
ATOM      3  C   UNL     1       1.611   1.805  18.669  0.00  0.00    +0.000 A 
ATOM      4  C   UNL     1       2.885   1.353  18.363  0.00  0.00    +0.000 A 
ATOM      5  C   UNL     1       3.951   2.251  18.319  0.00  0.00    +0.000 A 
ATOM      6  C   UNL     1       3.770   3.627  18.530  0.00  0.00    +0.000 A 
ENDROOT
BRANCH   6   7
ATOM      7  N   UNL     1       4.882   4.519  18.584  0.00  0.00    +0.000 N 
ATOM      8  C   UNL     1       5.064   5.642  17.814  0.00  0.00    +0.000 C 
ATOM      9  O   UNL     1       4.229   6.093  17.027  0.00  0.00    +0.000 OA
ATOM     10  N   UNL     1       6.280   6.276  17.921  0.00  0.00    +0.000 N 
ATOM     11  C   UNL     1       7.445   5.961  18.724  0.00  0.00    +0.000 C 
ATOM     12  C   UNL     1       8.177   7.295  18.811  0.00  0.00    +0.000 C 
ATOM     13  C   UNL     1       7.911   7.943  17.456  0.00  0.00    +0.000 C 
ATOM     14  C   UNL     1       6.553   7.400  17.041  0.00  0.00    +0.000 C 
ATOM     15  H   UNL     1       5.485   4.411  19.383  0.00  0.00    +0.000 HD
ENDBRANCH   6   7
BRANCH   1  18
ATOM     16  O   UNL     1       2.048   5.482  21.283  0.00  0.00    +0.000 OA
ATOM     17  C   UNL     1       1.997   6.050  20.198  0.00  0.00    +0.000 C 
ATOM     18  N   UNL     1       2.109   5.445  18.960  0.00  0.00    +0.000 N 
ATOM     19  H   UNL     1       2.372   6.098  18.227  0.00  0.00    +0.000 HD
BRANCH  17  20
ATOM     20  C   UNL     1       1.809   7.499  20.101  0.00  0.00    +0.000 A 
ATOM     21  C   UNL     1       1.347   8.325  21.107  0.00  0.00    +0.000 A 
ATOM     22  N   UNL     1       1.174   9.553  20.533  0.00  0.00    +0.000 N 
ATOM     23  C   UNL     1       0.644  10.718  21.082  0.00  0.00    +0.000 A 
ATOM     24  C   UNL     1       0.503  11.803  20.302  0.00  0.00    +0.000 A 
ATOM     25  C   UNL     1       0.916  11.725  18.908  0.00  0.00    +0.000 A 
ATOM     26  C   UNL     1       1.448  10.600  18.390  0.00  0.00    +0.000 A 
ATOM     27  C   UNL     1       1.593   9.443  19.209  0.00  0.00    +0.000 A 
ATOM     28  N   UNL     1       2.024   8.227  18.939  0.00  0.00    +0.000 NA
ENDBRANCH  17  20
ENDBRANCH   1  18
TORSDOF 3
ENDMDL
MODEL 7
REMARK VINA RESULT:      -7.9      4.333      6.044
REMARK  Name = 
REMARK  3 active torsions:
REMARK  status: ('A' for Active; 'I' for Inactive)
REMARK    1  A    between atoms: C_2  and  C_18
REMARK    2  A    between atoms: N_3  and  C_4
REMARK    3  A    between atoms: C_9  and  N_10
REMARK                            x       y       z     vdW  Elec       q    Type
REMARK                         _______ _______ _______ _____ _____    ______ ____
ROOT
ATOM      1  C   UNL     1       6.292   6.381  16.631  0.00  0.00    +0.000 A 
ATOM      2  C   UNL     1       7.160   5.525  15.929  0.00  0.00    +0.000 A 
ATOM      3  C   UNL     1       6.747   4.251  15.543  0.00  0.00    +0.000 A 
ATOM      4  C   UNL     1       5.449   3.842  15.809  0.00  0.00    +0.000 A 
ATOM      5  C   UNL     1       4.560   4.714  16.439  0.00  0.00    +0.000 A 
ATOM      6  C   UNL     1       4.952   5.992  16.864  0.00  0.00    +0.000 A 
ENDROOT
BRANCH   6   7
ATOM      7  N   UNL     1       4.007   6.910  17.414  0.00  0.00    +0.000 N 
ATOM      8  C   UNL     1       3.455   6.855  18.670  0.00  0.00    +0.000 C 
ATOM      9  O   UNL     1       3.780   6.048  19.543  0.00  0.00    +0.000 OA
ATOM     10  N   UNL     1       2.450   7.754  18.943  0.00  0.00    +0.000 N 
ATOM     11  C   UNL     1       1.844   8.780  18.116  0.00  0.00    +0.000 C 
ATOM     12  C   UNL     1       1.241   9.737  19.137  0.00  0.00    +0.000 C 
ATOM     13  C   UNL     1       0.789   8.821  20.270  0.00  0.00    +0.000 C 
ATOM     14  C   UNL     1       1.762   7.654  20.220  0.00  0.00    +0.000 C 
ATOM     15  H   UNL     1       3.886   7.766  16.898  0.00  0.00    +0.000 HD
ENDBRANCH   6   7
BRANCH   1  18
ATOM     16  O   UNL     1       8.136   6.780  18.812  0.00  0.00    +0.000 OA
ATOM     17  C   UNL     1       7.782   7.697  18.079  0.00  0.00    +0.000 C 
ATOM     18  N   UNL     1       6.850   7.607  17.061  0.00  0.00    +0.000 N 
ATOM     19  H   UNL     1       6.942   8.355  16.379  0.00  0.00    +0.000 HD
BRANCH  17  20
ATOM     20  C   UNL     1       8.342   9.043  18.212  0.00  0.00    +0.000 A 
ATOM     21  C   UNL     1       9.214   9.464  19.197  0.00  0.00    +0.000 A 
ATOM     22  N   UNL     1       9.341  10.815  19.032  0.00  0.00    +0.000 N 
ATOM     23  C   UNL     1      10.030  11.739  19.813  0.00  0.00    +0.000 A 
ATOM     24  C   UNL     1       9.960  13.043  19.498  0.00  0.00    +0.000 A 
ATOM     25  C   UNL     1       9.168  13.445  18.343  0.00  0.00    +0.000 A 
ATOM     26  C   UNL     1       8.522  12.542  17.580  0.00  0.00    +0.000 A 
ATOM     27  C   UNL     1       8.586  11.158  17.913  0.00  0.00    +0.000 A 
ATOM     28  N   UNL     1       8.013  10.100  17.374  0.00  0.00    +0.000 NA
ENDBRANCH  17  20
ENDBRANCH   1  18
TORSDOF 3
ENDMDL
MODEL 8
REMARK VINA RESULT:      -7.8      2.709      6.830
REMARK  Name = 
REMARK  3 active torsions:
REMARK  status: ('A' for Active; 'I' for Inactive)
REMARK    1  A    between atoms: C_2  and  C_18
REMARK    2  A    between atoms: N_3  and  C_4
REMARK    3  A    between atoms: C_9  and  N_10
REMARK                            x       y       z     vdW  Elec       q    Type
REMARK                         _______ _______ _______ _____ _____    ______ ____
ROOT
ATOM      1  C   UNL     1       2.142   4.195  18.677  0.00  0.00    +0.000 A 
ATOM      2  C   UNL     1       1.213   3.217  19.078  0.00  0.00    +0.000 A 
ATOM      3  C   UNL     1       1.463   1.863  18.856  0.00  0.00    +0.000 A 
ATOM      4  C   UNL     1       2.662   1.473  18.280  0.00  0.00    +0.000 A 
ATOM      5  C   UNL     1       3.619   2.432  17.947  0.00  0.00    +0.000 A 
ATOM      6  C   UNL     1       3.389   3.804  18.132  0.00  0.00    +0.000 A 
ENDROOT
BRANCH   6   7
ATOM      7  N   UNL     1       4.413   4.766  17.885  0.00  0.00    +0.000 N 
ATOM      8  C   UNL     1       5.594   4.893  18.574  0.00  0.00    +0.000 C 
ATOM      9  O   UNL     1       5.979   4.117  19.451  0.00  0.00    +0.000 OA
ATOM     10  N   UNL     1       6.374   5.984  18.270  0.00  0.00    +0.000 N 
ATOM     11  C   UNL     1       6.166   7.064  17.325  0.00  0.00    +0.000 C 
ATOM     12  C   UNL     1       7.576   7.588  17.081  0.00  0.00    +0.000 C 
ATOM     13  C   UNL     1       8.264   7.419  18.431  0.00  0.00    +0.000 C 
ATOM     14  C   UNL     1       7.575   6.217  19.056  0.00  0.00    +0.000 C 
ATOM     15  H   UNL     1       4.337   5.265  17.014  0.00  0.00    +0.000 HD
ENDBRANCH   6   7
BRANCH   1  18
ATOM     16  O   UNL     1       2.430   5.785  21.064  0.00  0.00    +0.000 OA
ATOM     17  C   UNL     1       1.978   6.246  20.022  0.00  0.00    +0.000 C 
ATOM     18  N   UNL     1       1.740   5.538  18.858  0.00  0.00    +0.000 N 
ATOM     19  H   UNL     1       1.690   6.136  18.039  0.00  0.00    +0.000 HD
BRANCH  17  20
ATOM     20  C   UNL     1       1.634   7.664  19.897  0.00  0.00    +0.000 A 
ATOM     21  C   UNL     1       1.855   8.457  18.788  0.00  0.00    +0.000 A 
ATOM     22  N   UNL     1       1.537   9.730  19.168  0.00  0.00    +0.000 N 
ATOM     23  C   UNL     1       1.664  10.922  18.459  0.00  0.00    +0.000 A 
ATOM     24  C   UNL     1       1.349  12.080  19.064  0.00  0.00    +0.000 A 
ATOM     25  C   UNL     1       0.878  12.047  20.441  0.00  0.00    +0.000 A 
ATOM     26  C   UNL     1       0.737  10.887  21.113  0.00  0.00    +0.000 A 
ATOM     27  C   UNL     1       1.077   9.657  20.481  0.00  0.00    +0.000 A 
ATOM     28  N   UNL     1       1.082   8.415  20.926  0.00  0.00    +0.000 NA
ENDBRANCH  17  20
ENDBRANCH   1  18
TORSDOF 3
ENDMDL
MODEL 9
REMARK VINA RESULT:      -7.5      2.113      7.486
REMARK  Name = 
REMARK  3 active torsions:
REMARK  status: ('A' for Active; 'I' for Inactive)
REMARK    1  A    between atoms: C_2  and  C_18
REMARK    2  A    between atoms: N_3  and  C_4
REMARK    3  A    between atoms: C_9  and  N_10
REMARK                            x       y       z     vdW  Elec       q    Type
REMARK                         _______ _______ _______ _____ _____    ______ ____
ROOT
ATOM      1  C   UNL     1       4.714   6.132  16.810  0.00  0.00    +0.000 A 
ATOM      2  C   UNL     1       5.281   6.438  15.559  0.00  0.00    +0.000 A 
ATOM      3  C   UNL     1       6.144   5.543  14.929  0.00  0.00    +0.000 A 
ATOM      4  C   UNL     1       6.407   4.316  15.517  0.00  0.00    +0.000 A 
ATOM      5  C   UNL     1       5.790   3.974  16.721  0.00  0.00    +0.000 A 
ATOM      6  C   UNL     1       4.937   4.862  17.395  0.00  0.00    +0.000 A 
ENDROOT
BRANCH   6   7
ATOM      7  N   UNL     1       4.234   4.463  18.570  0.00  0.00    +0.000 N 
ATOM      8  C   UNL     1       3.312   3.448  18.662  0.00  0.00    +0.000 C 
ATOM      9  O   UNL     1       3.039   2.668  17.748  0.00  0.00    +0.000 OA
ATOM     10  N   UNL     1       2.640   3.330  19.856  0.00  0.00    +0.000 N 
ATOM     11  C   UNL     1       2.726   4.111  21.074  0.00  0.00    +0.000 C 
ATOM     12  C   UNL     1       2.180   3.162  22.134  0.00  0.00    +0.000 C 
ATOM     13  C   UNL     1       1.097   2.380  21.398  0.00  0.00    +0.000 C 
ATOM     14  C   UNL     1       1.578   2.342  19.955  0.00  0.00    +0.000 C 
ATOM     15  H   UNL     1       4.586   4.840  19.434  0.00  0.00    +0.000 HD
ENDBRANCH   6   7
BRANCH   1  18
ATOM     16  O   UNL     1       1.938   5.980  17.574  0.00  0.00    +0.000 OA
ATOM     17  C   UNL     1       2.625   6.971  17.798  0.00  0.00    +0.000 C 
ATOM     18  N   UNL     1       3.937   7.154  17.402  0.00  0.00    +0.000 N 
ATOM     19  H   UNL     1       4.417   7.861  17.951  0.00  0.00    +0.000 HD
BRANCH  17  20
ATOM     20  C   UNL     1       2.099   8.114  18.548  0.00  0.00    +0.000 A 
ATOM     21  C   UNL     1       1.818   8.135  19.900  0.00  0.00    +0.000 A 
ATOM     22  N   UNL     1       1.200   9.331  20.134  0.00  0.00    +0.000 N 
ATOM     23  C   UNL     1       0.633   9.816  21.310  0.00  0.00    +0.000 A 
ATOM     24  C   UNL     1       0.010  11.007  21.293  0.00  0.00    +0.000 A 
ATOM     25  C   UNL     1      -0.044  11.753  20.044  0.00  0.00    +0.000 A 
ATOM     26  C   UNL     1       0.527  11.286  18.915  0.00  0.00    +0.000 A 
ATOM     27  C   UNL     1       1.181  10.021  18.925  0.00  0.00    +0.000 A 
ATOM     28  N   UNL     1       1.760   9.327  17.964  0.00  0.00    +0.000 NA
ENDBRANCH  17  20
ENDBRANCH   1  18
TORSDOF 3
ENDMDL
