MODEL 1
REMARK VINA RESULT:      -9.4      0.000      0.000
REMARK  Name = 
REMARK  6 active torsions:
REMARK  status: ('A' for Active; 'I' for Inactive)
REMARK    1  A    between atoms: C_1  and  N_2
REMARK    2  A    between atoms: C_6  and  C_7
REMARK    3  A    between atoms: C_7  and  C_8
REMARK    4  A    between atoms: C_8  and  C_9
REMARK    5  A    between atoms: C_14  and  N_15
REMARK    6  A    between atoms: C_22  and  C_23
REMARK                            x       y       z     vdW  Elec       q    Type
REMARK                         _______ _______ _______ _____ _____    ______ ____
ROOT
ATOM      1  C   UNL     1       5.059   3.885  17.506  0.00  0.00    +0.000 C 
ATOM      2  C   UNL     1       3.834   2.974  17.273  0.00  0.00    +0.000 C 
ATOM      3  C   UNL     1       2.761   3.468  18.262  0.00  0.00    +0.000 C 
ATOM      4  C   UNL     1       3.067   4.935  18.290  0.00  0.00    +0.000 A 
ATOM      5  C   UNL     1       2.250   5.965  18.739  0.00  0.00    +0.000 A 
ATOM      6  C   UNL     1       2.697   7.291  18.651  0.00  0.00    +0.000 A 
ATOM      7  C   UNL     1       3.979   7.528  18.108  0.00  0.00    +0.000 A 
ATOM      8  C   UNL     1       4.817   6.481  17.703  0.00  0.00    +0.000 A 
ATOM      9  C   UNL     1       4.353   5.184  17.806  0.00  0.00    +0.000 A 
ENDROOT
BRANCH   6  10
ATOM     10  N   UNL     1       1.886   8.377  19.080  0.00  0.00    +0.000 N 
ATOM     11  C   UNL     1       1.211   8.382  20.369  0.00  0.00    +0.000 C 
ATOM     12  C   UNL     1       0.561   9.728  20.424  0.00  0.00    +0.000 A 
ATOM     13  C   UNL     1       0.803  10.401  19.229  0.00  0.00    +0.000 A 
ATOM     14  C   UNL     1       0.321  11.668  18.969  0.00  0.00    +0.000 A 
ATOM     15  C   UNL     1      -0.437  12.284  19.964  0.00  0.00    +0.000 A 
ATOM     16  C   UNL     1      -0.683  11.625  21.184  0.00  0.00    +0.000 A 
ATOM     17  C   UNL     1      -0.186  10.329  21.435  0.00  0.00    +0.000 A 
ATOM     18  C   UNL     1       1.641   9.556  18.372  0.00  0.00    +0.000 C 
ATOM     19  O   UNL     1       1.994   9.920  17.266  0.00  0.00    +0.000 OA
BRANCH  17  20
ATOM     20  C   UNL     1      -0.459   9.665  22.758  0.00  0.00    +0.000 C 
ATOM     21  F   UNL     1       0.655   9.481  23.519  0.00  0.00    +0.000 F 
ATOM     22  F   UNL     1      -1.321  10.383  23.530  0.00  0.00    +0.000 F 
ATOM     23  F   UNL     1      -1.020   8.432  22.616  0.00  0.00    +0.000 F 
ENDBRANCH  17  20
ENDBRANCH   6  10
BRANCH   1  24
ATOM     24  C   UNL     1       6.067   3.953  16.357  0.00  0.00    +0.000 C 
BRANCH  24  25
ATOM     25  C   UNL     1       5.415   4.036  14.975  0.00  0.00    +0.000 C 
BRANCH  25  31
ATOM     26  C   UNL     1       5.661   3.003  12.021  0.00  0.00    +0.000 C 
ATOM     27  N   UNL     1       6.486   3.996  12.655  0.00  0.00    +0.000 N 
ATOM     28  C   UNL     1       7.521   4.659  12.070  0.00  0.00    +0.000 A 
ATOM     29  N   UNL     1       8.041   5.500  12.931  0.00  0.00    +0.000 NA
ATOM     30  N   UNL     1       7.336   5.383  14.106  0.00  0.00    +0.000 NA
ATOM     31  C   UNL     1       6.400   4.470  13.939  0.00  0.00    +0.000 A 
ENDBRANCH  25  31
ENDBRANCH  24  25
ENDBRANCH   1  24
TORSDOF 5
ENDMDL
MODEL 2
REMARK VINA RESULT:      -9.2      2.233      2.783
REMARK  Name = 
REMARK  6 active torsions:
REMARK  status: ('A' for Active; 'I' for Inactive)
REMARK    1  A    between atoms: C_1  and  N_2
REMARK    2  A    between atoms: C_6  and  C_7
REMARK    3  A    between atoms: C_7  and  C_8
REMARK    4  A    between atoms: C_8  and  C_9
REMARK    5  A    between atoms: C_14  and  N_15
REMARK    6  A    between atoms: C_22  and  C_23
REMARK                            x       y       z     vdW  Elec       q    Type
REMARK                         _______ _______ _______ _____ _____    ______ ____
ROOT
ATOM      1  C   UNL     1       4.626   5.363  17.410  0.00  0.00    +0.000 C 
ATOM      2  C   UNL     1       3.967   4.137  18.078  0.00  0.00    +0.000 C 
ATOM      3  C   UNL     1       3.436   4.644  19.432  0.00  0.00    +0.000 C 
ATOM      4  C   UNL     1       3.061   6.049  19.073  0.00  0.00    +0.000 A 
ATOM      5  C   UNL     1       2.229   6.913  19.774  0.00  0.00    +0.000 A 
ATOM      6  C   UNL     1       1.964   8.189  19.258  0.00  0.00    +0.000 A 
ATOM      7  C   UNL     1       2.566   8.552  18.033  0.00  0.00    +0.000 A 
ATOM      8  C   UNL     1       3.444   7.694  17.356  0.00  0.00    +0.000 A 
ATOM      9  C   UNL     1       3.691   6.444  17.891  0.00  0.00    +0.000 A 
ENDROOT
BRANCH   6  10
ATOM     10  N   UNL     1       1.103   9.097  19.932  0.00  0.00    +0.000 N 
ATOM     11  C   UNL     1       0.134   9.920  19.224  0.00  0.00    +0.000 C 
ATOM     12  C   UNL     1      -0.590  10.638  20.319  0.00  0.00    +0.000 A 
ATOM     13  C   UNL     1      -0.026  10.289  21.544  0.00  0.00    +0.000 A 
ATOM     14  C   UNL     1      -0.469  10.799  22.747  0.00  0.00    +0.000 A 
ATOM     15  C   UNL     1      -1.533  11.700  22.712  0.00  0.00    +0.000 A 
ATOM     16  C   UNL     1      -2.125  12.055  21.484  0.00  0.00    +0.000 A 
ATOM     17  C   UNL     1      -1.660  11.529  20.261  0.00  0.00    +0.000 A 
ATOM     18  C   UNL     1       1.045   9.314  21.311  0.00  0.00    +0.000 C 
ATOM     19  O   UNL     1       1.697   8.850  22.227  0.00  0.00    +0.000 OA
BRANCH  17  20
ATOM     20  C   UNL     1      -2.329  11.924  18.972  0.00  0.00    +0.000 C 
ATOM     21  F   UNL     1      -3.447  12.681  19.146  0.00  0.00    +0.000 F 
ATOM     22  F   UNL     1      -1.509  12.655  18.166  0.00  0.00    +0.000 F 
ATOM     23  F   UNL     1      -2.719  10.848  18.235  0.00  0.00    +0.000 F 
ENDBRANCH  17  20
ENDBRANCH   6  10
BRANCH   1  24
ATOM     24  C   UNL     1       4.792   5.286  15.891  0.00  0.00    +0.000 C 
BRANCH  24  25
ATOM     25  C   UNL     1       5.712   4.152  15.432  0.00  0.00    +0.000 C 
BRANCH  25  31
ATOM     26  C   UNL     1       5.812   3.256  12.426  0.00  0.00    +0.000 C 
ATOM     27  N   UNL     1       6.681   4.204  13.068  0.00  0.00    +0.000 N 
ATOM     28  C   UNL     1       7.702   4.879  12.471  0.00  0.00    +0.000 A 
ATOM     29  N   UNL     1       8.273   5.670  13.347  0.00  0.00    +0.000 NA
ATOM     30  N   UNL     1       7.617   5.507  14.544  0.00  0.00    +0.000 NA
ATOM     31  C   UNL     1       6.658   4.618  14.376  0.00  0.00    +0.000 A 
ENDBRANCH  25  31
ENDBRANCH  24  25
ENDBRANCH   1  24
TORSDOF 5
ENDMDL
MODEL 3
REMARK VINA RESULT:      -9.1      4.554     10.707
REMARK  Name = 
REMARK  6 active torsions:
REMARK  status: ('A' for Active; 'I' for Inactive)
REMARK    1  A    between atoms: C_1  and  N_2
REMARK    2  A    between atoms: C_6  and  C_7
REMARK    3  A    between atoms: C_7  and  C_8
REMARK    4  A    between atoms: C_8  and  C_9
REMARK    5  A    between atoms: C_14  and  N_15
REMARK    6  A    between atoms: C_22  and  C_23
REMARK                            x       y       z     vdW  Elec       q    Type
REMARK                         _______ _______ _______ _____ _____    ______ ____
ROOT
ATOM      1  C   UNL     1      -0.359  11.583  21.657  0.00  0.00    +0.000 C 
ATOM      2  C   UNL     1      -1.071  11.987  20.348  0.00  0.00    +0.000 C 
ATOM      3  C   UNL     1      -0.134  11.529  19.213  0.00  0.00    +0.000 C 
ATOM      4  C   UNL     1       0.455  10.294  19.823  0.00  0.00    +0.000 A 
ATOM      5  C   UNL     1       1.119   9.260  19.175  0.00  0.00    +0.000 A 
ATOM      6  C   UNL     1       1.571   8.158  19.914  0.00  0.00    +0.000 A 
ATOM      7  C   UNL     1       1.336   8.146  21.307  0.00  0.00    +0.000 A 
ATOM      8  C   UNL     1       0.709   9.216  21.961  0.00  0.00    +0.000 A 
ATOM      9  C   UNL     1       0.279  10.291  21.208  0.00  0.00    +0.000 A 
ENDROOT
BRANCH   6  10
ATOM     10  N   UNL     1       2.237   7.069  19.289  0.00  0.00    +0.000 N 
ATOM     11  C   UNL     1       3.184   7.257  18.200  0.00  0.00    +0.000 C 
ATOM     12  C   UNL     1       3.686   5.875  17.922  0.00  0.00    +0.000 A 
ATOM     13  C   UNL     1       3.024   4.974  18.753  0.00  0.00    +0.000 A 
ATOM     14  C   UNL     1       3.259   3.615  18.725  0.00  0.00    +0.000 A 
ATOM     15  C   UNL     1       4.211   3.145  17.820  0.00  0.00    +0.000 A 
ATOM     16  C   UNL     1       4.900   4.042  16.981  0.00  0.00    +0.000 A 
ATOM     17  C   UNL     1       4.647   5.429  17.018  0.00  0.00    +0.000 A 
ATOM     18  C   UNL     1       2.105   5.718  19.622  0.00  0.00    +0.000 C 
ATOM     19  O   UNL     1       1.406   5.155  20.443  0.00  0.00    +0.000 OA
BRANCH  17  20
ATOM     20  C   UNL     1       5.415   6.355  16.114  0.00  0.00    +0.000 C 
ATOM     21  F   UNL     1       4.622   7.123  15.316  0.00  0.00    +0.000 F 
ATOM     22  F   UNL     1       6.196   7.228  16.809  0.00  0.00    +0.000 F 
ATOM     23  F   UNL     1       6.253   5.688  15.274  0.00  0.00    +0.000 F 
ENDBRANCH  17  20
ENDBRANCH   6  10
BRANCH   1  24
ATOM     24  C   UNL     1      -1.253  11.462  22.893  0.00  0.00    +0.000 C 
BRANCH  24  25
ATOM     25  C   UNL     1      -1.830  12.799  23.363  0.00  0.00    +0.000 C 
BRANCH  25  31
ATOM     26  C   UNL     1      -3.881  14.328  21.545  0.00  0.00    +0.000 C 
ATOM     27  N   UNL     1      -4.193  13.434  22.626  0.00  0.00    +0.000 N 
ATOM     28  C   UNL     1      -5.445  13.098  23.043  0.00  0.00    +0.000 A 
ATOM     29  N   UNL     1      -5.359  12.250  24.040  0.00  0.00    +0.000 NA
ATOM     30  N   UNL     1      -4.025  12.030  24.285  0.00  0.00    +0.000 NA
ATOM     31  C   UNL     1      -3.321  12.749  23.433  0.00  0.00    +0.000 A 
ENDBRANCH  25  31
ENDBRANCH  24  25
ENDBRANCH   1  24
TORSDOF 5
ENDMDL
MODEL 4
REMARK VINA RESULT:      -9.0      2.261      2.735
REMARK  Name = 
REMARK  6 active torsions:
REMARK  status: ('A' for Active; 'I' for Inactive)
REMARK    1  A    between atoms: C_1  and  N_2
REMARK    2  A    between atoms: C_6  and  C_7
REMARK    3  A    between atoms: C_7  and  C_8
REMARK    4  A    between atoms: C_8  and  C_9
REMARK    5  A    between atoms: C_14  and  N_15
REMARK    6  A    between atoms: C_22  and  C_23
REMARK                            x       y       z     vdW  Elec       q    Type
REMARK                         _______ _______ _______ _____ _____    ______ ____
ROOT
ATOM      1  C   UNL     1       4.565   4.529  17.240  0.00  0.00    +0.000 C 
ATOM      2  C   UNL     1       3.604   3.430  17.742  0.00  0.00    +0.000 C 
ATOM      3  C   UNL     1       3.022   3.969  19.064  0.00  0.00    +0.000 C 
ATOM      4  C   UNL     1       2.974   5.437  18.767  0.00  0.00    +0.000 A 
ATOM      5  C   UNL     1       2.248   6.415  19.433  0.00  0.00    +0.000 A 
ATOM      6  C   UNL     1       2.301   7.742  18.983  0.00  0.00    +0.000 A 
ATOM      7  C   UNL     1       3.106   8.035  17.859  0.00  0.00    +0.000 A 
ATOM      8  C   UNL     1       3.875   7.051  17.223  0.00  0.00    +0.000 A 
ATOM      9  C   UNL     1       3.807   5.753  17.691  0.00  0.00    +0.000 A 
ENDROOT
BRANCH   6  10
ATOM     10  N   UNL     1       1.558   8.772  19.622  0.00  0.00    +0.000 N 
ATOM     11  C   UNL     1       1.136   9.976  18.920  0.00  0.00    +0.000 C 
ATOM     12  C   UNL     1       0.330  10.717  19.940  0.00  0.00    +0.000 A 
ATOM     13  C   UNL     1       0.351  10.009  21.140  0.00  0.00    +0.000 A 
ATOM     14  C   UNL     1      -0.294  10.445  22.280  0.00  0.00    +0.000 A 
ATOM     15  C   UNL     1      -0.996  11.648  22.202  0.00  0.00    +0.000 A 
ATOM     16  C   UNL     1      -1.038  12.371  20.994  0.00  0.00    +0.000 A 
ATOM     17  C   UNL     1      -0.372  11.915  19.838  0.00  0.00    +0.000 A 
ATOM     18  C   UNL     1       1.124   8.777  20.949  0.00  0.00    +0.000 C 
ATOM     19  O   UNL     1       1.291   7.982  21.855  0.00  0.00    +0.000 OA
BRANCH  17  20
ATOM     20  C   UNL     1      -0.454  12.712  18.563  0.00  0.00    +0.000 C 
ATOM     21  F   UNL     1      -1.130  12.078  17.565  0.00  0.00    +0.000 F 
ATOM     22  F   UNL     1      -1.085  13.906  18.737  0.00  0.00    +0.000 F 
ATOM     23  F   UNL     1       0.773  13.006  18.053  0.00  0.00    +0.000 F 
ENDBRANCH  17  20
ENDBRANCH   6  10
BRANCH   1  24
ATOM     24  C   UNL     1       4.895   4.493  15.746  0.00  0.00    +0.000 C 
BRANCH  24  25
ATOM     25  C   UNL     1       6.221   3.798  15.428  0.00  0.00    +0.000 C 
BRANCH  25  31
ATOM     26  C   UNL     1       5.867   3.244  12.359  0.00  0.00    +0.000 C 
ATOM     27  N   UNL     1       6.753   4.203  12.962  0.00  0.00    +0.000 N 
ATOM     28  C   UNL     1       7.594   5.039  12.292  0.00  0.00    +0.000 A 
ATOM     29  N   UNL     1       8.242   5.786  13.153  0.00  0.00    +0.000 NA
ATOM     30  N   UNL     1       7.821   5.430  14.412  0.00  0.00    +0.000 NA
ATOM     31  C   UNL     1       6.926   4.470  14.296  0.00  0.00    +0.000 A 
ENDBRANCH  25  31
ENDBRANCH  24  25
ENDBRANCH   1  24
TORSDOF 5
ENDMDL
MODEL 5
REMARK VINA RESULT:      -8.9      4.152     10.584
REMARK  Name = 
REMARK  6 active torsions:
REMARK  status: ('A' for Active; 'I' for Inactive)
REMARK    1  A    between atoms: C_1  and  N_2
REMARK    2  A    between atoms: C_6  and  C_7
REMARK    3  A    between atoms: C_7  and  C_8
REMARK    4  A    between atoms: C_8  and  C_9
REMARK    5  A    between atoms: C_14  and  N_15
REMARK    6  A    between atoms: C_22  and  C_23
REMARK                            x       y       z     vdW  Elec       q    Type
REMARK                         _______ _______ _______ _____ _____    ______ ____
ROOT
ATOM      1  C   UNL     1      -0.620  11.633  21.758  0.00  0.00    +0.000 C 
ATOM      2  C   UNL     1      -1.339  12.012  20.445  0.00  0.00    +0.000 C 
ATOM      3  C   UNL     1      -0.389  11.568  19.316  0.00  0.00    +0.000 C 
ATOM      4  C   UNL     1       0.227  10.351  19.935  0.00  0.00    +0.000 A 
ATOM      5  C   UNL     1       0.916   9.328  19.295  0.00  0.00    +0.000 A 
ATOM      6  C   UNL     1       1.392   8.242  20.042  0.00  0.00    +0.000 A 
ATOM      7  C   UNL     1       1.154   8.234  21.435  0.00  0.00    +0.000 A 
ATOM      8  C   UNL     1       0.502   9.294  22.081  0.00  0.00    +0.000 A 
ATOM      9  C   UNL     1       0.048  10.354  21.320  0.00  0.00    +0.000 A 
ENDROOT
BRANCH   6  10
ATOM     10  N   UNL     1       2.083   7.164  19.427  0.00  0.00    +0.000 N 
ATOM     11  C   UNL     1       1.894   5.781  19.839  0.00  0.00    +0.000 C 
ATOM     12  C   UNL     1       2.740   5.005  18.880  0.00  0.00    +0.000 A 
ATOM     13  C   UNL     1       3.400   5.892  18.033  0.00  0.00    +0.000 A 
ATOM     14  C   UNL     1       4.269   5.479  17.043  0.00  0.00    +0.000 A 
ATOM     15  C   UNL     1       4.475   4.107  16.899  0.00  0.00    +0.000 A 
ATOM     16  C   UNL     1       3.806   3.195  17.737  0.00  0.00    +0.000 A 
ATOM     17  C   UNL     1       2.924   3.630  18.747  0.00  0.00    +0.000 A 
ATOM     18  C   UNL     1       2.992   7.260  18.370  0.00  0.00    +0.000 C 
ATOM     19  O   UNL     1       3.432   8.223  17.770  0.00  0.00    +0.000 OA
BRANCH  17  20
ATOM     20  C   UNL     1       2.219   2.621  19.613  0.00  0.00    +0.000 C 
ATOM     21  F   UNL     1       2.604   2.656  20.919  0.00  0.00    +0.000 F 
ATOM     22  F   UNL     1       0.869   2.798  19.621  0.00  0.00    +0.000 F 
ATOM     23  F   UNL     1       2.427   1.342  19.198  0.00  0.00    +0.000 F 
ENDBRANCH  17  20
ENDBRANCH   6  10
BRANCH   1  24
ATOM     24  C   UNL     1      -1.513  11.501  22.993  0.00  0.00    +0.000 C 
BRANCH  24  25
ATOM     25  C   UNL     1      -2.122  12.827  23.454  0.00  0.00    +0.000 C 
BRANCH  25  31
ATOM     26  C   UNL     1      -4.480  14.441  22.156  0.00  0.00    +0.000 C 
ATOM     27  N   UNL     1      -4.591  13.409  23.150  0.00  0.00    +0.000 N 
ATOM     28  C   UNL     1      -5.752  12.955  23.698  0.00  0.00    +0.000 A 
ATOM     29  N   UNL     1      -5.485  12.002  24.558  0.00  0.00    +0.000 NA
ATOM     30  N   UNL     1      -4.121  11.831  24.579  0.00  0.00    +0.000 NA
ATOM     31  C   UNL     1      -3.582  12.684  23.731  0.00  0.00    +0.000 A 
ENDBRANCH  25  31
ENDBRANCH  24  25
ENDBRANCH   1  24
TORSDOF 5
ENDMDL
MODEL 6
REMARK VINA RESULT:      -8.8      3.773      5.128
REMARK  Name = 
REMARK  6 active torsions:
REMARK  status: ('A' for Active; 'I' for Inactive)
REMARK    1  A    between atoms: C_1  and  N_2
REMARK    2  A    between atoms: C_6  and  C_7
REMARK    3  A    between atoms: C_7  and  C_8
REMARK    4  A    between atoms: C_8  and  C_9
REMARK    5  A    between atoms: C_14  and  N_15
REMARK    6  A    between atoms: C_22  and  C_23
REMARK                            x       y       z     vdW  Elec       q    Type
REMARK                         _______ _______ _______ _____ _____    ______ ____
ROOT
ATOM      1  C   UNL     1       4.221   5.227  18.240  0.00  0.00    +0.000 C 
ATOM      2  C   UNL     1       5.128   6.123  17.370  0.00  0.00    +0.000 C 
ATOM      3  C   UNL     1       4.201   7.215  16.801  0.00  0.00    +0.000 C 
ATOM      4  C   UNL     1       3.238   7.378  17.937  0.00  0.00    +0.000 A 
ATOM      5  C   UNL     1       2.368   8.436  18.168  0.00  0.00    +0.000 A 
ATOM      6  C   UNL     1       1.562   8.430  19.315  0.00  0.00    +0.000 A 
ATOM      7  C   UNL     1       1.664   7.332  20.197  0.00  0.00    +0.000 A 
ATOM      8  C   UNL     1       2.507   6.244  19.932  0.00  0.00    +0.000 A 
ATOM      9  C   UNL     1       3.287   6.275  18.792  0.00  0.00    +0.000 A 
ENDROOT
BRANCH   6  10
ATOM     10  N   UNL     1       0.672   9.501  19.602  0.00  0.00    +0.000 N 
ATOM     11  C   UNL     1      -0.418   9.866  18.710  0.00  0.00    +0.000 C 
ATOM     12  C   UNL     1      -1.123  10.965  19.442  0.00  0.00    +0.000 A 
ATOM     13  C   UNL     1      -0.441  11.234  20.626  0.00  0.00    +0.000 A 
ATOM     14  C   UNL     1      -0.840  12.210  21.517  0.00  0.00    +0.000 A 
ATOM     15  C   UNL     1      -1.983  12.944  21.198  0.00  0.00    +0.000 A 
ATOM     16  C   UNL     1      -2.693  12.677  20.011  0.00  0.00    +0.000 A 
ATOM     17  C   UNL     1      -2.272  11.679  19.109  0.00  0.00    +0.000 A 
ATOM     18  C   UNL     1       0.695  10.314  20.738  0.00  0.00    +0.000 C 
ATOM     19  O   UNL     1       1.452  10.347  21.690  0.00  0.00    +0.000 OA
BRANCH  17  20
ATOM     20  C   UNL     1      -3.067  11.416  17.857  0.00  0.00    +0.000 C 
ATOM     21  F   UNL     1      -2.365  11.625  16.709  0.00  0.00    +0.000 F 
ATOM     22  F   UNL     1      -3.516  10.133  17.789  0.00  0.00    +0.000 F 
ATOM     23  F   UNL     1      -4.172  12.207  17.766  0.00  0.00    +0.000 F 
ENDBRANCH  17  20
ENDBRANCH   6  10
BRANCH   1  24
ATOM     24  C   UNL     1       4.936   4.383  19.298  0.00  0.00    +0.000 C 
BRANCH  24  25
ATOM     25  C   UNL     1       4.551   2.902  19.261  0.00  0.00    +0.000 C 
BRANCH  25  31
ATOM     26  C   UNL     1       2.395   2.888  21.542  0.00  0.00    +0.000 C 
ATOM     27  N   UNL     1       2.156   2.725  20.134  0.00  0.00    +0.000 N 
ATOM     28  C   UNL     1       0.940   2.536  19.551  0.00  0.00    +0.000 A 
ATOM     29  N   UNL     1       1.089   2.441  18.251  0.00  0.00    +0.000 NA
ATOM     30  N   UNL     1       2.431   2.564  17.977  0.00  0.00    +0.000 NA
ATOM     31  C   UNL     1       3.075   2.731  19.115  0.00  0.00    +0.000 A 
ENDBRANCH  25  31
ENDBRANCH  24  25
ENDBRANCH   1  24
TORSDOF 5
ENDMDL
MODEL 7
REMARK VINA RESULT:      -8.8      2.927      3.751
REMARK  Name = 
REMARK  6 active torsions:
REMARK  status: ('A' for Active; 'I' for Inactive)
REMARK    1  A    between atoms: C_1  and  N_2
REMARK    2  A    between atoms: C_6  and  C_7
REMARK    3  A    between atoms: C_7  and  C_8
REMARK    4  A    between atoms: C_8  and  C_9
REMARK    5  A    between atoms: C_14  and  N_15
REMARK    6  A    between atoms: C_22  and  C_23
REMARK                            x       y       z     vdW  Elec       q    Type
REMARK                         _______ _______ _______ _____ _____    ______ ____
ROOT
ATOM      1  C   UNL     1       4.684   4.723  17.131  0.00  0.00    +0.000 C 
ATOM      2  C   UNL     1       3.613   3.619  17.253  0.00  0.00    +0.000 C 
ATOM      3  C   UNL     1       2.765   4.003  18.481  0.00  0.00    +0.000 C 
ATOM      4  C   UNL     1       2.816   5.498  18.395  0.00  0.00    +0.000 A 
ATOM      5  C   UNL     1       1.982   6.414  19.023  0.00  0.00    +0.000 A 
ATOM      6  C   UNL     1       2.161   7.785  18.791  0.00  0.00    +0.000 A 
ATOM      7  C   UNL     1       3.200   8.184  17.920  0.00  0.00    +0.000 A 
ATOM      8  C   UNL     1       4.069   7.256  17.330  0.00  0.00    +0.000 A 
ATOM      9  C   UNL     1       3.872   5.912  17.581  0.00  0.00    +0.000 A 
ENDROOT
BRANCH   6  10
ATOM     10  N   UNL     1       1.319   8.756  19.396  0.00  0.00    +0.000 N 
ATOM     11  C   UNL     1       0.473   9.647  18.615  0.00  0.00    +0.000 C 
ATOM     12  C   UNL     1      -0.281  10.420  19.651  0.00  0.00    +0.000 A 
ATOM     13  C   UNL     1       0.155  10.032  20.916  0.00  0.00    +0.000 A 
ATOM     14  C   UNL     1      -0.344  10.577  22.082  0.00  0.00    +0.000 A 
ATOM     15  C   UNL     1      -1.332  11.554  21.964  0.00  0.00    +0.000 A 
ATOM     16  C   UNL     1      -1.795  11.950  20.694  0.00  0.00    +0.000 A 
ATOM     17  C   UNL     1      -1.273  11.387  19.511  0.00  0.00    +0.000 A 
ATOM     18  C   UNL     1       1.166   8.980  20.767  0.00  0.00    +0.000 C 
ATOM     19  O   UNL     1       1.706   8.471  21.731  0.00  0.00    +0.000 OA
BRANCH  17  20
ATOM     20  C   UNL     1      -1.804  11.829  18.173  0.00  0.00    +0.000 C 
ATOM     21  F   UNL     1      -3.090  12.276  18.216  0.00  0.00    +0.000 F 
ATOM     22  F   UNL     1      -1.076  12.847  17.637  0.00  0.00    +0.000 F 
ATOM     23  F   UNL     1      -1.789  10.828  17.250  0.00  0.00    +0.000 F 
ENDBRANCH  17  20
ENDBRANCH   6  10
BRANCH   1  24
ATOM     24  C   UNL     1       5.334   4.873  15.754  0.00  0.00    +0.000 C 
BRANCH  24  25
ATOM     25  C   UNL     1       6.855   5.035  15.809  0.00  0.00    +0.000 C 
BRANCH  25  31
ATOM     26  C   UNL     1       7.438   7.818  17.137  0.00  0.00    +0.000 C 
ATOM     27  N   UNL     1       7.571   6.528  17.756  0.00  0.00    +0.000 N 
ATOM     28  C   UNL     1       7.976   6.297  19.035  0.00  0.00    +0.000 A 
ATOM     29  N   UNL     1       7.968   5.007  19.270  0.00  0.00    +0.000 NA
ATOM     30  N   UNL     1       7.554   4.378  18.120  0.00  0.00    +0.000 NA
ATOM     31  C   UNL     1       7.320   5.297  17.204  0.00  0.00    +0.000 A 
ENDBRANCH  25  31
ENDBRANCH  24  25
ENDBRANCH   1  24
TORSDOF 5
ENDMDL
MODEL 8
REMARK VINA RESULT:      -8.8      1.684      2.553
REMARK  Name = 
REMARK  6 active torsions:
REMARK  status: ('A' for Active; 'I' for Inactive)
REMARK    1  A    between atoms: C_1  and  N_2
REMARK    2  A    between atoms: C_6  and  C_7
REMARK    3  A    between atoms: C_7  and  C_8
REMARK    4  A    between atoms: C_8  and  C_9
REMARK    5  A    between atoms: C_14  and  N_15
REMARK    6  A    between atoms: C_22  and  C_23
REMARK                            x       y       z     vdW  Elec       q    Type
REMARK                         _______ _______ _______ _____ _____    ______ ____
ROOT
ATOM      1  C   UNL     1       4.401   3.980  17.274  0.00  0.00    +0.000 C 
ATOM      2  C   UNL     1       3.105   3.193  16.982  0.00  0.00    +0.000 C 
ATOM      3  C   UNL     1       2.072   3.714  18.000  0.00  0.00    +0.000 C 
ATOM      4  C   UNL     1       2.500   5.145  18.120  0.00  0.00    +0.000 A 
ATOM      5  C   UNL     1       1.770   6.210  18.631  0.00  0.00    +0.000 A 
ATOM      6  C   UNL     1       2.328   7.496  18.628  0.00  0.00    +0.000 A 
ATOM      7  C   UNL     1       3.630   7.657  18.102  0.00  0.00    +0.000 A 
ATOM      8  C   UNL     1       4.379   6.569  17.633  0.00  0.00    +0.000 A 
ATOM      9  C   UNL     1       3.806   5.313  17.654  0.00  0.00    +0.000 A 
ENDROOT
BRANCH   6  10
ATOM     10  N   UNL     1       1.610   8.618  19.123  0.00  0.00    +0.000 N 
ATOM     11  C   UNL     1       0.935   8.602  20.412  0.00  0.00    +0.000 C 
ATOM     12  C   UNL     1       0.398   9.992  20.549  0.00  0.00    +0.000 A 
ATOM     13  C   UNL     1       0.700  10.713  19.396  0.00  0.00    +0.000 A 
ATOM     14  C   UNL     1       0.325  12.029  19.214  0.00  0.00    +0.000 A 
ATOM     15  C   UNL     1      -0.382  12.646  20.246  0.00  0.00    +0.000 A 
ATOM     16  C   UNL     1      -0.685  11.937  21.425  0.00  0.00    +0.000 A 
ATOM     17  C   UNL     1      -0.298  10.592  21.596  0.00  0.00    +0.000 A 
ATOM     18  C   UNL     1       1.466   9.854  18.487  0.00  0.00    +0.000 C 
ATOM     19  O   UNL     1       1.852  10.253  17.404  0.00  0.00    +0.000 OA
BRANCH  17  20
ATOM     20  C   UNL     1      -0.630   9.874  22.877  0.00  0.00    +0.000 C 
ATOM     21  F   UNL     1      -1.113   8.614  22.689  0.00  0.00    +0.000 F 
ATOM     22  F   UNL     1       0.454   9.737  23.690  0.00  0.00    +0.000 F 
ATOM     23  F   UNL     1      -1.571  10.527  23.612  0.00  0.00    +0.000 F 
ENDBRANCH  17  20
ENDBRANCH   6  10
BRANCH   1  24
ATOM     24  C   UNL     1       5.419   4.034  16.132  0.00  0.00    +0.000 C 
BRANCH  24  25
ATOM     25  C   UNL     1       6.873   4.063  16.610  0.00  0.00    +0.000 C 
BRANCH  25  31
ATOM     26  C   UNL     1       7.644   5.154  19.450  0.00  0.00    +0.000 C 
ATOM     27  N   UNL     1       7.624   5.899  18.221  0.00  0.00    +0.000 N 
ATOM     28  C   UNL     1       7.939   7.217  18.084  0.00  0.00    +0.000 A 
ATOM     29  N   UNL     1       7.826   7.564  16.825  0.00  0.00    +0.000 NA
ATOM     30  N   UNL     1       7.423   6.454  16.122  0.00  0.00    +0.000 NA
ATOM     31  C   UNL     1       7.296   5.450  16.967  0.00  0.00    +0.000 A 
ENDBRANCH  25  31
ENDBRANCH  24  25
ENDBRANCH   1  24
TORSDOF 5
ENDMDL
MODEL 9
REMARK VINA RESULT:      -8.7      2.497      3.158
REMARK  Name = 
REMARK  6 active torsions:
REMARK  status: ('A' for Active; 'I' for Inactive)
REMARK    1  A    between atoms: C_1  and  N_2
REMARK    2  A    between atoms: C_6  and  C_7
REMARK    3  A    between atoms: C_7  and  C_8
REMARK    4  A    between atoms: C_8  and  C_9
REMARK    5  A    between atoms: C_14  and  N_15
REMARK    6  A    between atoms: C_22  and  C_23
REMARK                            x       y       z     vdW  Elec       q    Type
REMARK                         _______ _______ _______ _____ _____    ______ ____
ROOT
ATOM      1  C   UNL     1       4.403   5.725  17.974  0.00  0.00    +0.000 C 
ATOM      2  C   UNL     1       3.716   4.619  18.804  0.00  0.00    +0.000 C 
ATOM      3  C   UNL     1       3.077   5.344  20.004  0.00  0.00    +0.000 C 
ATOM      4  C   UNL     1       2.707   6.651  19.372  0.00  0.00    +0.000 A 
ATOM      5  C   UNL     1       1.811   7.600  19.846  0.00  0.00    +0.000 A 
ATOM      6  C   UNL     1       1.563   8.755  19.091  0.00  0.00    +0.000 A 
ATOM      7  C   UNL     1       2.249   8.911  17.865  0.00  0.00    +0.000 A 
ATOM      8  C   UNL     1       3.189   7.973  17.418  0.00  0.00    +0.000 A 
ATOM      9  C   UNL     1       3.416   6.847  18.185  0.00  0.00    +0.000 A 
ENDROOT
BRANCH   6  10
ATOM     10  N   UNL     1       0.639   9.743  19.527  0.00  0.00    +0.000 N 
ATOM     11  C   UNL     1      -0.546  10.092  18.758  0.00  0.00    +0.000 C 
ATOM     12  C   UNL     1      -1.249  11.091  19.623  0.00  0.00    +0.000 A 
ATOM     13  C   UNL     1      -0.482  11.327  20.762  0.00  0.00    +0.000 A 
ATOM     14  C   UNL     1      -0.859  12.214  21.751  0.00  0.00    +0.000 A 
ATOM     15  C   UNL     1      -2.068  12.889  21.582  0.00  0.00    +0.000 A 
ATOM     16  C   UNL     1      -2.863  12.654  20.444  0.00  0.00    +0.000 A 
ATOM     17  C   UNL     1      -2.464  11.747  19.440  0.00  0.00    +0.000 A 
ATOM     18  C   UNL     1       0.714  10.479  20.712  0.00  0.00    +0.000 C 
ATOM     19  O   UNL     1       1.549  10.500  21.596  0.00  0.00    +0.000 OA
BRANCH  17  20
ATOM     20  C   UNL     1      -3.349  11.515  18.245  0.00  0.00    +0.000 C 
ATOM     21  F   UNL     1      -2.753  11.810  17.057  0.00  0.00    +0.000 F 
ATOM     22  F   UNL     1      -3.754  10.219  18.144  0.00  0.00    +0.000 F 
ATOM     23  F   UNL     1      -4.487  12.262  18.286  0.00  0.00    +0.000 F 
ENDBRANCH  17  20
ENDBRANCH   6  10
BRANCH   1  24
ATOM     24  C   UNL     1       4.683   5.383  16.509  0.00  0.00    +0.000 C 
BRANCH  24  25
ATOM     25  C   UNL     1       5.852   4.413  16.320  0.00  0.00    +0.000 C 
BRANCH  25  31
ATOM     26  C   UNL     1       5.394   3.508  13.350  0.00  0.00    +0.000 C 
ATOM     27  N   UNL     1       6.444   4.362  13.834  0.00  0.00    +0.000 N 
ATOM     28  C   UNL     1       7.424   4.926  13.076  0.00  0.00    +0.000 A 
ATOM     29  N   UNL     1       8.202   5.655  13.840  0.00  0.00    +0.000 NA
ATOM     30  N   UNL     1       7.725   5.563  15.126  0.00  0.00    +0.000 NA
ATOM     31  C   UNL     1       6.666   4.778  15.123  0.00  0.00    +0.000 A 
ENDBRANCH  25  31
ENDBRANCH  24  25
ENDBRANCH   1  24
TORSDOF 5
ENDMDL
