MODEL 1
REMARK VINA RESULT:      -8.5      0.000      0.000
REMARK  Name = 
REMARK  9 active torsions:
REMARK  status: ('A' for Active; 'I' for Inactive)
REMARK    1  A    between atoms: C_1  and  C_2
REMARK    2  A    between atoms: C_5  and  C_6
REMARK    3  A    between atoms: C_7  and  N_8
REMARK    4  A    between atoms: C_13  and  C_14
REMARK    5  A    between atoms: N_16  and  C_17
REMARK    6  A    between atoms: C_17  and  C_18
REMARK    7  A    between atoms: C_18  and  C_19
REMARK    8  A    between atoms: C_19  and  O_20
REMARK    9  A    between atoms: C_19  and  C_21
REMARK                            x       y       z     vdW  Elec       q    Type
REMARK                         _______ _______ _______ _____ _____    ______ ____
ROOT
ATOM      1  N   UNL     1       4.453   5.258  17.864  0.00  0.00    +0.000 N 
ATOM      2  C   UNL     1       4.221   4.405  18.923  0.00  0.00    +0.000 A 
ATOM      3  N   UNL     1       3.368   4.880  19.797  0.00  0.00    +0.000 NA
ATOM      4  C   UNL     1       3.027   6.111  19.317  0.00  0.00    +0.000 A 
ATOM      5  C   UNL     1       2.155   7.050  19.885  0.00  0.00    +0.000 A 
ATOM      6  C   UNL     1       1.920   8.252  19.206  0.00  0.00    +0.000 A 
ATOM      7  C   UNL     1       2.553   8.509  17.986  0.00  0.00    +0.000 A 
ATOM      8  C   UNL     1       3.421   7.576  17.404  0.00  0.00    +0.000 A 
ATOM      9  C   UNL     1       3.669   6.386  18.109  0.00  0.00    +0.000 A 
ENDROOT
BRANCH   1  16
ATOM     10  C   UNL     1       5.153   3.681  13.238  0.00  0.00    +0.000 C 
ATOM     11  C   UNL     1       5.714   4.281  14.494  0.00  0.00    +0.000 A 
ATOM     12  C   UNL     1       7.059   4.633  14.585  0.00  0.00    +0.000 A 
ATOM     13  C   UNL     1       7.563   5.185  15.763  0.00  0.00    +0.000 A 
ATOM     14  C   UNL     1       6.746   5.389  16.893  0.00  0.00    +0.000 A 
ATOM     15  C   UNL     1       7.421   5.894  18.138  0.00  0.00    +0.000 C 
ATOM     16  C   UNL     1       5.377   5.047  16.796  0.00  0.00    +0.000 A 
ATOM     17  C   UNL     1       4.880   4.502  15.596  0.00  0.00    +0.000 A 
ENDBRANCH   1  16
BRANCH   6  18
ATOM     18  C   UNL     1       1.006   9.287  19.763  0.00  0.00    +0.000 C 
ATOM     19  O   UNL     1       0.677   9.249  20.943  0.00  0.00    +0.000 OA
ATOM     20  N   UNL     1       0.604  10.279  18.891  0.00  0.00    +0.000 N 
ATOM     21  H   UNL     1       1.057  10.364  17.991  0.00  0.00    +0.000 HD
BRANCH  20  22
ATOM     22  C   UNL     1      -0.277  11.348  19.314  0.00  0.00    +0.000 C 
BRANCH  22  23
ATOM     23  C   UNL     1      -1.735  11.008  19.021  0.00  0.00    +0.000 C 
BRANCH  23  24
ATOM     24  C   UNL     1      -2.211  11.634  17.708  0.00  0.00    +0.000 C 
BRANCH  24  25
ATOM     25  C   UNL     1      -2.505  10.567  16.634  0.00  0.00    +0.000 C 
ATOM     26  F   UNL     1      -3.699   9.961  16.819  0.00  0.00    +0.000 F 
ATOM     27  F   UNL     1      -2.515  11.114  15.397  0.00  0.00    +0.000 F 
ATOM     28  F   UNL     1      -1.562   9.594  16.642  0.00  0.00    +0.000 F 
ENDBRANCH  24  25
BRANCH  24  29
ATOM     29  O   UNL     1      -1.239  12.609  17.281  0.00  0.00    +0.000 OA
ATOM     30  H   UNL     1      -0.743  12.226  16.531  0.00  0.00    +0.000 HD
ENDBRANCH  24  29
ENDBRANCH  23  24
ENDBRANCH  22  23
ENDBRANCH  20  22
ENDBRANCH   6  18
TORSDOF 7
ENDMDL
MODEL 2
REMARK VINA RESULT:      -8.3      4.381      8.685
REMARK  Name = 
REMARK  9 active torsions:
REMARK  status: ('A' for Active; 'I' for Inactive)
REMARK    1  A    between atoms: C_1  and  C_2
REMARK    2  A    between atoms: C_5  and  C_6
REMARK    3  A    between atoms: C_7  and  N_8
REMARK    4  A    between atoms: C_13  and  C_14
REMARK    5  A    between atoms: N_16  and  C_17
REMARK    6  A    between atoms: C_17  and  C_18
REMARK    7  A    between atoms: C_18  and  C_19
REMARK    8  A    between atoms: C_19  and  O_20
REMARK    9  A    between atoms: C_19  and  C_21
REMARK                            x       y       z     vdW  Elec       q    Type
REMARK                         _______ _______ _______ _____ _____    ______ ____
ROOT
ATOM      1  N   UNL     1       0.858  10.030  19.937  0.00  0.00    +0.000 N 
ATOM      2  C   UNL     1       0.596   9.460  21.165  0.00  0.00    +0.000 A 
ATOM      3  N   UNL     1       1.107   8.260  21.302  0.00  0.00    +0.000 NA
ATOM      4  C   UNL     1       1.720   8.006  20.109  0.00  0.00    +0.000 A 
ATOM      5  C   UNL     1       2.406   6.847  19.719  0.00  0.00    +0.000 A 
ATOM      6  C   UNL     1       2.992   6.804  18.448  0.00  0.00    +0.000 A 
ATOM      7  C   UNL     1       2.884   7.898  17.583  0.00  0.00    +0.000 A 
ATOM      8  C   UNL     1       2.207   9.064  17.964  0.00  0.00    +0.000 A 
ATOM      9  C   UNL     1       1.601   9.084  19.232  0.00  0.00    +0.000 A 
ENDROOT
BRANCH   1  16
ATOM     10  C   UNL     1       1.409  14.937  19.968  0.00  0.00    +0.000 C 
ATOM     11  C   UNL     1       0.670  13.725  19.477  0.00  0.00    +0.000 A 
ATOM     12  C   UNL     1      -0.403  13.844  18.596  0.00  0.00    +0.000 A 
ATOM     13  C   UNL     1      -1.080  12.707  18.157  0.00  0.00    +0.000 A 
ATOM     14  C   UNL     1      -0.719  11.416  18.592  0.00  0.00    +0.000 A 
ATOM     15  C   UNL     1      -1.585  10.277  18.132  0.00  0.00    +0.000 C 
ATOM     16  C   UNL     1       0.380  11.294  19.474  0.00  0.00    +0.000 A 
ATOM     17  C   UNL     1       1.061  12.450  19.900  0.00  0.00    +0.000 A 
ENDBRANCH   1  16
BRANCH   6  18
ATOM     18  C   UNL     1       3.730   5.600  17.979  0.00  0.00    +0.000 C 
ATOM     19  O   UNL     1       4.953   5.618  17.893  0.00  0.00    +0.000 OA
ATOM     20  N   UNL     1       2.964   4.486  17.697  0.00  0.00    +0.000 N 
ATOM     21  H   UNL     1       1.990   4.471  17.968  0.00  0.00    +0.000 HD
BRANCH  20  22
ATOM     22  C   UNL     1       3.564   3.249  17.242  0.00  0.00    +0.000 C 
BRANCH  22  23
ATOM     23  C   UNL     1       3.168   2.082  18.141  0.00  0.00    +0.000 C 
BRANCH  23  24
ATOM     24  C   UNL     1       3.909   2.120  19.480  0.00  0.00    +0.000 C 
BRANCH  24  25
ATOM     25  C   UNL     1       2.998   2.597  20.629  0.00  0.00    +0.000 C 
ATOM     26  F   UNL     1       3.344   2.061  21.821  0.00  0.00    +0.000 F 
ATOM     27  F   UNL     1       3.049   3.942  20.760  0.00  0.00    +0.000 F 
ATOM     28  F   UNL     1       1.707   2.257  20.401  0.00  0.00    +0.000 F 
ENDBRANCH  24  25
BRANCH  24  29
ATOM     29  O   UNL     1       5.095   2.926  19.330  0.00  0.00    +0.000 OA
ATOM     30  H   UNL     1       4.876   3.670  18.736  0.00  0.00    +0.000 HD
ENDBRANCH  24  29
ENDBRANCH  23  24
ENDBRANCH  22  23
ENDBRANCH  20  22
ENDBRANCH   6  18
TORSDOF 7
ENDMDL
MODEL 3
REMARK VINA RESULT:      -8.2      4.362      8.550
REMARK  Name = 
REMARK  9 active torsions:
REMARK  status: ('A' for Active; 'I' for Inactive)
REMARK    1  A    between atoms: C_1  and  C_2
REMARK    2  A    between atoms: C_5  and  C_6
REMARK    3  A    between atoms: C_7  and  N_8
REMARK    4  A    between atoms: C_13  and  C_14
REMARK    5  A    between atoms: N_16  and  C_17
REMARK    6  A    between atoms: C_17  and  C_18
REMARK    7  A    between atoms: C_18  and  C_19
REMARK    8  A    between atoms: C_19  and  O_20
REMARK    9  A    between atoms: C_19  and  C_21
REMARK                            x       y       z     vdW  Elec       q    Type
REMARK                         _______ _______ _______ _____ _____    ______ ____
ROOT
ATOM      1  N   UNL     1       0.897  10.448  20.154  0.00  0.00    +0.000 N 
ATOM      2  C   UNL     1       0.681   9.998  21.441  0.00  0.00    +0.000 A 
ATOM      3  N   UNL     1       1.052   8.754  21.627  0.00  0.00    +0.000 NA
ATOM      4  C   UNL     1       1.517   8.345  20.411  0.00  0.00    +0.000 A 
ATOM      5  C   UNL     1       2.018   7.085  20.057  0.00  0.00    +0.000 A 
ATOM      6  C   UNL     1       2.475   6.883  18.748  0.00  0.00    +0.000 A 
ATOM      7  C   UNL     1       2.423   7.922  17.814  0.00  0.00    +0.000 A 
ATOM      8  C   UNL     1       1.931   9.188  18.157  0.00  0.00    +0.000 A 
ATOM      9  C   UNL     1       1.451   9.369  19.465  0.00  0.00    +0.000 A 
ENDROOT
BRANCH   1  16
ATOM     10  C   UNL     1       1.965  15.260  19.879  0.00  0.00    +0.000 C 
ATOM     11  C   UNL     1       1.082  14.111  19.487  0.00  0.00    +0.000 A 
ATOM     12  C   UNL     1      -0.009  14.297  18.640  0.00  0.00    +0.000 A 
ATOM     13  C   UNL     1      -0.820  13.218  18.292  0.00  0.00    +0.000 A 
ATOM     14  C   UNL     1      -0.581  11.921  18.789  0.00  0.00    +0.000 A 
ATOM     15  C   UNL     1      -1.581  10.859  18.428  0.00  0.00    +0.000 C 
ATOM     16  C   UNL     1       0.536  11.728  19.636  0.00  0.00    +0.000 A 
ATOM     17  C   UNL     1       1.353  12.825  19.968  0.00  0.00    +0.000 A 
ENDBRANCH   1  16
BRANCH   6  18
ATOM     18  C   UNL     1       3.014   5.565  18.315  0.00  0.00    +0.000 C 
ATOM     19  O   UNL     1       4.222   5.354  18.335  0.00  0.00    +0.000 OA
ATOM     20  N   UNL     1       2.082   4.618  17.939  0.00  0.00    +0.000 N 
ATOM     21  H   UNL     1       1.102   4.784  18.124  0.00  0.00    +0.000 HD
BRANCH  20  22
ATOM     22  C   UNL     1       2.480   3.294  17.506  0.00  0.00    +0.000 C 
BRANCH  22  23
ATOM     23  C   UNL     1       1.878   2.218  18.405  0.00  0.00    +0.000 C 
BRANCH  23  24
ATOM     24  C   UNL     1       2.567   2.169  19.771  0.00  0.00    +0.000 C 
BRANCH  24  25
ATOM     25  C   UNL     1       1.770   2.936  20.845  0.00  0.00    +0.000 C 
ATOM     26  F   UNL     1       0.566   3.356  20.396  0.00  0.00    +0.000 F 
ATOM     27  F   UNL     1       1.549   2.160  21.930  0.00  0.00    +0.000 F 
ATOM     28  F   UNL     1       2.444   4.035  21.260  0.00  0.00    +0.000 F 
ENDBRANCH  24  25
BRANCH  24  29
ATOM     29  O   UNL     1       3.919   2.647  19.625  0.00  0.00    +0.000 OA
ATOM     30  H   UNL     1       4.480   2.153  20.254  0.00  0.00    +0.000 HD
ENDBRANCH  24  29
ENDBRANCH  23  24
ENDBRANCH  22  23
ENDBRANCH  20  22
ENDBRANCH   6  18
TORSDOF 7
ENDMDL
MODEL 4
REMARK VINA RESULT:      -8.2      0.802      1.127
REMARK  Name = 
REMARK  9 active torsions:
REMARK  status: ('A' for Active; 'I' for Inactive)
REMARK    1  A    between atoms: C_1  and  C_2
REMARK    2  A    between atoms: C_5  and  C_6
REMARK    3  A    between atoms: C_7  and  N_8
REMARK    4  A    between atoms: C_13  and  C_14
REMARK    5  A    between atoms: N_16  and  C_17
REMARK    6  A    between atoms: C_17  and  C_18
REMARK    7  A    between atoms: C_18  and  C_19
REMARK    8  A    between atoms: C_19  and  O_20
REMARK    9  A    between atoms: C_19  and  C_21
REMARK                            x       y       z     vdW  Elec       q    Type
REMARK                         _______ _______ _______ _____ _____    ______ ____
ROOT
ATOM      1  N   UNL     1       4.140   5.368  18.435  0.00  0.00    +0.000 N 
ATOM      2  C   UNL     1       3.722   4.582  19.489  0.00  0.00    +0.000 A 
ATOM      3  N   UNL     1       2.801   5.149  20.229  0.00  0.00    +0.000 NA
ATOM      4  C   UNL     1       2.606   6.374  19.660  0.00  0.00    +0.000 A 
ATOM      5  C   UNL     1       1.735   7.392  20.076  0.00  0.00    +0.000 A 
ATOM      6  C   UNL     1       1.668   8.572  19.325  0.00  0.00    +0.000 A 
ATOM      7  C   UNL     1       2.463   8.731  18.186  0.00  0.00    +0.000 A 
ATOM      8  C   UNL     1       3.332   7.720  17.757  0.00  0.00    +0.000 A 
ATOM      9  C   UNL     1       3.409   6.552  18.534  0.00  0.00    +0.000 A 
ENDROOT
BRANCH   1  16
ATOM     10  C   UNL     1       5.289   3.885  13.868  0.00  0.00    +0.000 C 
ATOM     11  C   UNL     1       5.737   4.332  15.229  0.00  0.00    +0.000 A 
ATOM     12  C   UNL     1       7.091   4.451  15.538  0.00  0.00    +0.000 A 
ATOM     13  C   UNL     1       7.486   4.862  16.811  0.00  0.00    +0.000 A 
ATOM     14  C   UNL     1       6.547   5.154  17.821  0.00  0.00    +0.000 A 
ATOM     15  C   UNL     1       7.093   5.488  19.181  0.00  0.00    +0.000 C 
ATOM     16  C   UNL     1       5.173   5.049  17.502  0.00  0.00    +0.000 A 
ATOM     17  C   UNL     1       4.789   4.644  16.209  0.00  0.00    +0.000 A 
ENDBRANCH   1  16
BRANCH   6  18
ATOM     18  C   UNL     1       0.764   9.687  19.721  0.00  0.00    +0.000 C 
ATOM     19  O   UNL     1       0.537   9.908  20.905  0.00  0.00    +0.000 OA
ATOM     20  N   UNL     1       0.249  10.450  18.691  0.00  0.00    +0.000 N 
ATOM     21  H   UNL     1       0.621  10.341  17.757  0.00  0.00    +0.000 HD
BRANCH  20  22
ATOM     22  C   UNL     1      -0.635  11.569  18.946  0.00  0.00    +0.000 C 
BRANCH  22  23
ATOM     23  C   UNL     1      -2.098  11.147  18.850  0.00  0.00    +0.000 C 
BRANCH  23  24
ATOM     24  C   UNL     1      -2.698  11.486  17.483  0.00  0.00    +0.000 C 
BRANCH  24  25
ATOM     25  C   UNL     1      -3.410  10.274  16.849  0.00  0.00    +0.000 C 
ATOM     26  F   UNL     1      -2.772   9.815  15.750  0.00  0.00    +0.000 F 
ATOM     27  F   UNL     1      -3.494   9.249  17.727  0.00  0.00    +0.000 F 
ATOM     28  F   UNL     1      -4.672  10.593  16.472  0.00  0.00    +0.000 F 
ENDBRANCH  24  25
BRANCH  24  29
ATOM     29  O   UNL     1      -1.660  12.030  16.644  0.00  0.00    +0.000 OA
ATOM     30  H   UNL     1      -0.838  12.066  17.172  0.00  0.00    +0.000 HD
ENDBRANCH  24  29
ENDBRANCH  23  24
ENDBRANCH  22  23
ENDBRANCH  20  22
ENDBRANCH   6  18
TORSDOF 7
ENDMDL
MODEL 5
REMARK VINA RESULT:      -8.2      3.927      8.641
REMARK  Name = 
REMARK  9 active torsions:
REMARK  status: ('A' for Active; 'I' for Inactive)
REMARK    1  A    between atoms: C_1  and  C_2
REMARK    2  A    between atoms: C_5  and  C_6
REMARK    3  A    between atoms: C_7  and  N_8
REMARK    4  A    between atoms: C_13  and  C_14
REMARK    5  A    between atoms: N_16  and  C_17
REMARK    6  A    between atoms: C_17  and  C_18
REMARK    7  A    between atoms: C_18  and  C_19
REMARK    8  A    between atoms: C_19  and  O_20
REMARK    9  A    between atoms: C_19  and  C_21
REMARK                            x       y       z     vdW  Elec       q    Type
REMARK                         _______ _______ _______ _____ _____    ______ ____
ROOT
ATOM      1  N   UNL     1       0.819   9.795  19.823  0.00  0.00    +0.000 N 
ATOM      2  C   UNL     1       0.462   9.248  21.038  0.00  0.00    +0.000 A 
ATOM      3  N   UNL     1       1.010   8.079  21.265  0.00  0.00    +0.000 NA
ATOM      4  C   UNL     1       1.749   7.820  20.147  0.00  0.00    +0.000 A 
ATOM      5  C   UNL     1       2.522   6.685  19.866  0.00  0.00    +0.000 A 
ATOM      6  C   UNL     1       3.234   6.634  18.660  0.00  0.00    +0.000 A 
ATOM      7  C   UNL     1       3.163   7.696  17.753  0.00  0.00    +0.000 A 
ATOM      8  C   UNL     1       2.400   8.838  18.026  0.00  0.00    +0.000 A 
ATOM      9  C   UNL     1       1.671   8.865  19.227  0.00  0.00    +0.000 A 
ENDROOT
BRANCH   1  16
ATOM     10  C   UNL     1       1.544  14.640  19.207  0.00  0.00    +0.000 C 
ATOM     11  C   UNL     1       0.708  13.419  18.954  0.00  0.00    +0.000 A 
ATOM     12  C   UNL     1      -0.460  13.491  18.198  0.00  0.00    +0.000 A 
ATOM     13  C   UNL     1      -1.226  12.346  17.979  0.00  0.00    +0.000 A 
ATOM     14  C   UNL     1      -0.861  11.096  18.519  0.00  0.00    +0.000 A 
ATOM     15  C   UNL     1      -1.817   9.956  18.303  0.00  0.00    +0.000 C 
ATOM     16  C   UNL     1       0.333  11.020  19.273  0.00  0.00    +0.000 A 
ATOM     17  C   UNL     1       1.102  12.182  19.475  0.00  0.00    +0.000 A 
ENDBRANCH   1  16
BRANCH   6  18
ATOM     18  C   UNL     1       4.068   5.453  18.307  0.00  0.00    +0.000 C 
ATOM     19  O   UNL     1       3.554   4.460  17.805  0.00  0.00    +0.000 OA
ATOM     20  N   UNL     1       5.424   5.572  18.544  0.00  0.00    +0.000 N 
ATOM     21  H   UNL     1       5.811   6.476  18.778  0.00  0.00    +0.000 HD
BRANCH  20  22
ATOM     22  C   UNL     1       6.344   4.496  18.235  0.00  0.00    +0.000 C 
BRANCH  22  23
ATOM     23  C   UNL     1       7.105   4.777  16.943  0.00  0.00    +0.000 C 
BRANCH  23  24
ATOM     24  C   UNL     1       6.577   3.935  15.778  0.00  0.00    +0.000 C 
BRANCH  24  25
ATOM     25  C   UNL     1       6.056   4.814  14.623  0.00  0.00    +0.000 C 
ATOM     26  F   UNL     1       7.053   5.286  13.841  0.00  0.00    +0.000 F 
ATOM     27  F   UNL     1       5.213   4.117  13.827  0.00  0.00    +0.000 F 
ATOM     28  F   UNL     1       5.379   5.888  15.094  0.00  0.00    +0.000 F 
ENDBRANCH  24  25
BRANCH  24  29
ATOM     29  O   UNL     1       5.584   3.020  16.281  0.00  0.00    +0.000 OA
ATOM     30  H   UNL     1       4.995   3.519  16.881  0.00  0.00    +0.000 HD
ENDBRANCH  24  29
ENDBRANCH  23  24
ENDBRANCH  22  23
ENDBRANCH  20  22
ENDBRANCH   6  18
TORSDOF 7
ENDMDL
MODEL 6
REMARK VINA RESULT:      -8.2      0.694      1.049
REMARK  Name = 
REMARK  9 active torsions:
REMARK  status: ('A' for Active; 'I' for Inactive)
REMARK    1  A    between atoms: C_1  and  C_2
REMARK    2  A    between atoms: C_5  and  C_6
REMARK    3  A    between atoms: C_7  and  N_8
REMARK    4  A    between atoms: C_13  and  C_14
REMARK    5  A    between atoms: N_16  and  C_17
REMARK    6  A    between atoms: C_17  and  C_18
REMARK    7  A    between atoms: C_18  and  C_19
REMARK    8  A    between atoms: C_19  and  O_20
REMARK    9  A    between atoms: C_19  and  C_21
REMARK                            x       y       z     vdW  Elec       q    Type
REMARK                         _______ _______ _______ _____ _____    ______ ____
ROOT
ATOM      1  N   UNL     1       4.519   5.010  17.811  0.00  0.00    +0.000 N 
ATOM      2  C   UNL     1       4.283   4.091  18.812  0.00  0.00    +0.000 A 
ATOM      3  N   UNL     1       3.431   4.512  19.715  0.00  0.00    +0.000 NA
ATOM      4  C   UNL     1       3.096   5.773  19.314  0.00  0.00    +0.000 A 
ATOM      5  C   UNL     1       2.228   6.678  19.942  0.00  0.00    +0.000 A 
ATOM      6  C   UNL     1       1.999   7.922  19.341  0.00  0.00    +0.000 A 
ATOM      7  C   UNL     1       2.634   8.254  18.140  0.00  0.00    +0.000 A 
ATOM      8  C   UNL     1       3.498   7.356  17.500  0.00  0.00    +0.000 A 
ATOM      9  C   UNL     1       3.740   6.122  18.127  0.00  0.00    +0.000 A 
ENDROOT
BRANCH   1  16
ATOM     10  C   UNL     1       5.233   3.646  13.119  0.00  0.00    +0.000 C 
ATOM     11  C   UNL     1       5.787   4.204  14.398  0.00  0.00    +0.000 A 
ATOM     12  C   UNL     1       7.125   4.579  14.500  0.00  0.00    +0.000 A 
ATOM     13  C   UNL     1       7.622   5.090  15.700  0.00  0.00    +0.000 A 
ATOM     14  C   UNL     1       6.805   5.229  16.840  0.00  0.00    +0.000 A 
ATOM     15  C   UNL     1       7.474   5.693  18.103  0.00  0.00    +0.000 C 
ATOM     16  C   UNL     1       5.443   4.863  16.732  0.00  0.00    +0.000 A 
ATOM     17  C   UNL     1       4.953   4.361  15.511  0.00  0.00    +0.000 A 
ENDBRANCH   1  16
BRANCH   6  18
ATOM     18  C   UNL     1       1.089   8.923  19.963  0.00  0.00    +0.000 C 
ATOM     19  O   UNL     1       0.755   8.809  21.137  0.00  0.00    +0.000 OA
ATOM     20  N   UNL     1       0.696   9.973  19.157  0.00  0.00    +0.000 N 
ATOM     21  H   UNL     1       1.153  10.116  18.267  0.00  0.00    +0.000 HD
BRANCH  20  22
ATOM     22  C   UNL     1      -0.181  11.017  19.648  0.00  0.00    +0.000 C 
BRANCH  22  23
ATOM     23  C   UNL     1      -0.993  11.632  18.513  0.00  0.00    +0.000 C 
BRANCH  23  24
ATOM     24  C   UNL     1      -2.435  11.117  18.503  0.00  0.00    +0.000 C 
BRANCH  24  25
ATOM     25  C   UNL     1      -2.663  10.067  17.397  0.00  0.00    +0.000 C 
ATOM     26  F   UNL     1      -1.512   9.492  16.983  0.00  0.00    +0.000 F 
ATOM     27  F   UNL     1      -3.477   9.077  17.830  0.00  0.00    +0.000 F 
ATOM     28  F   UNL     1      -3.242  10.625  16.307  0.00  0.00    +0.000 F 
ENDBRANCH  24  25
BRANCH  24  29
ATOM     29  O   UNL     1      -3.328  12.243  18.402  0.00  0.00    +0.000 OA
ATOM     30  H   UNL     1      -4.170  11.923  18.024  0.00  0.00    +0.000 HD
ENDBRANCH  24  29
ENDBRANCH  23  24
ENDBRANCH  22  23
ENDBRANCH  20  22
ENDBRANCH   6  18
TORSDOF 7
ENDMDL
MODEL 7
REMARK VINA RESULT:      -8.1      1.653      2.662
REMARK  Name = 
REMARK  9 active torsions:
REMARK  status: ('A' for Active; 'I' for Inactive)
REMARK    1  A    between atoms: C_1  and  C_2
REMARK    2  A    between atoms: C_5  and  C_6
REMARK    3  A    between atoms: C_7  and  N_8
REMARK    4  A    between atoms: C_13  and  C_14
REMARK    5  A    between atoms: N_16  and  C_17
REMARK    6  A    between atoms: C_17  and  C_18
REMARK    7  A    between atoms: C_18  and  C_19
REMARK    8  A    between atoms: C_19  and  O_20
REMARK    9  A    between atoms: C_19  and  C_21
REMARK                            x       y       z     vdW  Elec       q    Type
REMARK                         _______ _______ _______ _____ _____    ______ ____
ROOT
ATOM      1  N   UNL     1       3.015   5.987  19.250  0.00  0.00    +0.000 N 
ATOM      2  C   UNL     1       2.522   5.596  20.477  0.00  0.00    +0.000 A 
ATOM      3  N   UNL     1       1.689   6.462  21.003  0.00  0.00    +0.000 NA
ATOM      4  C   UNL     1       1.636   7.484  20.101  0.00  0.00    +0.000 A 
ATOM      5  C   UNL     1       0.904   8.677  20.188  0.00  0.00    +0.000 A 
ATOM      6  C   UNL     1       0.969   9.589  19.126  0.00  0.00    +0.000 A 
ATOM      7  C   UNL     1       1.760   9.313  18.006  0.00  0.00    +0.000 A 
ATOM      8  C   UNL     1       2.490   8.122  17.905  0.00  0.00    +0.000 A 
ATOM      9  C   UNL     1       2.437   7.229  18.988  0.00  0.00    +0.000 A 
ENDROOT
BRANCH   1  16
ATOM     10  C   UNL     1       7.788   5.377  18.142  0.00  0.00    +0.000 C 
ATOM     11  C   UNL     1       6.356   4.976  17.938  0.00  0.00    +0.000 A 
ATOM     12  C   UNL     1       6.013   3.957  17.052  0.00  0.00    +0.000 A 
ATOM     13  C   UNL     1       4.676   3.603  16.872  0.00  0.00    +0.000 A 
ATOM     14  C   UNL     1       3.636   4.264  17.558  0.00  0.00    +0.000 A 
ATOM     15  C   UNL     1       2.230   3.866  17.207  0.00  0.00    +0.000 C 
ATOM     16  C   UNL     1       3.986   5.288  18.469  0.00  0.00    +0.000 A 
ATOM     17  C   UNL     1       5.340   5.625  18.649  0.00  0.00    +0.000 A 
ENDBRANCH   1  16
BRANCH   6  18
ATOM     18  C   UNL     1       0.215  10.871  19.164  0.00  0.00    +0.000 C 
ATOM     19  O   UNL     1       0.768  11.923  18.862  0.00  0.00    +0.000 OA
ATOM     20  N   UNL     1      -1.117  10.786  19.516  0.00  0.00    +0.000 N 
ATOM     21  H   UNL     1      -1.561   9.879  19.566  0.00  0.00    +0.000 HD
BRANCH  20  22
ATOM     22  C   UNL     1      -1.961  11.962  19.580  0.00  0.00    +0.000 C 
BRANCH  22  23
ATOM     23  C   UNL     1      -3.243  11.764  18.778  0.00  0.00    +0.000 C 
BRANCH  23  24
ATOM     24  C   UNL     1      -2.956  11.563  17.289  0.00  0.00    +0.000 C 
BRANCH  24  25
ATOM     25  C   UNL     1      -2.983  10.072  16.893  0.00  0.00    +0.000 C 
ATOM     26  F   UNL     1      -3.652   9.856  15.738  0.00  0.00    +0.000 F 
ATOM     27  F   UNL     1      -1.730   9.591  16.731  0.00  0.00    +0.000 F 
ATOM     28  F   UNL     1      -3.588   9.326  17.848  0.00  0.00    +0.000 F 
ENDBRANCH  24  25
BRANCH  24  29
ATOM     29  O   UNL     1      -1.707  12.207  16.967  0.00  0.00    +0.000 OA
ATOM     30  H   UNL     1      -1.528  12.053  16.019  0.00  0.00    +0.000 HD
ENDBRANCH  24  29
ENDBRANCH  23  24
ENDBRANCH  22  23
ENDBRANCH  20  22
ENDBRANCH   6  18
TORSDOF 7
ENDMDL
MODEL 8
REMARK VINA RESULT:      -8.0      1.336      2.405
REMARK  Name = 
REMARK  9 active torsions:
REMARK  status: ('A' for Active; 'I' for Inactive)
REMARK    1  A    between atoms: C_1  and  C_2
REMARK    2  A    between atoms: C_5  and  C_6
REMARK    3  A    between atoms: C_7  and  N_8
REMARK    4  A    between atoms: C_13  and  C_14
REMARK    5  A    between atoms: N_16  and  C_17
REMARK    6  A    between atoms: C_17  and  C_18
REMARK    7  A    between atoms: C_18  and  C_19
REMARK    8  A    between atoms: C_19  and  O_20
REMARK    9  A    between atoms: C_19  and  C_21
REMARK                            x       y       z     vdW  Elec       q    Type
REMARK                         _______ _______ _______ _____ _____    ______ ____
ROOT
ATOM      1  N   UNL     1       3.194   5.718  19.143  0.00  0.00    +0.000 N 
ATOM      2  C   UNL     1       2.857   5.011  20.279  0.00  0.00    +0.000 A 
ATOM      3  N   UNL     1       1.997   5.635  21.046  0.00  0.00    +0.000 NA
ATOM      4  C   UNL     1       1.761   6.819  20.410  0.00  0.00    +0.000 A 
ATOM      5  C   UNL     1       0.928   7.870  20.820  0.00  0.00    +0.000 A 
ATOM      6  C   UNL     1       0.805   8.996  19.996  0.00  0.00    +0.000 A 
ATOM      7  C   UNL     1       1.510   9.069  18.791  0.00  0.00    +0.000 A 
ATOM      8  C   UNL     1       2.341   8.024  18.367  0.00  0.00    +0.000 A 
ATOM      9  C   UNL     1       2.476   6.912  19.216  0.00  0.00    +0.000 A 
ENDROOT
BRANCH   1  16
ATOM     10  C   UNL     1       7.596   6.563  17.073  0.00  0.00    +0.000 C 
ATOM     11  C   UNL     1       6.344   5.739  17.148  0.00  0.00    +0.000 A 
ATOM     12  C   UNL     1       6.153   4.640  16.312  0.00  0.00    +0.000 A 
ATOM     13  C   UNL     1       4.980   3.891  16.393  0.00  0.00    +0.000 A 
ATOM     14  C   UNL     1       3.951   4.222  17.299  0.00  0.00    +0.000 A 
ATOM     15  C   UNL     1       2.691   3.405  17.224  0.00  0.00    +0.000 C 
ATOM     16  C   UNL     1       4.151   5.328  18.158  0.00  0.00    +0.000 A 
ATOM     17  C   UNL     1       5.346   6.067  18.073  0.00  0.00    +0.000 A 
ENDBRANCH   1  16
BRANCH   6  18
ATOM     18  C   UNL     1      -0.063  10.142  20.381  0.00  0.00    +0.000 C 
ATOM     19  O   UNL     1      -0.157  10.478  21.556  0.00  0.00    +0.000 OA
ATOM     20  N   UNL     1      -0.702  10.798  19.348  0.00  0.00    +0.000 N 
ATOM     21  H   UNL     1      -0.437  10.598  18.393  0.00  0.00    +0.000 HD
BRANCH  20  22
ATOM     22  C   UNL     1      -1.566  11.935  19.591  0.00  0.00    +0.000 C 
BRANCH  22  23
ATOM     23  C   UNL     1      -2.943  11.723  18.968  0.00  0.00    +0.000 C 
BRANCH  23  24
ATOM     24  C   UNL     1      -2.861  11.582  17.446  0.00  0.00    +0.000 C 
BRANCH  24  25
ATOM     25  C   UNL     1      -2.993  10.113  16.995  0.00  0.00    +0.000 C 
ATOM     26  F   UNL     1      -1.793   9.517  16.817  0.00  0.00    +0.000 F 
ATOM     27  F   UNL     1      -3.674   9.386  17.909  0.00  0.00    +0.000 F 
ATOM     28  F   UNL     1      -3.660  10.022  15.820  0.00  0.00    +0.000 F 
ENDBRANCH  24  25
BRANCH  24  29
ATOM     29  O   UNL     1      -1.644  12.204  16.989  0.00  0.00    +0.000 OA
ATOM     30  H   UNL     1      -1.108  12.427  17.775  0.00  0.00    +0.000 HD
ENDBRANCH  24  29
ENDBRANCH  23  24
ENDBRANCH  22  23
ENDBRANCH  20  22
ENDBRANCH   6  18
TORSDOF 7
ENDMDL
MODEL 9
REMARK VINA RESULT:      -7.9      4.170      8.479
REMARK  Name = 
REMARK  9 active torsions:
REMARK  status: ('A' for Active; 'I' for Inactive)
REMARK    1  A    between atoms: C_1  and  C_2
REMARK    2  A    between atoms: C_5  and  C_6
REMARK    3  A    between atoms: C_7  and  N_8
REMARK    4  A    between atoms: C_13  and  C_14
REMARK    5  A    between atoms: N_16  and  C_17
REMARK    6  A    between atoms: C_17  and  C_18
REMARK    7  A    between atoms: C_18  and  C_19
REMARK    8  A    between atoms: C_19  and  O_20
REMARK    9  A    between atoms: C_19  and  C_21
REMARK                            x       y       z     vdW  Elec       q    Type
REMARK                         _______ _______ _______ _____ _____    ______ ____
ROOT
ATOM      1  N   UNL     1       0.842  10.342  20.152  0.00  0.00    +0.000 N 
ATOM      2  C   UNL     1       0.588   9.838  21.410  0.00  0.00    +0.000 A 
ATOM      3  N   UNL     1       1.014   8.609  21.576  0.00  0.00    +0.000 NA
ATOM      4  C   UNL     1       1.561   8.267  20.373  0.00  0.00    +0.000 A 
ATOM      5  C   UNL     1       2.145   7.047  20.005  0.00  0.00    +0.000 A 
ATOM      6  C   UNL     1       2.677   6.914  18.716  0.00  0.00    +0.000 A 
ATOM      7  C   UNL     1       2.616   7.980  17.813  0.00  0.00    +0.000 A 
ATOM      8  C   UNL     1       2.040   9.206  18.171  0.00  0.00    +0.000 A 
ATOM      9  C   UNL     1       1.487   9.317  19.458  0.00  0.00    +0.000 A 
ENDROOT
BRANCH   1  16
ATOM     10  C   UNL     1       1.672  15.208  20.073  0.00  0.00    +0.000 C 
ATOM     11  C   UNL     1       0.868  14.030  19.606  0.00  0.00    +0.000 A 
ATOM     12  C   UNL     1      -0.191  14.189  18.715  0.00  0.00    +0.000 A 
ATOM     13  C   UNL     1      -0.929  13.082  18.297  0.00  0.00    +0.000 A 
ATOM     14  C   UNL     1      -0.646  11.783  18.764  0.00  0.00    +0.000 A 
ATOM     15  C   UNL     1      -1.573  10.685  18.325  0.00  0.00    +0.000 C 
ATOM     16  C   UNL     1       0.440  11.619  19.656  0.00  0.00    +0.000 A 
ATOM     17  C   UNL     1       1.184  12.744  20.060  0.00  0.00    +0.000 A 
ENDBRANCH   1  16
BRANCH   6  18
ATOM     18  C   UNL     1       3.307   5.641  18.269  0.00  0.00    +0.000 C 
ATOM     19  O   UNL     1       4.490   5.421  18.504  0.00  0.00    +0.000 OA
ATOM     20  N   UNL     1       2.478   4.742  17.628  0.00  0.00    +0.000 N 
ATOM     21  H   UNL     1       1.478   4.895  17.635  0.00  0.00    +0.000 HD
BRANCH  20  22
ATOM     22  C   UNL     1       2.969   3.464  17.154  0.00  0.00    +0.000 C 
BRANCH  22  23
ATOM     23  C   UNL     1       2.591   2.339  18.113  0.00  0.00    +0.000 C 
BRANCH  23  24
ATOM     24  C   UNL     1       1.305   2.656  18.881  0.00  0.00    +0.000 C 
BRANCH  24  25
ATOM     25  C   UNL     1       1.591   3.051  20.345  0.00  0.00    +0.000 C 
ATOM     26  F   UNL     1       2.890   3.362  20.553  0.00  0.00    +0.000 F 
ATOM     27  F   UNL     1       0.854   4.125  20.708  0.00  0.00    +0.000 F 
ATOM     28  F   UNL     1       1.284   2.040  21.191  0.00  0.00    +0.000 F 
ENDBRANCH  24  25
BRANCH  24  29
ATOM     29  O   UNL     1       0.409   1.533  18.767  0.00  0.00    +0.000 OA
ATOM     30  H   UNL     1       0.694   0.857  19.413  0.00  0.00    +0.000 HD
ENDBRANCH  24  29
ENDBRANCH  23  24
ENDBRANCH  22  23
ENDBRANCH  20  22
ENDBRANCH   6  18
TORSDOF 7
ENDMDL
