MODEL 1
REMARK VINA RESULT:      -8.4      0.000      0.000
REMARK  Name = 
REMARK  4 active torsions:
REMARK  status: ('A' for Active; 'I' for Inactive)
REMARK    1  A    between atoms: C_2  and  C_3
REMARK    2  A    between atoms: C_3  and  N_4
REMARK    3  A    between atoms: N_16  and  C_17
REMARK    4  A    between atoms: C_20  and  C_21
REMARK                            x       y       z     vdW  Elec       q    Type
REMARK                         _______ _______ _______ _____ _____    ______ ____
ROOT
ATOM      1  O   UNL     1       1.422   4.590  19.675  0.00  0.00    +0.000 OA
ATOM      2  C   UNL     1       2.580   4.973  19.818  0.00  0.00    +0.000 C 
ATOM      3  N   UNL     1       2.982   6.296  19.912  0.00  0.00    +0.000 N 
ATOM      4  H   UNL     1       3.972   6.487  19.751  0.00  0.00    +0.000 HD
ENDROOT
BRANCH   3   5
ATOM      5  C   UNL     1       2.112   7.409  19.995  0.00  0.00    +0.000 A 
ATOM      6  C   UNL     1       1.349   7.750  21.092  0.00  0.00    +0.000 A 
ATOM      7  N   UNL     1       0.496   8.800  21.129  0.00  0.00    +0.000 NA
ATOM      8  C   UNL     1       0.395   9.546  20.011  0.00  0.00    +0.000 A 
ATOM      9  N   UNL     1       1.126   9.331  18.898  0.00  0.00    +0.000 NA
ATOM     10  C   UNL     1       1.969   8.272  18.924  0.00  0.00    +0.000 A 
BRANCH   8  11
ATOM     11  C   UNL     1      -0.626  10.618  19.995  0.00  0.00    +0.000 A 
ATOM     12  C   UNL     1      -0.908  11.377  21.150  0.00  0.00    +0.000 A 
ATOM     13  C   UNL     1      -1.902  12.361  21.158  0.00  0.00    +0.000 A 
ATOM     14  C   UNL     1      -2.641  12.613  20.007  0.00  0.00    +0.000 A 
ATOM     15  C   UNL     1      -2.380  11.888  18.848  0.00  0.00    +0.000 A 
ATOM     16  C   UNL     1      -1.382  10.904  18.843  0.00  0.00    +0.000 A 
ENDBRANCH   8  11
ENDBRANCH   3   5
BRANCH   2  17
ATOM     17  C   UNL     1       3.735   3.972  19.791  0.00  0.00    +0.000 C 
BRANCH  17  18
ATOM     18  N   UNL     1       4.630   4.317  18.699  0.00  0.00    +0.000 N 
ATOM     19  C   UNL     1       5.830   4.929  18.959  0.00  0.00    +0.000 A 
ATOM     20  N   UNL     1       6.714   5.226  18.065  0.00  0.00    +0.000 NA
ATOM     21  C   UNL     1       6.442   4.872  16.738  0.00  0.00    +0.000 A 
ATOM     22  C   UNL     1       7.415   5.115  15.765  0.00  0.00    +0.000 A 
ATOM     23  C   UNL     1       7.199   4.738  14.437  0.00  0.00    +0.000 A 
ATOM     24  C   UNL     1       5.995   4.138  14.082  0.00  0.00    +0.000 A 
ATOM     25  F   UNL     1       5.793   3.770  12.811  0.00  0.00    +0.000 F 
ATOM     26  C   UNL     1       5.007   3.897  15.026  0.00  0.00    +0.000 A 
ATOM     27  C   UNL     1       5.247   4.255  16.355  0.00  0.00    +0.000 A 
ATOM     28  C   UNL     1       4.274   3.936  17.416  0.00  0.00    +0.000 A 
ATOM     29  O   UNL     1       3.239   3.322  17.165  0.00  0.00    +0.000 OA
ENDBRANCH  17  18
ENDBRANCH   2  17
TORSDOF 4
ENDMDL
MODEL 2
REMARK VINA RESULT:      -8.1      0.558      1.047
REMARK  Name = 
REMARK  4 active torsions:
REMARK  status: ('A' for Active; 'I' for Inactive)
REMARK    1  A    between atoms: C_2  and  C_3
REMARK    2  A    between atoms: C_3  and  N_4
REMARK    3  A    between atoms: N_16  and  C_17
REMARK    4  A    between atoms: C_20  and  C_21
REMARK                            x       y       z     vdW  Elec       q    Type
REMARK                         _______ _______ _______ _____ _____    ______ ____
ROOT
ATOM      1  O   UNL     1       1.265   4.666  19.879  0.00  0.00    +0.000 OA
ATOM      2  C   UNL     1       2.436   5.031  19.945  0.00  0.00    +0.000 C 
ATOM      3  N   UNL     1       2.868   6.348  19.948  0.00  0.00    +0.000 N 
ATOM      4  H   UNL     1       3.853   6.508  19.730  0.00  0.00    +0.000 HD
ENDROOT
BRANCH   3   5
ATOM      5  C   UNL     1       2.026   7.482  20.012  0.00  0.00    +0.000 A 
ATOM      6  C   UNL     1       1.802   8.374  18.983  0.00  0.00    +0.000 A 
ATOM      7  N   UNL     1       1.019   9.473  19.087  0.00  0.00    +0.000 NA
ATOM      8  C   UNL     1       0.433   9.698  20.279  0.00  0.00    +0.000 A 
ATOM      9  N   UNL     1       0.547   8.870  21.337  0.00  0.00    +0.000 NA
ATOM     10  C   UNL     1       1.335   7.781  21.172  0.00  0.00    +0.000 A 
BRANCH   8  11
ATOM     11  C   UNL     1      -0.320  10.961  20.443  0.00  0.00    +0.000 A 
ATOM     12  C   UNL     1      -0.898  11.313  21.681  0.00  0.00    +0.000 A 
ATOM     13  C   UNL     1      -1.652  12.482  21.835  0.00  0.00    +0.000 A 
ATOM     14  C   UNL     1      -1.846  13.332  20.752  0.00  0.00    +0.000 A 
ATOM     15  C   UNL     1      -1.280  13.019  19.519  0.00  0.00    +0.000 A 
ATOM     16  C   UNL     1      -0.525  11.847  19.369  0.00  0.00    +0.000 A 
ENDBRANCH   8  11
ENDBRANCH   3   5
BRANCH   2  17
ATOM     17  C   UNL     1       3.568   4.004  19.917  0.00  0.00    +0.000 C 
BRANCH  17  18
ATOM     18  N   UNL     1       4.484   4.344  18.841  0.00  0.00    +0.000 N 
ATOM     19  C   UNL     1       5.691   4.934  19.124  0.00  0.00    +0.000 A 
ATOM     20  N   UNL     1       6.591   5.224  18.245  0.00  0.00    +0.000 NA
ATOM     21  C   UNL     1       6.333   4.887  16.911  0.00  0.00    +0.000 A 
ATOM     22  C   UNL     1       7.323   5.123  15.954  0.00  0.00    +0.000 A 
ATOM     23  C   UNL     1       7.120   4.763  14.620  0.00  0.00    +0.000 A 
ATOM     24  C   UNL     1       5.912   4.186  14.242  0.00  0.00    +0.000 A 
ATOM     25  F   UNL     1       5.722   3.833  12.965  0.00  0.00    +0.000 F 
ATOM     26  C   UNL     1       4.906   3.952  15.171  0.00  0.00    +0.000 A 
ATOM     27  C   UNL     1       5.133   4.294  16.506  0.00  0.00    +0.000 A 
ATOM     28  C   UNL     1       4.140   3.981  17.550  0.00  0.00    +0.000 A 
ATOM     29  O   UNL     1       3.099   3.387  17.279  0.00  0.00    +0.000 OA
ENDBRANCH  17  18
ENDBRANCH   2  17
TORSDOF 4
ENDMDL
MODEL 3
REMARK VINA RESULT:      -8.0      0.957      1.016
REMARK  Name = 
REMARK  4 active torsions:
REMARK  status: ('A' for Active; 'I' for Inactive)
REMARK    1  A    between atoms: C_2  and  C_3
REMARK    2  A    between atoms: C_3  and  N_4
REMARK    3  A    between atoms: N_16  and  C_17
REMARK    4  A    between atoms: C_20  and  C_21
REMARK                            x       y       z     vdW  Elec       q    Type
REMARK                         _______ _______ _______ _____ _____    ______ ____
ROOT
ATOM      1  O   UNL     1       0.856   4.935  20.238  0.00  0.00    +0.000 OA
ATOM      2  C   UNL     1       2.066   5.095  20.101  0.00  0.00    +0.000 C 
ATOM      3  N   UNL     1       2.697   6.313  19.901  0.00  0.00    +0.000 N 
ATOM      4  H   UNL     1       3.648   6.281  19.532  0.00  0.00    +0.000 HD
ENDROOT
BRANCH   3   5
ATOM      5  C   UNL     1       2.066   7.577  19.958  0.00  0.00    +0.000 A 
ATOM      6  C   UNL     1       1.464   8.124  21.073  0.00  0.00    +0.000 A 
ATOM      7  N   UNL     1       0.834   9.321  21.087  0.00  0.00    +0.000 NA
ATOM      8  C   UNL     1       0.796  10.007  19.927  0.00  0.00    +0.000 A 
ATOM      9  N   UNL     1       1.389   9.589  18.790  0.00  0.00    +0.000 NA
ATOM     10  C   UNL     1       2.013   8.389  18.839  0.00  0.00    +0.000 A 
BRANCH   8  11
ATOM     11  C   UNL     1       0.003  11.256  19.897  0.00  0.00    +0.000 A 
ATOM     12  C   UNL     1       0.611  12.505  19.653  0.00  0.00    +0.000 A 
ATOM     13  C   UNL     1      -0.122  13.696  19.668  0.00  0.00    +0.000 A 
ATOM     14  C   UNL     1      -1.488  13.669  19.927  0.00  0.00    +0.000 A 
ATOM     15  C   UNL     1      -2.121  12.452  20.162  0.00  0.00    +0.000 A 
ATOM     16  C   UNL     1      -1.383  11.260  20.145  0.00  0.00    +0.000 A 
ENDBRANCH   8  11
ENDBRANCH   3   5
BRANCH   2  17
ATOM     17  C   UNL     1       3.003   3.889  20.028  0.00  0.00    +0.000 C 
BRANCH  17  18
ATOM     18  N   UNL     1       4.061   4.174  19.073  0.00  0.00    +0.000 N 
ATOM     19  C   UNL     1       5.309   4.536  19.516  0.00  0.00    +0.000 A 
ATOM     20  N   UNL     1       6.325   4.756  18.750  0.00  0.00    +0.000 NA
ATOM     21  C   UNL     1       6.152   4.586  17.371  0.00  0.00    +0.000 A 
ATOM     22  C   UNL     1       7.256   4.747  16.531  0.00  0.00    +0.000 A 
ATOM     23  C   UNL     1       7.133   4.544  15.153  0.00  0.00    +0.000 A 
ATOM     24  C   UNL     1       5.896   4.204  14.618  0.00  0.00    +0.000 A 
ATOM     25  F   UNL     1       5.782   4.003  13.300  0.00  0.00    +0.000 F 
ATOM     26  C   UNL     1       4.780   4.051  15.430  0.00  0.00    +0.000 A 
ATOM     27  C   UNL     1       4.923   4.231  16.808  0.00  0.00    +0.000 A 
ATOM     28  C   UNL     1       3.796   3.988  17.727  0.00  0.00    +0.000 A 
ATOM     29  O   UNL     1       2.708   3.594  17.310  0.00  0.00    +0.000 OA
ENDBRANCH  17  18
ENDBRANCH   2  17
TORSDOF 4
ENDMDL
MODEL 4
REMARK VINA RESULT:      -8.0      1.297      1.892
REMARK  Name = 
REMARK  4 active torsions:
REMARK  status: ('A' for Active; 'I' for Inactive)
REMARK    1  A    between atoms: C_2  and  C_3
REMARK    2  A    between atoms: C_3  and  N_4
REMARK    3  A    between atoms: N_16  and  C_17
REMARK    4  A    between atoms: C_20  and  C_21
REMARK                            x       y       z     vdW  Elec       q    Type
REMARK                         _______ _______ _______ _____ _____    ______ ____
ROOT
ATOM      1  O   UNL     1       2.849   4.690  18.862  0.00  0.00    +0.000 OA
ATOM      2  C   UNL     1       3.901   5.311  18.735  0.00  0.00    +0.000 C 
ATOM      3  N   UNL     1       4.008   6.683  18.576  0.00  0.00    +0.000 N 
ATOM      4  H   UNL     1       4.895   7.034  18.211  0.00  0.00    +0.000 HD
ENDROOT
BRANCH   3   5
ATOM      5  C   UNL     1       2.937   7.602  18.669  0.00  0.00    +0.000 A 
ATOM      6  C   UNL     1       2.127   7.781  19.772  0.00  0.00    +0.000 A 
ATOM      7  N   UNL     1       1.084   8.641  19.818  0.00  0.00    +0.000 NA
ATOM      8  C   UNL     1       0.831   9.358  18.704  0.00  0.00    +0.000 A 
ATOM      9  N   UNL     1       1.584   9.296  17.587  0.00  0.00    +0.000 NA
ATOM     10  C   UNL     1       2.620   8.424  17.603  0.00  0.00    +0.000 A 
BRANCH   8  11
ATOM     11  C   UNL     1      -0.380  10.207  18.698  0.00  0.00    +0.000 A 
ATOM     12  C   UNL     1      -1.336  10.112  17.665  0.00  0.00    +0.000 A 
ATOM     13  C   UNL     1      -2.461  10.942  17.625  0.00  0.00    +0.000 A 
ATOM     14  C   UNL     1      -2.663  11.890  18.622  0.00  0.00    +0.000 A 
ATOM     15  C   UNL     1      -1.744  12.002  19.662  0.00  0.00    +0.000 A 
ATOM     16  C   UNL     1      -0.618  11.168  19.699  0.00  0.00    +0.000 A 
ENDBRANCH   8  11
ENDBRANCH   3   5
BRANCH   2  17
ATOM     17  C   UNL     1       5.231   4.565  18.629  0.00  0.00    +0.000 C 
BRANCH  17  18
ATOM     18  N   UNL     1       5.759   4.736  17.286  0.00  0.00    +0.000 N 
ATOM     19  C   UNL     1       6.836   5.558  17.069  0.00  0.00    +0.000 A 
ATOM     20  N   UNL     1       7.409   5.734  15.925  0.00  0.00    +0.000 NA
ATOM     21  C   UNL     1       6.916   5.011  14.832  0.00  0.00    +0.000 A 
ATOM     22  C   UNL     1       7.567   5.127  13.601  0.00  0.00    +0.000 A 
ATOM     23  C   UNL     1       7.131   4.389  12.497  0.00  0.00    +0.000 A 
ATOM     24  C   UNL     1       6.027   3.553  12.623  0.00  0.00    +0.000 A 
ATOM     25  F   UNL     1       5.617   2.841  11.567  0.00  0.00    +0.000 F 
ATOM     26  C   UNL     1       5.355   3.429  13.832  0.00  0.00    +0.000 A 
ATOM     27  C   UNL     1       5.817   4.152  14.934  0.00  0.00    +0.000 A 
ATOM     28  C   UNL     1       5.202   3.987  16.264  0.00  0.00    +0.000 A 
ATOM     29  O   UNL     1       4.285   3.188  16.445  0.00  0.00    +0.000 OA
ENDBRANCH  17  18
ENDBRANCH   2  17
TORSDOF 4
ENDMDL
MODEL 5
REMARK VINA RESULT:      -7.9      1.710      2.229
REMARK  Name = 
REMARK  4 active torsions:
REMARK  status: ('A' for Active; 'I' for Inactive)
REMARK    1  A    between atoms: C_2  and  C_3
REMARK    2  A    between atoms: C_3  and  N_4
REMARK    3  A    between atoms: N_16  and  C_17
REMARK    4  A    between atoms: C_20  and  C_21
REMARK                            x       y       z     vdW  Elec       q    Type
REMARK                         _______ _______ _______ _____ _____    ______ ____
ROOT
ATOM      1  O   UNL     1       2.572   7.603  19.148  0.00  0.00    +0.000 OA
ATOM      2  C   UNL     1       2.205   6.766  19.968  0.00  0.00    +0.000 C 
ATOM      3  N   UNL     1       1.479   7.034  21.118  0.00  0.00    +0.000 N 
ATOM      4  H   UNL     1       1.478   6.310  21.838  0.00  0.00    +0.000 HD
ENDROOT
BRANCH   3   5
ATOM      5  C   UNL     1       0.930   8.291  21.462  0.00  0.00    +0.000 A 
ATOM      6  C   UNL     1       1.230   9.014  22.598  0.00  0.00    +0.000 A 
ATOM      7  N   UNL     1       0.660  10.198  22.919  0.00  0.00    +0.000 NA
ATOM      8  C   UNL     1      -0.262  10.685  22.066  0.00  0.00    +0.000 A 
ATOM      9  N   UNL     1      -0.599  10.086  20.905  0.00  0.00    +0.000 NA
ATOM     10  C   UNL     1       0.012   8.909  20.632  0.00  0.00    +0.000 A 
BRANCH   8  11
ATOM     11  C   UNL     1      -0.984  11.913  22.467  0.00  0.00    +0.000 A 
ATOM     12  C   UNL     1      -2.257  11.849  23.072  0.00  0.00    +0.000 A 
ATOM     13  C   UNL     1      -2.968  13.004  23.413  0.00  0.00    +0.000 A 
ATOM     14  C   UNL     1      -2.422  14.258  23.160  0.00  0.00    +0.000 A 
ATOM     15  C   UNL     1      -1.163  14.355  22.574  0.00  0.00    +0.000 A 
ATOM     16  C   UNL     1      -0.454  13.196  22.234  0.00  0.00    +0.000 A 
ENDBRANCH   8  11
ENDBRANCH   3   5
BRANCH   2  17
ATOM     17  C   UNL     1       2.636   5.306  19.830  0.00  0.00    +0.000 C 
BRANCH  17  18
ATOM     18  N   UNL     1       3.795   5.240  18.956  0.00  0.00    +0.000 N 
ATOM     19  C   UNL     1       5.042   5.547  19.441  0.00  0.00    +0.000 A 
ATOM     20  N   UNL     1       6.136   5.467  18.759  0.00  0.00    +0.000 NA
ATOM     21  C   UNL     1       6.051   5.007  17.440  0.00  0.00    +0.000 A 
ATOM     22  C   UNL     1       7.229   4.841  16.708  0.00  0.00    +0.000 A 
ATOM     23  C   UNL     1       7.189   4.344  15.402  0.00  0.00    +0.000 A 
ATOM     24  C   UNL     1       5.962   4.036  14.824  0.00  0.00    +0.000 A 
ATOM     25  F   UNL     1       5.926   3.552  13.577  0.00  0.00    +0.000 F 
ATOM     26  C   UNL     1       4.775   4.203  15.525  0.00  0.00    +0.000 A 
ATOM     27  C   UNL     1       4.832   4.676  16.838  0.00  0.00    +0.000 A 
ATOM     28  C   UNL     1       3.614   4.783  17.661  0.00  0.00    +0.000 A 
ATOM     29  O   UNL     1       2.519   4.432  17.225  0.00  0.00    +0.000 OA
ENDBRANCH  17  18
ENDBRANCH   2  17
TORSDOF 4
ENDMDL
MODEL 6
REMARK VINA RESULT:      -7.9      4.848     10.866
REMARK  Name = 
REMARK  4 active torsions:
REMARK  status: ('A' for Active; 'I' for Inactive)
REMARK    1  A    between atoms: C_2  and  C_3
REMARK    2  A    between atoms: C_3  and  N_4
REMARK    3  A    between atoms: N_16  and  C_17
REMARK    4  A    between atoms: C_20  and  C_21
REMARK                            x       y       z     vdW  Elec       q    Type
REMARK                         _______ _______ _______ _____ _____    ______ ____
ROOT
ATOM      1  O   UNL     1      -1.377  10.294  18.722  0.00  0.00    +0.000 OA
ATOM      2  C   UNL     1      -0.562  11.037  19.262  0.00  0.00    +0.000 C 
ATOM      3  N   UNL     1       0.714  10.672  19.662  0.00  0.00    +0.000 N 
ATOM      4  H   UNL     1       1.178  11.288  20.332  0.00  0.00    +0.000 HD
ENDROOT
BRANCH   3   5
ATOM      5  C   UNL     1       1.329   9.427  19.392  0.00  0.00    +0.000 A 
ATOM      6  C   UNL     1       1.844   9.034  18.174  0.00  0.00    +0.000 A 
ATOM      7  N   UNL     1       2.393   7.821  17.936  0.00  0.00    +0.000 NA
ATOM      8  C   UNL     1       2.425   6.951  18.965  0.00  0.00    +0.000 A 
ATOM      9  N   UNL     1       1.992   7.244  20.208  0.00  0.00    +0.000 NA
ATOM     10  C   UNL     1       1.462   8.477  20.389  0.00  0.00    +0.000 A 
BRANCH   8  11
ATOM     11  C   UNL     1       2.905   5.579  18.685  0.00  0.00    +0.000 A 
ATOM     12  C   UNL     1       2.207   4.724  17.806  0.00  0.00    +0.000 A 
ATOM     13  C   UNL     1       2.626   3.411  17.571  0.00  0.00    +0.000 A 
ATOM     14  C   UNL     1       3.759   2.917  18.208  0.00  0.00    +0.000 A 
ATOM     15  C   UNL     1       4.477   3.738  19.073  0.00  0.00    +0.000 A 
ATOM     16  C   UNL     1       4.054   5.054  19.306  0.00  0.00    +0.000 A 
ENDBRANCH   8  11
ENDBRANCH   3   5
BRANCH   2  17
ATOM     17  C   UNL     1      -0.953  12.463  19.651  0.00  0.00    +0.000 C 
BRANCH  17  18
ATOM     18  N   UNL     1      -1.788  12.413  20.839  0.00  0.00    +0.000 N 
ATOM     19  C   UNL     1      -1.214  12.276  22.079  0.00  0.00    +0.000 A 
ATOM     20  N   UNL     1      -1.865  12.275  23.194  0.00  0.00    +0.000 NA
ATOM     21  C   UNL     1      -3.252  12.456  23.140  0.00  0.00    +0.000 A 
ATOM     22  C   UNL     1      -3.967  12.533  24.337  0.00  0.00    +0.000 A 
ATOM     23  C   UNL     1      -5.347  12.755  24.326  0.00  0.00    +0.000 A 
ATOM     24  C   UNL     1      -6.011  12.876  23.110  0.00  0.00    +0.000 A 
ATOM     25  F   UNL     1      -7.331  13.097  23.101  0.00  0.00    +0.000 F 
ATOM     26  C   UNL     1      -5.326  12.791  21.905  0.00  0.00    +0.000 A 
ATOM     27  C   UNL     1      -3.943  12.594  21.932  0.00  0.00    +0.000 A 
ATOM     28  C   UNL     1      -3.152  12.591  20.688  0.00  0.00    +0.000 A 
ATOM     29  O   UNL     1      -3.682  12.789  19.597  0.00  0.00    +0.000 OA
ENDBRANCH  17  18
ENDBRANCH   2  17
TORSDOF 4
ENDMDL
MODEL 7
REMARK VINA RESULT:      -7.9      5.005     10.979
REMARK  Name = 
REMARK  4 active torsions:
REMARK  status: ('A' for Active; 'I' for Inactive)
REMARK    1  A    between atoms: C_2  and  C_3
REMARK    2  A    between atoms: C_3  and  N_4
REMARK    3  A    between atoms: N_16  and  C_17
REMARK    4  A    between atoms: C_20  and  C_21
REMARK                            x       y       z     vdW  Elec       q    Type
REMARK                         _______ _______ _______ _____ _____    ______ ____
ROOT
ATOM      1  O   UNL     1      -1.556  10.723  18.839  0.00  0.00    +0.000 OA
ATOM      2  C   UNL     1      -0.710  11.438  19.370  0.00  0.00    +0.000 C 
ATOM      3  N   UNL     1       0.603  11.074  19.626  0.00  0.00    +0.000 N 
ATOM      4  H   UNL     1       1.112  11.642  20.305  0.00  0.00    +0.000 HD
ENDROOT
BRANCH   3   5
ATOM      5  C   UNL     1       1.215   9.875  19.196  0.00  0.00    +0.000 A 
ATOM      6  C   UNL     1       1.441   8.763  19.981  0.00  0.00    +0.000 A 
ATOM      7  N   UNL     1       2.065   7.642  19.552  0.00  0.00    +0.000 NA
ATOM      8  C   UNL     1       2.491   7.630  18.273  0.00  0.00    +0.000 A 
ATOM      9  N   UNL     1       2.284   8.641  17.405  0.00  0.00    +0.000 NA
ATOM     10  C   UNL     1       1.645   9.733  17.889  0.00  0.00    +0.000 A 
BRANCH   8  11
ATOM     11  C   UNL     1       3.285   6.463  17.828  0.00  0.00    +0.000 A 
ATOM     12  C   UNL     1       2.834   5.144  18.047  0.00  0.00    +0.000 A 
ATOM     13  C   UNL     1       3.598   4.034  17.672  0.00  0.00    +0.000 A 
ATOM     14  C   UNL     1       4.835   4.214  17.064  0.00  0.00    +0.000 A 
ATOM     15  C   UNL     1       5.304   5.503  16.824  0.00  0.00    +0.000 A 
ATOM     16  C   UNL     1       4.536   6.613  17.201  0.00  0.00    +0.000 A 
ENDBRANCH   8  11
ENDBRANCH   3   5
BRANCH   2  17
ATOM     17  C   UNL     1      -1.093  12.814  19.915  0.00  0.00    +0.000 C 
BRANCH  17  18
ATOM     18  N   UNL     1      -1.948  12.638  21.077  0.00  0.00    +0.000 N 
ATOM     19  C   UNL     1      -1.397  12.361  22.303  0.00  0.00    +0.000 A 
ATOM     20  N   UNL     1      -2.066  12.240  23.400  0.00  0.00    +0.000 NA
ATOM     21  C   UNL     1      -3.452  12.434  23.343  0.00  0.00    +0.000 A 
ATOM     22  C   UNL     1      -4.187  12.382  24.529  0.00  0.00    +0.000 A 
ATOM     23  C   UNL     1      -5.566  12.612  24.520  0.00  0.00    +0.000 A 
ATOM     24  C   UNL     1      -6.209  12.871  23.314  0.00  0.00    +0.000 A 
ATOM     25  F   UNL     1      -7.528  13.099  23.307  0.00  0.00    +0.000 F 
ATOM     26  C   UNL     1      -5.504  12.915  22.119  0.00  0.00    +0.000 A 
ATOM     27  C   UNL     1      -4.122  12.709  22.147  0.00  0.00    +0.000 A 
ATOM     28  C   UNL     1      -3.309  12.839  20.924  0.00  0.00    +0.000 A 
ATOM     29  O   UNL     1      -3.820  13.159  19.852  0.00  0.00    +0.000 OA
ENDBRANCH  17  18
ENDBRANCH   2  17
TORSDOF 4
ENDMDL
MODEL 8
REMARK VINA RESULT:      -7.9      6.311      7.985
REMARK  Name = 
REMARK  4 active torsions:
REMARK  status: ('A' for Active; 'I' for Inactive)
REMARK    1  A    between atoms: C_2  and  C_3
REMARK    2  A    between atoms: C_3  and  N_4
REMARK    3  A    between atoms: N_16  and  C_17
REMARK    4  A    between atoms: C_20  and  C_21
REMARK                            x       y       z     vdW  Elec       q    Type
REMARK                         _______ _______ _______ _____ _____    ______ ____
ROOT
ATOM      1  O   UNL     1       8.370   6.999  18.973  0.00  0.00    +0.000 OA
ATOM      2  C   UNL     1       7.892   7.387  17.911  0.00  0.00    +0.000 C 
ATOM      3  N   UNL     1       7.831   8.708  17.494  0.00  0.00    +0.000 N 
ATOM      4  H   UNL     1       7.176   8.920  16.739  0.00  0.00    +0.000 HD
ENDROOT
BRANCH   3   5
ATOM      5  C   UNL     1       8.429   9.802  18.160  0.00  0.00    +0.000 A 
ATOM      6  C   UNL     1       9.112   9.737  19.357  0.00  0.00    +0.000 A 
ATOM      7  N   UNL     1       9.642  10.808  19.990  0.00  0.00    +0.000 NA
ATOM      8  C   UNL     1       9.478  12.010  19.402  0.00  0.00    +0.000 A 
ATOM      9  N   UNL     1       8.868  12.184  18.212  0.00  0.00    +0.000 NA
ATOM     10  C   UNL     1       8.367  11.074  17.620  0.00  0.00    +0.000 A 
BRANCH   8  11
ATOM     11  C   UNL     1       9.940  13.203  20.145  0.00  0.00    +0.000 A 
ATOM     12  C   UNL     1       9.423  13.518  21.419  0.00  0.00    +0.000 A 
ATOM     13  C   UNL     1       9.819  14.668  22.110  0.00  0.00    +0.000 A 
ATOM     14  C   UNL     1      10.747  15.535  21.544  0.00  0.00    +0.000 A 
ATOM     15  C   UNL     1      11.284  15.248  20.292  0.00  0.00    +0.000 A 
ATOM     16  C   UNL     1      10.886  14.094  19.603  0.00  0.00    +0.000 A 
ENDBRANCH   8  11
ENDBRANCH   3   5
BRANCH   2  17
ATOM     17  C   UNL     1       7.194   6.404  16.971  0.00  0.00    +0.000 C 
BRANCH  17  18
ATOM     18  N   UNL     1       5.876   6.101  17.504  0.00  0.00    +0.000 N 
ATOM     19  C   UNL     1       4.805   6.898  17.186  0.00  0.00    +0.000 A 
ATOM     20  N   UNL     1       3.589   6.681  17.565  0.00  0.00    +0.000 NA
ATOM     21  C   UNL     1       3.339   5.536  18.331  0.00  0.00    +0.000 A 
ATOM     22  C   UNL     1       2.022   5.241  18.689  0.00  0.00    +0.000 A 
ATOM     23  C   UNL     1       1.726   4.085  19.416  0.00  0.00    +0.000 A 
ATOM     24  C   UNL     1       2.758   3.238  19.805  0.00  0.00    +0.000 A 
ATOM     25  F   UNL     1       2.472   2.127  20.495  0.00  0.00    +0.000 F 
ATOM     26  C   UNL     1       4.078   3.514  19.473  0.00  0.00    +0.000 A 
ATOM     27  C   UNL     1       4.356   4.659  18.723  0.00  0.00    +0.000 A 
ATOM     28  C   UNL     1       5.725   4.952  18.261  0.00  0.00    +0.000 A 
ATOM     29  O   UNL     1       6.654   4.182  18.499  0.00  0.00    +0.000 OA
ENDBRANCH  17  18
ENDBRANCH   2  17
TORSDOF 4
ENDMDL
MODEL 9
REMARK VINA RESULT:      -7.8      1.652      2.400
REMARK  Name = 
REMARK  4 active torsions:
REMARK  status: ('A' for Active; 'I' for Inactive)
REMARK    1  A    between atoms: C_2  and  C_3
REMARK    2  A    between atoms: C_3  and  N_4
REMARK    3  A    between atoms: N_16  and  C_17
REMARK    4  A    between atoms: C_20  and  C_21
REMARK                            x       y       z     vdW  Elec       q    Type
REMARK                         _______ _______ _______ _____ _____    ______ ____
ROOT
ATOM      1  O   UNL     1       2.503   7.611  18.947  0.00  0.00    +0.000 OA
ATOM      2  C   UNL     1       2.259   6.857  19.884  0.00  0.00    +0.000 C 
ATOM      3  N   UNL     1       1.609   7.215  21.055  0.00  0.00    +0.000 N 
ATOM      4  H   UNL     1       1.714   6.583  21.850  0.00  0.00    +0.000 HD
ENDROOT
BRANCH   3   5
ATOM      5  C   UNL     1       1.002   8.469  21.300  0.00  0.00    +0.000 A 
ATOM      6  C   UNL     1       0.344   9.239  20.362  0.00  0.00    +0.000 A 
ATOM      7  N   UNL     1      -0.194  10.453  20.618  0.00  0.00    +0.000 NA
ATOM      8  C   UNL     1      -0.065  10.929  21.872  0.00  0.00    +0.000 A 
ATOM      9  N   UNL     1       0.518  10.243  22.877  0.00  0.00    +0.000 NA
ATOM     10  C   UNL     1       1.030   9.029  22.564  0.00  0.00    +0.000 A 
BRANCH   8  11
ATOM     11  C   UNL     1      -0.535  12.307  22.132  0.00  0.00    +0.000 A 
ATOM     12  C   UNL     1       0.050  13.415  21.484  0.00  0.00    +0.000 A 
ATOM     13  C   UNL     1      -0.356  14.726  21.756  0.00  0.00    +0.000 A 
ATOM     14  C   UNL     1      -1.362  14.964  22.686  0.00  0.00    +0.000 A 
ATOM     15  C   UNL     1      -1.968  13.891  23.336  0.00  0.00    +0.000 A 
ATOM     16  C   UNL     1      -1.559  12.580  23.060  0.00  0.00    +0.000 A 
ENDBRANCH   8  11
ENDBRANCH   3   5
BRANCH   2  17
ATOM     17  C   UNL     1       2.780   5.420  19.876  0.00  0.00    +0.000 C 
BRANCH  17  18
ATOM     18  N   UNL     1       3.906   5.334  18.961  0.00  0.00    +0.000 N 
ATOM     19  C   UNL     1       5.174   5.623  19.401  0.00  0.00    +0.000 A 
ATOM     20  N   UNL     1       6.242   5.525  18.682  0.00  0.00    +0.000 NA
ATOM     21  C   UNL     1       6.103   5.062  17.368  0.00  0.00    +0.000 A 
ATOM     22  C   UNL     1       7.252   4.876  16.595  0.00  0.00    +0.000 A 
ATOM     23  C   UNL     1       7.158   4.376  15.294  0.00  0.00    +0.000 A 
ATOM     24  C   UNL     1       5.907   4.085  14.760  0.00  0.00    +0.000 A 
ATOM     25  F   UNL     1       5.819   3.598  13.517  0.00  0.00    +0.000 F 
ATOM     26  C   UNL     1       4.748   4.272  15.502  0.00  0.00    +0.000 A 
ATOM     27  C   UNL     1       4.859   4.748  16.811  0.00  0.00    +0.000 A 
ATOM     28  C   UNL     1       3.672   4.876  17.676  0.00  0.00    +0.000 A 
ATOM     29  O   UNL     1       2.558   4.540  17.280  0.00  0.00    +0.000 OA
ENDBRANCH  17  18
ENDBRANCH   2  17
TORSDOF 4
ENDMDL
