MODEL 1
REMARK VINA RESULT:      -7.8      0.000      0.000
REMARK  Name = 
REMARK  5 active torsions:
REMARK  status: ('A' for Active; 'I' for Inactive)
REMARK    1  A    between atoms: C_1  and  C_2
REMARK    2  A    between atoms: C_4  and  C_5
REMARK    3  A    between atoms: C_8  and  N_9
REMARK    4  A    between atoms: C_10  and  C_12
REMARK    5  A    between atoms: C_16  and  C_17
REMARK                            x       y       z     vdW  Elec       q    Type
REMARK                         _______ _______ _______ _____ _____    ______ ____
ROOT
ATOM      1  C   UNL     1       0.735  10.212  18.976  0.00  0.00    +0.000 A 
ATOM      2  C   UNL     1       1.529   9.666  17.956  0.00  0.00    +0.000 A 
ATOM      3  C   UNL     1       2.242   8.479  18.152  0.00  0.00    +0.000 A 
ATOM      4  C   UNL     1       2.181   7.800  19.370  0.00  0.00    +0.000 A 
ATOM      5  C   UNL     1       1.411   8.347  20.399  0.00  0.00    +0.000 A 
ATOM      6  C   UNL     1       0.678   9.530  20.202  0.00  0.00    +0.000 A 
ATOM      7 CL   UNL     1      -0.329  10.023  21.525  0.00  0.00    +0.000 Cl
ENDROOT
BRANCH   1  11
ATOM      8  C   UNL     1      -0.396  15.000  18.794  0.00  0.00    +0.000 C 
ATOM      9  C   UNL     1      -0.401  13.533  18.644  0.00  0.00    +0.000 A 
ATOM     10  N   UNL     1       0.553  12.692  18.967  0.00  0.00    +0.000 NA
ATOM     11  C   UNL     1       0.017  11.453  18.714  0.00  0.00    +0.000 A 
ATOM     12  N   UNL     1      -1.212  11.506  18.167  0.00  0.00    +0.000 NA
ATOM     13  N   UNL     1      -1.457  12.826  18.152  0.00  0.00    +0.000 N 
ATOM     14  H   UNL     1      -2.350  13.162  17.811  0.00  0.00    +0.000 HD
ENDBRANCH   1  11
BRANCH   4  15
ATOM     15  N   UNL     1       2.868   6.591  19.620  0.00  0.00    +0.000 N 
ATOM     16  C   UNL     1       2.723   5.419  18.897  0.00  0.00    +0.000 C 
ATOM     17  O   UNL     1       1.877   5.236  18.026  0.00  0.00    +0.000 OA
ATOM     18  H   UNL     1       3.405   6.534  20.476  0.00  0.00    +0.000 HD
BRANCH  16  19
ATOM     19  C   UNL     1       3.587   4.317  19.289  0.00  0.00    +0.000 A 
ATOM     20  C   UNL     1       3.108   3.061  19.782  0.00  0.00    +0.000 A 
ATOM     21  C   UNL     1       4.204   2.259  19.967  0.00  0.00    +0.000 A 
ATOM     22  O   UNL     1       5.334   2.934  19.647  0.00  0.00    +0.000 OA
ATOM     23  C   UNL     1       4.966   4.176  19.204  0.00  0.00    +0.000 A 
BRANCH  23  24
ATOM     24  C   UNL     1       5.977   5.169  18.643  0.00  0.00    +0.000 C 
ATOM     25  C   UNL     1       6.187   5.177  17.142  0.00  0.00    +0.000 C 
ATOM     26  C   UNL     1       7.248   4.621  18.027  0.00  0.00    +0.000 C 
ENDBRANCH  23  24
ENDBRANCH  16  19
ENDBRANCH   4  15
TORSDOF 4
ENDMDL
MODEL 2
REMARK VINA RESULT:      -7.1      2.071      3.008
REMARK  Name = 
REMARK  5 active torsions:
REMARK  status: ('A' for Active; 'I' for Inactive)
REMARK    1  A    between atoms: C_1  and  C_2
REMARK    2  A    between atoms: C_4  and  C_5
REMARK    3  A    between atoms: C_8  and  N_9
REMARK    4  A    between atoms: C_10  and  C_12
REMARK    5  A    between atoms: C_16  and  C_17
REMARK                            x       y       z     vdW  Elec       q    Type
REMARK                         _______ _______ _______ _____ _____    ______ ____
ROOT
ATOM      1  C   UNL     1       0.209  10.641  20.981  0.00  0.00    +0.000 A 
ATOM      2  C   UNL     1       0.745  10.448  19.699  0.00  0.00    +0.000 A 
ATOM      3  C   UNL     1       1.430   9.274  19.371  0.00  0.00    +0.000 A 
ATOM      4  C   UNL     1       1.596   8.255  20.311  0.00  0.00    +0.000 A 
ATOM      5  C   UNL     1       1.084   8.446  21.596  0.00  0.00    +0.000 A 
ATOM      6  C   UNL     1       0.380   9.617  21.927  0.00  0.00    +0.000 A 
ATOM      7 CL   UNL     1      -0.304   9.663  23.520  0.00  0.00    +0.000 Cl
ENDROOT
BRANCH   1  11
ATOM      8  C   UNL     1      -0.847  15.088  22.808  0.00  0.00    +0.000 C 
ATOM      9  C   UNL     1      -0.877  13.814  22.066  0.00  0.00    +0.000 A 
ATOM     10  N   UNL     1       0.067  12.905  21.999  0.00  0.00    +0.000 NA
ATOM     11  C   UNL     1      -0.492  11.886  21.265  0.00  0.00    +0.000 A 
ATOM     12  N   UNL     1      -1.725  12.173  20.808  0.00  0.00    +0.000 NA
ATOM     13  N   UNL     1      -1.949  13.384  21.342  0.00  0.00    +0.000 N 
ATOM     14  H   UNL     1      -2.840  13.841  21.185  0.00  0.00    +0.000 HD
ENDBRANCH   1  11
BRANCH   4  15
ATOM     15  N   UNL     1       2.264   7.042  20.032  0.00  0.00    +0.000 N 
ATOM     16  C   UNL     1       2.787   6.675  18.804  0.00  0.00    +0.000 C 
ATOM     17  O   UNL     1       2.620   7.298  17.759  0.00  0.00    +0.000 OA
ATOM     18  H   UNL     1       2.240   6.327  20.748  0.00  0.00    +0.000 HD
BRANCH  16  19
ATOM     19  C   UNL     1       3.499   5.407  18.767  0.00  0.00    +0.000 A 
ATOM     20  C   UNL     1       4.911   5.276  18.967  0.00  0.00    +0.000 A 
ATOM     21  C   UNL     1       5.196   3.937  18.938  0.00  0.00    +0.000 A 
ATOM     22  O   UNL     1       4.067   3.225  18.711  0.00  0.00    +0.000 OA
ATOM     23  C   UNL     1       3.025   4.108  18.637  0.00  0.00    +0.000 A 
BRANCH  23  24
ATOM     24  C   UNL     1       1.578   3.648  18.508  0.00  0.00    +0.000 C 
ATOM     25  C   UNL     1       0.838   3.310  19.787  0.00  0.00    +0.000 C 
ATOM     26  C   UNL     1       1.253   2.213  18.869  0.00  0.00    +0.000 C 
ENDBRANCH  23  24
ENDBRANCH  16  19
ENDBRANCH   4  15
TORSDOF 4
ENDMDL
MODEL 3
REMARK VINA RESULT:      -7.1      1.076      1.168
REMARK  Name = 
REMARK  5 active torsions:
REMARK  status: ('A' for Active; 'I' for Inactive)
REMARK    1  A    between atoms: C_1  and  C_2
REMARK    2  A    between atoms: C_4  and  C_5
REMARK    3  A    between atoms: C_8  and  N_9
REMARK    4  A    between atoms: C_10  and  C_12
REMARK    5  A    between atoms: C_16  and  C_17
REMARK                            x       y       z     vdW  Elec       q    Type
REMARK                         _______ _______ _______ _____ _____    ______ ____
ROOT
ATOM      1  C   UNL     1       0.378  10.072  19.706  0.00  0.00    +0.000 A 
ATOM      2  C   UNL     1       1.098   9.624  18.588  0.00  0.00    +0.000 A 
ATOM      3  C   UNL     1       1.890   8.473  18.651  0.00  0.00    +0.000 A 
ATOM      4  C   UNL     1       1.981   7.731  19.831  0.00  0.00    +0.000 A 
ATOM      5  C   UNL     1       1.285   8.180  20.955  0.00  0.00    +0.000 A 
ATOM      6  C   UNL     1       0.475   9.328  20.893  0.00  0.00    +0.000 A 
ATOM      7 CL   UNL     1      -0.426   9.695  22.328  0.00  0.00    +0.000 Cl
ENDROOT
BRANCH   1  11
ATOM      8  C   UNL     1      -3.129  13.442  20.466  0.00  0.00    +0.000 C 
ATOM      9  C   UNL     1      -1.950  12.705  19.974  0.00  0.00    +0.000 A 
ATOM     10  N   UNL     1      -1.457  11.582  20.438  0.00  0.00    +0.000 NA
ATOM     11  C   UNL     1      -0.427  11.280  19.580  0.00  0.00    +0.000 A 
ATOM     12  N   UNL     1      -0.219  12.226  18.645  0.00  0.00    +0.000 NA
ATOM     13  N   UNL     1      -1.202  13.101  18.905  0.00  0.00    +0.000 N 
ATOM     14  H   UNL     1      -1.307  13.921  18.318  0.00  0.00    +0.000 HD
ENDBRANCH   1  11
BRANCH   4  15
ATOM     15  N   UNL     1       2.752   6.553  19.949  0.00  0.00    +0.000 N 
ATOM     16  C   UNL     1       2.586   5.404  19.195  0.00  0.00    +0.000 C 
ATOM     17  O   UNL     1       1.658   5.208  18.415  0.00  0.00    +0.000 OA
ATOM     18  H   UNL     1       3.384   6.493  20.738  0.00  0.00    +0.000 HD
BRANCH  16  19
ATOM     19  C   UNL     1       3.544   4.337  19.440  0.00  0.00    +0.000 A 
ATOM     20  C   UNL     1       3.185   3.031  19.903  0.00  0.00    +0.000 A 
ATOM     21  C   UNL     1       4.336   2.288  19.937  0.00  0.00    +0.000 A 
ATOM     22  O   UNL     1       5.390   3.045  19.551  0.00  0.00    +0.000 OA
ATOM     23  C   UNL     1       4.913   4.284  19.216  0.00  0.00    +0.000 A 
BRANCH  23  24
ATOM     24  C   UNL     1       5.808   5.363  18.620  0.00  0.00    +0.000 C 
ATOM     25  C   UNL     1       5.985   5.368  17.115  0.00  0.00    +0.000 C 
ATOM     26  C   UNL     1       7.114   4.934  17.983  0.00  0.00    +0.000 C 
ENDBRANCH  23  24
ENDBRANCH  16  19
ENDBRANCH   4  15
TORSDOF 4
ENDMDL
MODEL 4
REMARK VINA RESULT:      -7.1      1.426      2.546
REMARK  Name = 
REMARK  5 active torsions:
REMARK  status: ('A' for Active; 'I' for Inactive)
REMARK    1  A    between atoms: C_1  and  C_2
REMARK    2  A    between atoms: C_4  and  C_5
REMARK    3  A    between atoms: C_8  and  N_9
REMARK    4  A    between atoms: C_10  and  C_12
REMARK    5  A    between atoms: C_16  and  C_17
REMARK                            x       y       z     vdW  Elec       q    Type
REMARK                         _______ _______ _______ _____ _____    ______ ____
ROOT
ATOM      1  C   UNL     1      -0.104  10.377  20.021  0.00  0.00    +0.000 A 
ATOM      2  C   UNL     1       0.609  10.100  18.844  0.00  0.00    +0.000 A 
ATOM      3  C   UNL     1       1.519   9.040  18.782  0.00  0.00    +0.000 A 
ATOM      4  C   UNL     1       1.740   8.222  19.891  0.00  0.00    +0.000 A 
ATOM      5  C   UNL     1       1.052   8.501  21.073  0.00  0.00    +0.000 A 
ATOM      6  C   UNL     1       0.124   9.555  21.136  0.00  0.00    +0.000 A 
ATOM      7 CL   UNL     1      -0.746   9.707  22.629  0.00  0.00    +0.000 Cl
ENDROOT
BRANCH   1  11
ATOM      8  C   UNL     1      -2.289  14.623  21.215  0.00  0.00    +0.000 C 
ATOM      9  C   UNL     1      -1.917  13.349  20.572  0.00  0.00    +0.000 A 
ATOM     10  N   UNL     1      -0.866  12.604  20.821  0.00  0.00    +0.000 NA
ATOM     11  C   UNL     1      -1.037  11.497  20.026  0.00  0.00    +0.000 A 
ATOM     12  N   UNL     1      -2.122  11.572  19.233  0.00  0.00    +0.000 NA
ATOM     13  N   UNL     1      -2.667  12.739  19.611  0.00  0.00    +0.000 N 
ATOM     14  H   UNL     1      -3.537  13.042  19.189  0.00  0.00    +0.000 HD
ENDBRANCH   1  11
BRANCH   4  15
ATOM     15  N   UNL     1       2.635   7.128  19.881  0.00  0.00    +0.000 N 
ATOM     16  C   UNL     1       2.740   6.182  18.876  0.00  0.00    +0.000 C 
ATOM     17  O   UNL     1       1.974   6.091  17.920  0.00  0.00    +0.000 OA
ATOM     18  H   UNL     1       3.144   6.941  20.737  0.00  0.00    +0.000 HD
BRANCH  16  19
ATOM     19  C   UNL     1       3.784   5.184  19.046  0.00  0.00    +0.000 A 
ATOM     20  C   UNL     1       5.167   5.417  18.762  0.00  0.00    +0.000 A 
ATOM     21  C   UNL     1       5.846   4.281  19.117  0.00  0.00    +0.000 A 
ATOM     22  O   UNL     1       4.981   3.348  19.580  0.00  0.00    +0.000 OA
ATOM     23  C   UNL     1       3.728   3.899  19.570  0.00  0.00    +0.000 A 
BRANCH  23  24
ATOM     24  C   UNL     1       2.517   3.171  20.141  0.00  0.00    +0.000 C 
ATOM     25  C   UNL     1       1.881   3.750  21.389  0.00  0.00    +0.000 C 
ATOM     26  C   UNL     1       2.665   2.487  21.484  0.00  0.00    +0.000 C 
ENDBRANCH  23  24
ENDBRANCH  16  19
ENDBRANCH   4  15
TORSDOF 4
ENDMDL
MODEL 5
REMARK VINA RESULT:      -7.0      2.264      3.248
REMARK  Name = 
REMARK  5 active torsions:
REMARK  status: ('A' for Active; 'I' for Inactive)
REMARK    1  A    between atoms: C_1  and  C_2
REMARK    2  A    between atoms: C_4  and  C_5
REMARK    3  A    between atoms: C_8  and  N_9
REMARK    4  A    between atoms: C_10  and  C_12
REMARK    5  A    between atoms: C_16  and  C_17
REMARK                            x       y       z     vdW  Elec       q    Type
REMARK                         _______ _______ _______ _____ _____    ______ ____
ROOT
ATOM      1  C   UNL     1       0.135  10.676  20.999  0.00  0.00    +0.000 A 
ATOM      2  C   UNL     1       0.520  10.591  19.652  0.00  0.00    +0.000 A 
ATOM      3  C   UNL     1       1.206   9.475  19.165  0.00  0.00    +0.000 A 
ATOM      4  C   UNL     1       1.525   8.407  20.005  0.00  0.00    +0.000 A 
ATOM      5  C   UNL     1       1.166   8.490  21.352  0.00  0.00    +0.000 A 
ATOM      6  C   UNL     1       0.461   9.602  21.845  0.00  0.00    +0.000 A 
ATOM      7 CL   UNL     1      -0.027   9.512  23.506  0.00  0.00    +0.000 Cl
ENDROOT
BRANCH   1  11
ATOM      8  C   UNL     1      -3.446  13.972  21.735  0.00  0.00    +0.000 C 
ATOM      9  C   UNL     1      -2.169  13.235  21.752  0.00  0.00    +0.000 A 
ATOM     10  N   UNL     1      -1.923  12.047  21.251  0.00  0.00    +0.000 NA
ATOM     11  C   UNL     1      -0.576  11.865  21.450  0.00  0.00    +0.000 A 
ATOM     12  N   UNL     1       0.003  12.871  22.132  0.00  0.00    +0.000 NA
ATOM     13  N   UNL     1      -1.018  13.727  22.293  0.00  0.00    +0.000 N 
ATOM     14  H   UNL     1      -0.857  14.612  22.759  0.00  0.00    +0.000 HD
ENDBRANCH   1  11
BRANCH   4  15
ATOM     15  N   UNL     1       2.203   7.248  19.565  0.00  0.00    +0.000 N 
ATOM     16  C   UNL     1       2.876   7.117  18.363  0.00  0.00    +0.000 C 
ATOM     17  O   UNL     1       2.858   7.947  17.458  0.00  0.00    +0.000 OA
ATOM     18  H   UNL     1       2.072   6.404  20.108  0.00  0.00    +0.000 HD
BRANCH  16  19
ATOM     19  C   UNL     1       3.564   5.853  18.152  0.00  0.00    +0.000 A 
ATOM     20  C   UNL     1       4.988   5.714  18.117  0.00  0.00    +0.000 A 
ATOM     21  C   UNL     1       5.257   4.377  17.979  0.00  0.00    +0.000 A 
ATOM     22  O   UNL     1       4.101   3.676  17.901  0.00  0.00    +0.000 OA
ATOM     23  C   UNL     1       3.066   4.562  18.037  0.00  0.00    +0.000 A 
BRANCH  23  24
ATOM     24  C   UNL     1       1.614   4.107  18.118  0.00  0.00    +0.000 C 
ATOM     25  C   UNL     1       1.069   3.755  19.488  0.00  0.00    +0.000 C 
ATOM     26  C   UNL     1       1.339   2.668  18.507  0.00  0.00    +0.000 C 
ENDBRANCH  23  24
ENDBRANCH  16  19
ENDBRANCH   4  15
TORSDOF 4
ENDMDL
MODEL 6
REMARK VINA RESULT:      -7.0      2.473      3.482
REMARK  Name = 
REMARK  5 active torsions:
REMARK  status: ('A' for Active; 'I' for Inactive)
REMARK    1  A    between atoms: C_1  and  C_2
REMARK    2  A    between atoms: C_4  and  C_5
REMARK    3  A    between atoms: C_8  and  N_9
REMARK    4  A    between atoms: C_10  and  C_12
REMARK    5  A    between atoms: C_16  and  C_17
REMARK                            x       y       z     vdW  Elec       q    Type
REMARK                         _______ _______ _______ _____ _____    ______ ____
ROOT
ATOM      1  C   UNL     1      -0.035  10.539  21.374  0.00  0.00    +0.000 A 
ATOM      2  C   UNL     1      -0.111   9.386  22.170  0.00  0.00    +0.000 A 
ATOM      3  C   UNL     1       0.586   8.224  21.828  0.00  0.00    +0.000 A 
ATOM      4  C   UNL     1       1.385   8.179  20.685  0.00  0.00    +0.000 A 
ATOM      5  C   UNL     1       1.452   9.314  19.875  0.00  0.00    +0.000 A 
ATOM      6  C   UNL     1       0.766  10.491  20.221  0.00  0.00    +0.000 A 
ATOM      7 CL   UNL     1       1.040  11.857  19.190  0.00  0.00    +0.000 Cl
ENDROOT
BRANCH   1  11
ATOM      8  C   UNL     1      -1.567  14.429  23.972  0.00  0.00    +0.000 C 
ATOM      9  C   UNL     1      -1.383  13.398  22.935  0.00  0.00    +0.000 A 
ATOM     10  N   UNL     1      -0.461  12.466  22.887  0.00  0.00    +0.000 NA
ATOM     11  C   UNL     1      -0.787  11.720  21.780  0.00  0.00    +0.000 A 
ATOM     12  N   UNL     1      -1.836  12.212  21.096  0.00  0.00    +0.000 NA
ATOM     13  N   UNL     1      -2.203  13.256  21.855  0.00  0.00    +0.000 N 
ATOM     14  H   UNL     1      -3.011  13.807  21.587  0.00  0.00    +0.000 HD
ENDBRANCH   1  11
BRANCH   4  15
ATOM     15  N   UNL     1       2.125   7.038  20.299  0.00  0.00    +0.000 N 
ATOM     16  C   UNL     1       2.541   6.746  19.011  0.00  0.00    +0.000 C 
ATOM     17  O   UNL     1       2.205   7.372  18.010  0.00  0.00    +0.000 OA
ATOM     18  H   UNL     1       2.243   6.309  20.992  0.00  0.00    +0.000 HD
BRANCH  16  19
ATOM     19  C   UNL     1       3.355   5.550  18.860  0.00  0.00    +0.000 A 
ATOM     20  C   UNL     1       4.780   5.530  18.996  0.00  0.00    +0.000 A 
ATOM     21  C   UNL     1       5.176   4.225  18.864  0.00  0.00    +0.000 A 
ATOM     22  O   UNL     1       4.102   3.434  18.633  0.00  0.00    +0.000 OA
ATOM     23  C   UNL     1       2.986   4.226  18.660  0.00  0.00    +0.000 A 
BRANCH  23  24
ATOM     24  C   UNL     1       1.579   3.650  18.555  0.00  0.00    +0.000 C 
ATOM     25  C   UNL     1       0.881   3.278  19.848  0.00  0.00    +0.000 C 
ATOM     26  C   UNL     1       1.373   2.201  18.945  0.00  0.00    +0.000 C 
ENDBRANCH  23  24
ENDBRANCH  16  19
ENDBRANCH   4  15
TORSDOF 4
ENDMDL
MODEL 7
REMARK VINA RESULT:      -7.0      2.941      3.972
REMARK  Name = 
REMARK  5 active torsions:
REMARK  status: ('A' for Active; 'I' for Inactive)
REMARK    1  A    between atoms: C_1  and  C_2
REMARK    2  A    between atoms: C_4  and  C_5
REMARK    3  A    between atoms: C_8  and  N_9
REMARK    4  A    between atoms: C_10  and  C_12
REMARK    5  A    between atoms: C_16  and  C_17
REMARK                            x       y       z     vdW  Elec       q    Type
REMARK                         _______ _______ _______ _____ _____    ______ ____
ROOT
ATOM      1  C   UNL     1      -0.152  10.787  21.637  0.00  0.00    +0.000 A 
ATOM      2  C   UNL     1       0.515   9.772  22.340  0.00  0.00    +0.000 A 
ATOM      3  C   UNL     1       1.237   8.781  21.668  0.00  0.00    +0.000 A 
ATOM      4  C   UNL     1       1.320   8.777  20.274  0.00  0.00    +0.000 A 
ATOM      5  C   UNL     1       0.643   9.771  19.565  0.00  0.00    +0.000 A 
ATOM      6  C   UNL     1      -0.071  10.779  20.236  0.00  0.00    +0.000 A 
ATOM      7 CL   UNL     1      -0.757  12.015  19.231  0.00  0.00    +0.000 Cl
ENDROOT
BRANCH   1  11
ATOM      8  C   UNL     1      -3.712  12.994  24.223  0.00  0.00    +0.000 C 
ATOM      9  C   UNL     1      -2.453  12.677  23.524  0.00  0.00    +0.000 A 
ATOM     10  N   UNL     1      -2.100  11.531  22.992  0.00  0.00    +0.000 NA
ATOM     11  C   UNL     1      -0.891  11.791  22.393  0.00  0.00    +0.000 A 
ATOM     12  N   UNL     1      -0.448  13.043  22.609  0.00  0.00    +0.000 NA
ATOM     13  N   UNL     1      -1.458  13.584  23.307  0.00  0.00    +0.000 N 
ATOM     14  H   UNL     1      -1.407  14.557  23.585  0.00  0.00    +0.000 HD
ENDBRANCH   1  11
BRANCH   4  15
ATOM     15  N   UNL     1       2.047   7.812  19.543  0.00  0.00    +0.000 N 
ATOM     16  C   UNL     1       2.121   6.462  19.842  0.00  0.00    +0.000 C 
ATOM     17  O   UNL     1       1.672   5.947  20.863  0.00  0.00    +0.000 OA
ATOM     18  H   UNL     1       2.673   8.154  18.824  0.00  0.00    +0.000 HD
BRANCH  16  19
ATOM     19  C   UNL     1       2.872   5.641  18.905  0.00  0.00    +0.000 A 
ATOM     20  C   UNL     1       4.209   5.929  18.482  0.00  0.00    +0.000 A 
ATOM     21  C   UNL     1       4.602   4.899  17.669  0.00  0.00    +0.000 A 
ATOM     22  O   UNL     1       3.597   4.002  17.536  0.00  0.00    +0.000 OA
ATOM     23  C   UNL     1       2.551   4.428  18.309  0.00  0.00    +0.000 A 
BRANCH  23  24
ATOM     24  C   UNL     1       1.288   3.596  18.496  0.00  0.00    +0.000 C 
ATOM     25  C   UNL     1       1.159   2.805  19.782  0.00  0.00    +0.000 C 
ATOM     26  C   UNL     1       1.424   2.088  18.504  0.00  0.00    +0.000 C 
ENDBRANCH  23  24
ENDBRANCH  16  19
ENDBRANCH   4  15
TORSDOF 4
ENDMDL
MODEL 8
REMARK VINA RESULT:      -7.0      1.007      2.336
REMARK  Name = 
REMARK  5 active torsions:
REMARK  status: ('A' for Active; 'I' for Inactive)
REMARK    1  A    between atoms: C_1  and  C_2
REMARK    2  A    between atoms: C_4  and  C_5
REMARK    3  A    between atoms: C_8  and  N_9
REMARK    4  A    between atoms: C_10  and  C_12
REMARK    5  A    between atoms: C_16  and  C_17
REMARK                            x       y       z     vdW  Elec       q    Type
REMARK                         _______ _______ _______ _____ _____    ______ ____
ROOT
ATOM      1  C   UNL     1       0.777  10.409  18.858  0.00  0.00    +0.000 A 
ATOM      2  C   UNL     1       1.571   9.914  17.812  0.00  0.00    +0.000 A 
ATOM      3  C   UNL     1       2.245   8.695  17.931  0.00  0.00    +0.000 A 
ATOM      4  C   UNL     1       2.144   7.932  19.095  0.00  0.00    +0.000 A 
ATOM      5  C   UNL     1       1.374   8.426  20.150  0.00  0.00    +0.000 A 
ATOM      6  C   UNL     1       0.680   9.643  20.030  0.00  0.00    +0.000 A 
ATOM      7 CL   UNL     1      -0.334  10.069  21.370  0.00  0.00    +0.000 Cl
ENDROOT
BRANCH   1  11
ATOM      8  C   UNL     1      -0.175  15.238  18.947  0.00  0.00    +0.000 C 
ATOM      9  C   UNL     1      -0.239  13.782  18.722  0.00  0.00    +0.000 A 
ATOM     10  N   UNL     1       0.690  12.891  18.979  0.00  0.00    +0.000 NA
ATOM     11  C   UNL     1       0.101  11.687  18.676  0.00  0.00    +0.000 A 
ATOM     12  N   UNL     1      -1.137  11.814  18.163  0.00  0.00    +0.000 NA
ATOM     13  N   UNL     1      -1.332  13.141  18.221  0.00  0.00    +0.000 N 
ATOM     14  H   UNL     1      -2.219  13.527  17.920  0.00  0.00    +0.000 HD
ENDBRANCH   1  11
BRANCH   4  15
ATOM     15  N   UNL     1       2.789   6.686  19.266  0.00  0.00    +0.000 N 
ATOM     16  C   UNL     1       2.540   5.542  18.527  0.00  0.00    +0.000 C 
ATOM     17  O   UNL     1       1.627   5.420  17.715  0.00  0.00    +0.000 OA
ATOM     18  H   UNL     1       3.383   6.582  20.080  0.00  0.00    +0.000 HD
BRANCH  16  19
ATOM     19  C   UNL     1       3.378   4.392  18.830  0.00  0.00    +0.000 A 
ATOM     20  C   UNL     1       4.485   3.976  18.024  0.00  0.00    +0.000 A 
ATOM     21  C   UNL     1       5.071   2.916  18.665  0.00  0.00    +0.000 A 
ATOM     22  O   UNL     1       4.393   2.628  19.801  0.00  0.00    +0.000 OA
ATOM     23  C   UNL     1       3.381   3.540  19.926  0.00  0.00    +0.000 A 
BRANCH  23  24
ATOM     24  C   UNL     1       2.483   3.593  21.156  0.00  0.00    +0.000 C 
ATOM     25  C   UNL     1       1.432   2.510  21.298  0.00  0.00    +0.000 C 
ATOM     26  C   UNL     1       1.013   3.896  20.952  0.00  0.00    +0.000 C 
ENDBRANCH  23  24
ENDBRANCH  16  19
ENDBRANCH   4  15
TORSDOF 4
ENDMDL
MODEL 9
REMARK VINA RESULT:      -7.0      2.270      3.440
REMARK  Name = 
REMARK  5 active torsions:
REMARK  status: ('A' for Active; 'I' for Inactive)
REMARK    1  A    between atoms: C_1  and  C_2
REMARK    2  A    between atoms: C_4  and  C_5
REMARK    3  A    between atoms: C_8  and  N_9
REMARK    4  A    between atoms: C_10  and  C_12
REMARK    5  A    between atoms: C_16  and  C_17
REMARK                            x       y       z     vdW  Elec       q    Type
REMARK                         _______ _______ _______ _____ _____    ______ ____
ROOT
ATOM      1  C   UNL     1       0.298  12.099  18.858  0.00  0.00    +0.000 A 
ATOM      2  C   UNL     1      -0.447  10.926  18.664  0.00  0.00    +0.000 A 
ATOM      3  C   UNL     1       0.170   9.734  18.271  0.00  0.00    +0.000 A 
ATOM      4  C   UNL     1       1.550   9.676  18.066  0.00  0.00    +0.000 A 
ATOM      5  C   UNL     1       2.298  10.843  18.237  0.00  0.00    +0.000 A 
ATOM      6  C   UNL     1       1.686  12.040  18.647  0.00  0.00    +0.000 A 
ATOM      7 CL   UNL     1       2.754  13.374  18.938  0.00  0.00    +0.000 Cl
ENDROOT
BRANCH   1  11
ATOM      8  C   UNL     1      -2.615  15.195  21.339  0.00  0.00    +0.000 C 
ATOM      9  C   UNL     1      -1.655  14.601  20.391  0.00  0.00    +0.000 A 
ATOM     10  N   UNL     1      -1.172  13.381  20.400  0.00  0.00    +0.000 NA
ATOM     11  C   UNL     1      -0.400  13.312  19.265  0.00  0.00    +0.000 A 
ATOM     12  N   UNL     1      -0.328  14.478  18.597  0.00  0.00    +0.000 NA
ATOM     13  N   UNL     1      -1.141  15.267  19.318  0.00  0.00    +0.000 N 
ATOM     14  H   UNL     1      -1.303  16.221  19.018  0.00  0.00    +0.000 HD
ENDBRANCH   1  11
BRANCH   4  15
ATOM     15  N   UNL     1       2.229   8.497  17.685  0.00  0.00    +0.000 N 
ATOM     16  C   UNL     1       2.511   7.426  18.515  0.00  0.00    +0.000 C 
ATOM     17  O   UNL     1       2.327   7.416  19.729  0.00  0.00    +0.000 OA
ATOM     18  H   UNL     1       2.664   8.492  16.770  0.00  0.00    +0.000 HD
BRANCH  16  19
ATOM     19  C   UNL     1       3.157   6.285  17.886  0.00  0.00    +0.000 A 
ATOM     20  C   UNL     1       4.486   6.311  17.354  0.00  0.00    +0.000 A 
ATOM     21  C   UNL     1       4.769   5.042  16.922  0.00  0.00    +0.000 A 
ATOM     22  O   UNL     1       3.704   4.232  17.126  0.00  0.00    +0.000 OA
ATOM     23  C   UNL     1       2.729   4.972  17.741  0.00  0.00    +0.000 A 
BRANCH  23  24
ATOM     24  C   UNL     1       1.427   4.350  18.232  0.00  0.00    +0.000 C 
ATOM     25  C   UNL     1       1.381   3.876  19.671  0.00  0.00    +0.000 C 
ATOM     26  C   UNL     1       1.427   2.874  18.570  0.00  0.00    +0.000 C 
ENDBRANCH  23  24
ENDBRANCH  16  19
ENDBRANCH   4  15
TORSDOF 4
ENDMDL
