MODEL 1
REMARK VINA RESULT:      -8.2      0.000      0.000
REMARK  Name = 
REMARK  4 active torsions:
REMARK  status: ('A' for Active; 'I' for Inactive)
REMARK    1  A    between atoms: C_1  and  N_2
REMARK    2  A    between atoms: C_4  and  C_5
REMARK    3  A    between atoms: C_7  and  C_8
REMARK    4  A    between atoms: C_15  and  C_17
REMARK                            x       y       z     vdW  Elec       q    Type
REMARK                         _______ _______ _______ _____ _____    ______ ____
ROOT
ATOM      1  C   UNL     1       0.628  11.114  19.947  0.00  0.00    +0.000 C 
ATOM      2  C   UNL     1       0.117  11.617  21.313  0.00  0.00    +0.000 C 
ATOM      3  C   UNL     1       0.229  13.133  21.502  0.00  0.00    +0.000 C 
ATOM      4  C   UNL     1      -0.492  13.971  20.454  0.00  0.00    +0.000 C 
ATOM      5  C   UNL     1       0.178  13.883  19.089  0.00  0.00    +0.000 C 
ATOM      6  C   UNL     1      -0.329  12.717  18.247  0.00  0.00    +0.000 C 
ATOM      7  N   UNL     1      -0.361  11.390  18.860  0.00  0.00    +0.000 N 
ATOM      8  C   UNL     1      -1.402  10.454  18.633  0.00  0.00    +0.000 C 
ATOM      9  O   UNL     1      -1.553   9.504  19.400  0.00  0.00    +0.000 OA
ENDROOT
BRANCH   8  10
ATOM     10  C   UNL     1      -2.351  10.577  17.468  0.00  0.00    +0.000 A 
ATOM     11  C   UNL     1      -2.096  10.056  16.182  0.00  0.00    +0.000 A 
ATOM     12  C   UNL     1      -2.956  10.294  15.111  0.00  0.00    +0.000 A 
ATOM     13  F   UNL     1      -2.601   9.870  13.890  0.00  0.00    +0.000 F 
ATOM     14  C   UNL     1      -4.164  10.957  15.266  0.00  0.00    +0.000 A 
ATOM     15  C   UNL     1      -4.480  11.346  16.564  0.00  0.00    +0.000 A 
ATOM     16  N   UNL     1      -5.612  11.925  17.084  0.00  0.00    +0.000 N 
ATOM     17  C   UNL     1      -5.419  12.099  18.420  0.00  0.00    +0.000 A 
ATOM     18  N   UNL     1      -4.222  11.713  18.783  0.00  0.00    +0.000 NA
ATOM     19  C   UNL     1      -3.617  11.193  17.656  0.00  0.00    +0.000 A 
ATOM     20  H   UNL     1      -6.455  12.148  16.574  0.00  0.00    +0.000 HD
ENDBRANCH   8  10
BRANCH   1  23
ATOM     21  C   UNL     1       2.048   7.894  19.348  0.00  0.00    +0.000 A 
ATOM     22  N   UNL     1       1.736   9.087  18.887  0.00  0.00    +0.000 NA
ATOM     23  C   UNL     1       1.126   9.680  19.971  0.00  0.00    +0.000 A 
ATOM     24  N   UNL     1       1.155   8.935  21.090  0.00  0.00    +0.000 NA
ATOM     25  O   UNL     1       1.739   7.743  20.672  0.00  0.00    +0.000 OA
BRANCH  21  29
ATOM     26  C   UNL     1       3.654   3.596  17.408  0.00  0.00    +0.000 C 
ATOM     27  N   UNL     1       3.419   4.994  17.672  0.00  0.00    +0.000 N 
ATOM     28  C   UNL     1       2.455   5.526  18.483  0.00  0.00    +0.000 A 
ATOM     29  C   UNL     1       2.733   6.872  18.535  0.00  0.00    +0.000 A 
ATOM     30  C   UNL     1       3.831   7.062  17.683  0.00  0.00    +0.000 A 
ATOM     31  N   UNL     1       4.257   5.911  17.153  0.00  0.00    +0.000 NA
ENDBRANCH  21  29
ENDBRANCH   1  23
TORSDOF 3
ENDMDL
MODEL 2
REMARK VINA RESULT:      -8.2      4.293      7.337
REMARK  Name = 
REMARK  4 active torsions:
REMARK  status: ('A' for Active; 'I' for Inactive)
REMARK    1  A    between atoms: C_1  and  N_2
REMARK    2  A    between atoms: C_4  and  C_5
REMARK    3  A    between atoms: C_7  and  C_8
REMARK    4  A    between atoms: C_15  and  C_17
REMARK                            x       y       z     vdW  Elec       q    Type
REMARK                         _______ _______ _______ _____ _____    ______ ____
ROOT
ATOM      1  C   UNL     1       3.500   3.916  19.237  0.00  0.00    +0.000 C 
ATOM      2  C   UNL     1       2.514   2.955  18.541  0.00  0.00    +0.000 C 
ATOM      3  C   UNL     1       1.772   2.020  19.501  0.00  0.00    +0.000 C 
ATOM      4  C   UNL     1       0.972   2.716  20.595  0.00  0.00    +0.000 C 
ATOM      5  C   UNL     1       1.873   3.392  21.621  0.00  0.00    +0.000 C 
ATOM      6  C   UNL     1       2.252   4.819  21.237  0.00  0.00    +0.000 C 
ATOM      7  N   UNL     1       2.783   5.051  19.895  0.00  0.00    +0.000 N 
ATOM      8  C   UNL     1       2.466   6.196  19.121  0.00  0.00    +0.000 C 
ATOM      9  O   UNL     1       2.668   6.194  17.907  0.00  0.00    +0.000 OA
ENDROOT
BRANCH   8  10
ATOM     10  C   UNL     1       1.879   7.441  19.734  0.00  0.00    +0.000 A 
ATOM     11  C   UNL     1       1.427   7.530  21.068  0.00  0.00    +0.000 A 
ATOM     12  C   UNL     1       0.789   8.670  21.552  0.00  0.00    +0.000 A 
ATOM     13  F   UNL     1       0.281   8.650  22.792  0.00  0.00    +0.000 F 
ATOM     14  C   UNL     1       0.661   9.825  20.795  0.00  0.00    +0.000 A 
ATOM     15  C   UNL     1       1.234   9.784  19.526  0.00  0.00    +0.000 A 
ATOM     16  N   UNL     1       1.376  10.756  18.567  0.00  0.00    +0.000 N 
ATOM     17  C   UNL     1       2.017  10.204  17.501  0.00  0.00    +0.000 A 
ATOM     18  N   UNL     1       2.255   8.931  17.695  0.00  0.00    +0.000 NA
ATOM     19  C   UNL     1       1.819   8.639  18.971  0.00  0.00    +0.000 A 
ATOM     20  H   UNL     1       1.089  11.721  18.650  0.00  0.00    +0.000 HD
ENDBRANCH   8  10
BRANCH   1  23
ATOM     21  C   UNL     1       5.815   4.668  16.626  0.00  0.00    +0.000 A 
ATOM     22  N   UNL     1       4.702   4.077  17.003  0.00  0.00    +0.000 NA
ATOM     23  C   UNL     1       4.654   4.352  18.353  0.00  0.00    +0.000 A 
ATOM     24  N   UNL     1       5.632   5.170  18.778  0.00  0.00    +0.000 NA
ATOM     25  O   UNL     1       6.417   5.358  17.643  0.00  0.00    +0.000 OA
BRANCH  21  29
ATOM     26  C   UNL     1       6.708   3.475  11.873  0.00  0.00    +0.000 C 
ATOM     27  N   UNL     1       6.678   4.140  13.151  0.00  0.00    +0.000 N 
ATOM     28  C   UNL     1       5.848   3.866  14.202  0.00  0.00    +0.000 A 
ATOM     29  C   UNL     1       6.304   4.650  15.235  0.00  0.00    +0.000 A 
ATOM     30  C   UNL     1       7.361   5.400  14.699  0.00  0.00    +0.000 A 
ATOM     31  N   UNL     1       7.597   5.088  13.420  0.00  0.00    +0.000 NA
ENDBRANCH  21  29
ENDBRANCH   1  23
TORSDOF 3
ENDMDL
MODEL 3
REMARK VINA RESULT:      -8.0      1.005      1.288
REMARK  Name = 
REMARK  4 active torsions:
REMARK  status: ('A' for Active; 'I' for Inactive)
REMARK    1  A    between atoms: C_1  and  N_2
REMARK    2  A    between atoms: C_4  and  C_5
REMARK    3  A    between atoms: C_7  and  C_8
REMARK    4  A    between atoms: C_15  and  C_17
REMARK                            x       y       z     vdW  Elec       q    Type
REMARK                         _______ _______ _______ _____ _____    ______ ____
ROOT
ATOM      1  C   UNL     1       0.454  11.791  20.349  0.00  0.00    +0.000 C 
ATOM      2  C   UNL     1      -0.096  12.629  21.521  0.00  0.00    +0.000 C 
ATOM      3  C   UNL     1       0.123  14.138  21.365  0.00  0.00    +0.000 C 
ATOM      4  C   UNL     1      -0.467  14.751  20.102  0.00  0.00    +0.000 C 
ATOM      5  C   UNL     1       0.274  14.305  18.848  0.00  0.00    +0.000 C 
ATOM      6  C   UNL     1      -0.273  13.008  18.260  0.00  0.00    +0.000 C 
ATOM      7  N   UNL     1      -0.444  11.866  19.156  0.00  0.00    +0.000 N 
ATOM      8  C   UNL     1      -1.540  10.969  19.071  0.00  0.00    +0.000 C 
ATOM      9  O   UNL     1      -1.810  10.236  20.022  0.00  0.00    +0.000 OA
ENDROOT
BRANCH   8  10
ATOM     10  C   UNL     1      -2.406  10.875  17.841  0.00  0.00    +0.000 A 
ATOM     11  C   UNL     1      -2.031  10.203  16.659  0.00  0.00    +0.000 A 
ATOM     12  C   UNL     1      -2.822  10.241  15.511  0.00  0.00    +0.000 A 
ATOM     13  F   UNL     1      -2.357   9.680  14.387  0.00  0.00    +0.000 F 
ATOM     14  C   UNL     1      -4.071  10.842  15.493  0.00  0.00    +0.000 A 
ATOM     15  C   UNL     1      -4.502  11.383  16.702  0.00  0.00    +0.000 A 
ATOM     16  N   UNL     1      -5.697  11.954  17.062  0.00  0.00    +0.000 N 
ATOM     17  C   UNL     1      -5.612  12.318  18.371  0.00  0.00    +0.000 A 
ATOM     18  N   UNL     1      -4.426  12.060  18.861  0.00  0.00    +0.000 NA
ATOM     19  C   UNL     1      -3.714  11.432  17.859  0.00  0.00    +0.000 A 
ATOM     20  H   UNL     1      -6.511  12.054  16.472  0.00  0.00    +0.000 HD
ENDBRANCH   8  10
BRANCH   1  23
ATOM     21  C   UNL     1       1.527   8.393  20.570  0.00  0.00    +0.000 A 
ATOM     22  N   UNL     1       1.253   9.437  19.817  0.00  0.00    +0.000 NA
ATOM     23  C   UNL     1       0.836  10.374  20.738  0.00  0.00    +0.000 A 
ATOM     24  N   UNL     1       0.949   9.972  22.015  0.00  0.00    +0.000 NA
ATOM     25  O   UNL     1       1.379   8.653  21.906  0.00  0.00    +0.000 OA
BRANCH  21  29
ATOM     26  C   UNL     1       3.375   4.836  17.612  0.00  0.00    +0.000 C 
ATOM     27  N   UNL     1       2.846   5.564  18.739  0.00  0.00    +0.000 N 
ATOM     28  C   UNL     1       2.705   6.919  18.849  0.00  0.00    +0.000 A 
ATOM     29  C   UNL     1       2.019   7.114  20.025  0.00  0.00    +0.000 A 
ATOM     30  C   UNL     1       1.847   5.836  20.576  0.00  0.00    +0.000 A 
ATOM     31  N   UNL     1       2.351   4.880  19.789  0.00  0.00    +0.000 NA
ENDBRANCH  21  29
ENDBRANCH   1  23
TORSDOF 3
ENDMDL
MODEL 4
REMARK VINA RESULT:      -7.9      2.056      2.667
REMARK  Name = 
REMARK  4 active torsions:
REMARK  status: ('A' for Active; 'I' for Inactive)
REMARK    1  A    between atoms: C_1  and  N_2
REMARK    2  A    between atoms: C_4  and  C_5
REMARK    3  A    between atoms: C_7  and  C_8
REMARK    4  A    between atoms: C_15  and  C_17
REMARK                            x       y       z     vdW  Elec       q    Type
REMARK                         _______ _______ _______ _____ _____    ______ ____
ROOT
ATOM      1  C   UNL     1       1.160  11.519  19.123  0.00  0.00    +0.000 C 
ATOM      2  C   UNL     1       1.394  11.866  20.608  0.00  0.00    +0.000 C 
ATOM      3  C   UNL     1       1.659  13.352  20.867  0.00  0.00    +0.000 C 
ATOM      4  C   UNL     1       0.566  14.299  20.386  0.00  0.00    +0.000 C 
ATOM      5  C   UNL     1       0.493  14.364  18.866  0.00  0.00    +0.000 C 
ATOM      6  C   UNL     1      -0.415  13.296  18.264  0.00  0.00    +0.000 C 
ATOM      7  N   UNL     1      -0.215  11.909  18.682  0.00  0.00    +0.000 N 
ATOM      8  C   UNL     1      -1.282  11.001  18.896  0.00  0.00    +0.000 C 
ATOM      9  O   UNL     1      -1.094   9.971  19.543  0.00  0.00    +0.000 OA
ENDROOT
BRANCH   8  10
ATOM     10  C   UNL     1      -2.667  11.248  18.353  0.00  0.00    +0.000 A 
ATOM     11  C   UNL     1      -3.687  11.918  19.062  0.00  0.00    +0.000 A 
ATOM     12  C   UNL     1      -4.982  12.021  18.559  0.00  0.00    +0.000 A 
ATOM     13  F   UNL     1      -5.933  12.567  19.329  0.00  0.00    +0.000 F 
ATOM     14  C   UNL     1      -5.322  11.575  17.290  0.00  0.00    +0.000 A 
ATOM     15  C   UNL     1      -4.280  11.042  16.536  0.00  0.00    +0.000 A 
ATOM     16  N   UNL     1      -4.238  10.604  15.236  0.00  0.00    +0.000 N 
ATOM     17  C   UNL     1      -2.970  10.179  14.976  0.00  0.00    +0.000 A 
ATOM     18  N   UNL     1      -2.210  10.274  16.038  0.00  0.00    +0.000 NA
ATOM     19  C   UNL     1      -2.981  10.852  17.025  0.00  0.00    +0.000 A 
ATOM     20  H   UNL     1      -5.001  10.626  14.574  0.00  0.00    +0.000 HD
ENDBRANCH   8  10
BRANCH   1  23
ATOM     21  C   UNL     1       1.996   8.051  18.985  0.00  0.00    +0.000 A 
ATOM     22  N   UNL     1       1.759   9.121  19.714  0.00  0.00    +0.000 NA
ATOM     23  C   UNL     1       1.535  10.092  18.763  0.00  0.00    +0.000 A 
ATOM     24  N   UNL     1       1.522   9.630  17.501  0.00  0.00    +0.000 NA
ATOM     25  O   UNL     1       1.854   8.285  17.644  0.00  0.00    +0.000 OA
BRANCH  21  29
ATOM     26  C   UNL     1       3.678   3.429  19.770  0.00  0.00    +0.000 C 
ATOM     27  N   UNL     1       3.051   4.718  19.920  0.00  0.00    +0.000 N 
ATOM     28  C   UNL     1       3.213   5.810  19.113  0.00  0.00    +0.000 A 
ATOM     29  C   UNL     1       2.298   6.731  19.567  0.00  0.00    +0.000 A 
ATOM     30  C   UNL     1       1.683   6.133  20.677  0.00  0.00    +0.000 A 
ATOM     31  N   UNL     1       2.139   4.896  20.896  0.00  0.00    +0.000 NA
ENDBRANCH  21  29
ENDBRANCH   1  23
TORSDOF 3
ENDMDL
MODEL 5
REMARK VINA RESULT:      -7.7      1.520      1.834
REMARK  Name = 
REMARK  4 active torsions:
REMARK  status: ('A' for Active; 'I' for Inactive)
REMARK    1  A    between atoms: C_1  and  N_2
REMARK    2  A    between atoms: C_4  and  C_5
REMARK    3  A    between atoms: C_7  and  C_8
REMARK    4  A    between atoms: C_15  and  C_17
REMARK                            x       y       z     vdW  Elec       q    Type
REMARK                         _______ _______ _______ _____ _____    ______ ____
ROOT
ATOM      1  C   UNL     1       1.162  11.319  19.206  0.00  0.00    +0.000 C 
ATOM      2  C   UNL     1       1.175  11.565  20.729  0.00  0.00    +0.000 C 
ATOM      3  C   UNL     1       1.326  13.038  21.121  0.00  0.00    +0.000 C 
ATOM      4  C   UNL     1       0.260  13.971  20.558  0.00  0.00    +0.000 C 
ATOM      5  C   UNL     1       0.390  14.144  19.051  0.00  0.00    +0.000 C 
ATOM      6  C   UNL     1      -0.372  13.086  18.259  0.00  0.00    +0.000 C 
ATOM      7  N   UNL     1      -0.159  11.682  18.607  0.00  0.00    +0.000 N 
ATOM      8  C   UNL     1      -1.197  10.716  18.609  0.00  0.00    +0.000 C 
ATOM      9  O   UNL     1      -1.045   9.651  19.206  0.00  0.00    +0.000 OA
ENDROOT
BRANCH   8  10
ATOM     10  C   UNL     1      -2.507  10.944  17.898  0.00  0.00    +0.000 A 
ATOM     11  C   UNL     1      -2.834  10.386  16.644  0.00  0.00    +0.000 A 
ATOM     12  C   UNL     1      -4.012  10.719  15.979  0.00  0.00    +0.000 A 
ATOM     13  F   UNL     1      -4.212  10.244  14.741  0.00  0.00    +0.000 F 
ATOM     14  C   UNL     1      -4.984  11.524  16.553  0.00  0.00    +0.000 A 
ATOM     15  C   UNL     1      -4.723  11.960  17.849  0.00  0.00    +0.000 A 
ATOM     16  N   UNL     1      -5.490  12.676  18.734  0.00  0.00    +0.000 N 
ATOM     17  C   UNL     1      -4.772  12.837  19.879  0.00  0.00    +0.000 A 
ATOM     18  N   UNL     1      -3.578  12.311  19.770  0.00  0.00    +0.000 NA
ATOM     19  C   UNL     1      -3.523  11.712  18.528  0.00  0.00    +0.000 A 
ATOM     20  H   UNL     1      -6.436  12.997  18.579  0.00  0.00    +0.000 HD
ENDBRANCH   8  10
BRANCH   1  23
ATOM     21  C   UNL     1       2.174   7.905  18.948  0.00  0.00    +0.000 A 
ATOM     22  N   UNL     1       1.777   8.904  19.708  0.00  0.00    +0.000 NA
ATOM     23  C   UNL     1       1.655   9.939  18.806  0.00  0.00    +0.000 A 
ATOM     24  N   UNL     1       1.858   9.578  17.528  0.00  0.00    +0.000 NA
ATOM     25  O   UNL     1       2.228   8.239  17.623  0.00  0.00    +0.000 OA
BRANCH  21  29
ATOM     26  C   UNL     1       2.153   3.713  21.639  0.00  0.00    +0.000 C 
ATOM     27  N   UNL     1       2.422   4.713  20.637  0.00  0.00    +0.000 N 
ATOM     28  C   UNL     1       1.718   5.864  20.415  0.00  0.00    +0.000 A 
ATOM     29  C   UNL     1       2.446   6.554  19.474  0.00  0.00    +0.000 A 
ATOM     30  C   UNL     1       3.525   5.720  19.148  0.00  0.00    +0.000 A 
ATOM     31  N   UNL     1       3.517   4.589  19.862  0.00  0.00    +0.000 NA
ENDBRANCH  21  29
ENDBRANCH   1  23
TORSDOF 3
ENDMDL
MODEL 6
REMARK VINA RESULT:      -7.5      1.995      2.657
REMARK  Name = 
REMARK  4 active torsions:
REMARK  status: ('A' for Active; 'I' for Inactive)
REMARK    1  A    between atoms: C_1  and  N_2
REMARK    2  A    between atoms: C_4  and  C_5
REMARK    3  A    between atoms: C_7  and  C_8
REMARK    4  A    between atoms: C_15  and  C_17
REMARK                            x       y       z     vdW  Elec       q    Type
REMARK                         _______ _______ _______ _____ _____    ______ ____
ROOT
ATOM      1  C   UNL     1       0.283  10.435  20.483  0.00  0.00    +0.000 C 
ATOM      2  C   UNL     1      -0.006   9.482  21.661  0.00  0.00    +0.000 C 
ATOM      3  C   UNL     1      -0.277  10.196  22.989  0.00  0.00    +0.000 C 
ATOM      4  C   UNL     1      -1.432  11.190  22.966  0.00  0.00    +0.000 C 
ATOM      5  C   UNL     1      -1.110  12.423  22.131  0.00  0.00    +0.000 C 
ATOM      6  C   UNL     1      -1.459  12.254  20.655  0.00  0.00    +0.000 C 
ATOM      7  N   UNL     1      -0.974  11.059  19.967  0.00  0.00    +0.000 N 
ATOM      8  C   UNL     1      -1.737  10.356  19.000  0.00  0.00    +0.000 C 
ATOM      9  O   UNL     1      -1.430   9.204  18.693  0.00  0.00    +0.000 OA
ENDROOT
BRANCH   8  10
ATOM     10  C   UNL     1      -2.932  10.971  18.319  0.00  0.00    +0.000 A 
ATOM     11  C   UNL     1      -3.846  11.839  18.954  0.00  0.00    +0.000 A 
ATOM     12  C   UNL     1      -4.996  12.290  18.311  0.00  0.00    +0.000 A 
ATOM     13  F   UNL     1      -5.882  13.019  19.005  0.00  0.00    +0.000 F 
ATOM     14  C   UNL     1      -5.258  12.010  16.978  0.00  0.00    +0.000 A 
ATOM     15  C   UNL     1      -4.284  11.271  16.311  0.00  0.00    +0.000 A 
ATOM     16  N   UNL     1      -4.173  10.903  14.993  0.00  0.00    +0.000 N 
ATOM     17  C   UNL     1      -3.024  10.188  14.852  0.00  0.00    +0.000 A 
ATOM     18  N   UNL     1      -2.415  10.033  16.001  0.00  0.00    +0.000 NA
ATOM     19  C   UNL     1      -3.150  10.735  16.934  0.00  0.00    +0.000 A 
ATOM     20  H   UNL     1      -4.810  11.151  14.250  0.00  0.00    +0.000 HD
ENDBRANCH   8  10
BRANCH   1  23
ATOM     21  C   UNL     1       2.255   8.389  18.322  0.00  0.00    +0.000 A 
ATOM     22  N   UNL     1       1.605   8.521  19.459  0.00  0.00    +0.000 NA
ATOM     23  C   UNL     1       1.150   9.821  19.399  0.00  0.00    +0.000 A 
ATOM     24  N   UNL     1       1.408  10.436  18.232  0.00  0.00    +0.000 NA
ATOM     25  O   UNL     1       2.162   9.501  17.530  0.00  0.00    +0.000 OA
BRANCH  21  29
ATOM     26  C   UNL     1       3.593   3.622  17.776  0.00  0.00    +0.000 C 
ATOM     27  N   UNL     1       3.506   5.056  17.667  0.00  0.00    +0.000 N 
ATOM     28  C   UNL     1       2.489   5.855  18.112  0.00  0.00    +0.000 A 
ATOM     29  C   UNL     1       2.934   7.142  17.923  0.00  0.00    +0.000 A 
ATOM     30  C   UNL     1       4.189   7.020  17.309  0.00  0.00    +0.000 A 
ATOM     31  N   UNL     1       4.546   5.741  17.152  0.00  0.00    +0.000 NA
ENDBRANCH  21  29
ENDBRANCH   1  23
TORSDOF 3
ENDMDL
MODEL 7
REMARK VINA RESULT:      -7.4      4.167      9.415
REMARK  Name = 
REMARK  4 active torsions:
REMARK  status: ('A' for Active; 'I' for Inactive)
REMARK    1  A    between atoms: C_1  and  N_2
REMARK    2  A    between atoms: C_4  and  C_5
REMARK    3  A    between atoms: C_7  and  C_8
REMARK    4  A    between atoms: C_15  and  C_17
REMARK                            x       y       z     vdW  Elec       q    Type
REMARK                         _______ _______ _______ _____ _____    ______ ____
ROOT
ATOM      1  C   UNL     1       1.686   4.981  19.848  0.00  0.00    +0.000 C 
ATOM      2  C   UNL     1       1.985   4.308  21.203  0.00  0.00    +0.000 C 
ATOM      3  C   UNL     1       1.521   2.850  21.291  0.00  0.00    +0.000 C 
ATOM      4  C   UNL     1       2.098   1.922  20.230  0.00  0.00    +0.000 C 
ATOM      5  C   UNL     1       1.552   2.229  18.842  0.00  0.00    +0.000 C 
ATOM      6  C   UNL     1       2.361   3.289  18.100  0.00  0.00    +0.000 C 
ATOM      7  N   UNL     1       2.653   4.541  18.796  0.00  0.00    +0.000 N 
ATOM      8  C   UNL     1       3.891   5.223  18.680  0.00  0.00    +0.000 C 
ATOM      9  O   UNL     1       4.205   6.074  19.512  0.00  0.00    +0.000 OA
ENDROOT
BRANCH   8  10
ATOM     10  C   UNL     1       4.859   4.945  17.559  0.00  0.00    +0.000 A 
ATOM     11  C   UNL     1       4.495   4.881  16.197  0.00  0.00    +0.000 A 
ATOM     12  C   UNL     1       5.407   4.509  15.211  0.00  0.00    +0.000 A 
ATOM     13  F   UNL     1       4.973   4.357  13.952  0.00  0.00    +0.000 F 
ATOM     14  C   UNL     1       6.748   4.290  15.488  0.00  0.00    +0.000 A 
ATOM     15  C   UNL     1       7.135   4.492  16.810  0.00  0.00    +0.000 A 
ATOM     16  N   UNL     1       8.372   4.459  17.405  0.00  0.00    +0.000 N 
ATOM     17  C   UNL     1       8.209   4.733  18.728  0.00  0.00    +0.000 A 
ATOM     18  N   UNL     1       6.945   4.893  19.030  0.00  0.00    +0.000 NA
ATOM     19  C   UNL     1       6.242   4.794  17.846  0.00  0.00    +0.000 A 
ATOM     20  H   UNL     1       9.254   4.298  16.938  0.00  0.00    +0.000 HD
ENDBRANCH   8  10
BRANCH   1  23
ATOM     21  C   UNL     1       0.991   8.380  20.688  0.00  0.00    +0.000 A 
ATOM     22  N   UNL     1       0.844   7.103  20.966  0.00  0.00    +0.000 NA
ATOM     23  C   UNL     1       1.525   6.488  19.937  0.00  0.00    +0.000 A 
ATOM     24  N   UNL     1       2.162   7.341  19.117  0.00  0.00    +0.000 NA
ATOM     25  O   UNL     1       1.787   8.594  19.595  0.00  0.00    +0.000 OA
BRANCH  21  29
ATOM     26  C   UNL     1      -0.707  12.749  22.375  0.00  0.00    +0.000 C 
ATOM     27  N   UNL     1      -0.339  11.361  22.252  0.00  0.00    +0.000 N 
ATOM     28  C   UNL     1       0.011  10.701  21.107  0.00  0.00    +0.000 A 
ATOM     29  C   UNL     1       0.423   9.456  21.521  0.00  0.00    +0.000 A 
ATOM     30  C   UNL     1       0.228   9.439  22.910  0.00  0.00    +0.000 A 
ATOM     31  N   UNL     1      -0.237  10.607  23.364  0.00  0.00    +0.000 NA
ENDBRANCH  21  29
ENDBRANCH   1  23
TORSDOF 3
ENDMDL
MODEL 8
REMARK VINA RESULT:      -7.2      1.403      1.679
REMARK  Name = 
REMARK  4 active torsions:
REMARK  status: ('A' for Active; 'I' for Inactive)
REMARK    1  A    between atoms: C_1  and  N_2
REMARK    2  A    between atoms: C_4  and  C_5
REMARK    3  A    between atoms: C_7  and  C_8
REMARK    4  A    between atoms: C_15  and  C_17
REMARK                            x       y       z     vdW  Elec       q    Type
REMARK                         _______ _______ _______ _____ _____    ______ ____
ROOT
ATOM      1  C   UNL     1       0.318  11.018  20.110  0.00  0.00    +0.000 C 
ATOM      2  C   UNL     1      -0.234  10.870  21.542  0.00  0.00    +0.000 C 
ATOM      3  C   UNL     1      -0.470  12.203  22.261  0.00  0.00    +0.000 C 
ATOM      4  C   UNL     1      -1.413  13.164  21.549  0.00  0.00    +0.000 C 
ATOM      5  C   UNL     1      -0.802  13.724  20.271  0.00  0.00    +0.000 C 
ATOM      6  C   UNL     1      -1.061  12.847  19.049  0.00  0.00    +0.000 C 
ATOM      7  N   UNL     1      -0.756  11.421  19.151  0.00  0.00    +0.000 N 
ATOM      8  C   UNL     1      -1.559  10.411  18.564  0.00  0.00    +0.000 C 
ATOM      9  O   UNL     1      -1.451   9.244  18.937  0.00  0.00    +0.000 OA
ENDROOT
BRANCH   8  10
ATOM     10  C   UNL     1      -2.562  10.713  17.479  0.00  0.00    +0.000 A 
ATOM     11  C   UNL     1      -2.432  10.287  16.140  0.00  0.00    +0.000 A 
ATOM     12  C   UNL     1      -3.330  10.688  15.153  0.00  0.00    +0.000 A 
ATOM     13  F   UNL     1      -3.089  10.345  13.880  0.00  0.00    +0.000 F 
ATOM     14  C   UNL     1      -4.465  11.432  15.442  0.00  0.00    +0.000 A 
ATOM     15  C   UNL     1      -4.667  11.731  16.787  0.00  0.00    +0.000 A 
ATOM     16  N   UNL     1      -5.710  12.353  17.428  0.00  0.00    +0.000 N 
ATOM     17  C   UNL     1      -5.423  12.393  18.758  0.00  0.00    +0.000 A 
ATOM     18  N   UNL     1      -4.244  11.880  19.006  0.00  0.00    +0.000 NA
ATOM     19  C   UNL     1      -3.756  11.413  17.802  0.00  0.00    +0.000 A 
ATOM     20  H   UNL     1      -6.560  12.688  16.996  0.00  0.00    +0.000 HD
ENDBRANCH   8  10
BRANCH   1  23
ATOM     21  C   UNL     1       1.948   7.886  19.582  0.00  0.00    +0.000 A 
ATOM     22  N   UNL     1       1.191   8.643  20.348  0.00  0.00    +0.000 NA
ATOM     23  C   UNL     1       1.137   9.827  19.645  0.00  0.00    +0.000 A 
ATOM     24  N   UNL     1       1.738   9.777  18.444  0.00  0.00    +0.000 NA
ATOM     25  O   UNL     1       2.299   8.504  18.413  0.00  0.00    +0.000 OA
BRANCH  21  29
ATOM     26  C   UNL     1       2.183   3.377  21.685  0.00  0.00    +0.000 C 
ATOM     27  N   UNL     1       2.391   4.517  20.829  0.00  0.00    +0.000 N 
ATOM     28  C   UNL     1       1.618   5.643  20.758  0.00  0.00    +0.000 A 
ATOM     29  C   UNL     1       2.302   6.496  19.923  0.00  0.00    +0.000 A 
ATOM     30  C   UNL     1       3.430   5.779  19.496  0.00  0.00    +0.000 A 
ATOM     31  N   UNL     1       3.490   4.565  20.052  0.00  0.00    +0.000 NA
ENDBRANCH  21  29
ENDBRANCH   1  23
TORSDOF 3
ENDMDL
MODEL 9
REMARK VINA RESULT:      -7.1      3.730      9.110
REMARK  Name = 
REMARK  4 active torsions:
REMARK  status: ('A' for Active; 'I' for Inactive)
REMARK    1  A    between atoms: C_1  and  N_2
REMARK    2  A    between atoms: C_4  and  C_5
REMARK    3  A    between atoms: C_7  and  C_8
REMARK    4  A    between atoms: C_15  and  C_17
REMARK                            x       y       z     vdW  Elec       q    Type
REMARK                         _______ _______ _______ _____ _____    ______ ____
ROOT
ATOM      1  C   UNL     1       1.635   5.078  19.848  0.00  0.00    +0.000 C 
ATOM      2  C   UNL     1       1.808   4.189  21.096  0.00  0.00    +0.000 C 
ATOM      3  C   UNL     1       1.166   2.803  20.969  0.00  0.00    +0.000 C 
ATOM      4  C   UNL     1       1.655   1.968  19.793  0.00  0.00    +0.000 C 
ATOM      5  C   UNL     1       1.192   2.534  18.457  0.00  0.00    +0.000 C 
ATOM      6  C   UNL     1       2.147   3.576  17.884  0.00  0.00    +0.000 C 
ATOM      7  N   UNL     1       2.571   4.671  18.755  0.00  0.00    +0.000 N 
ATOM      8  C   UNL     1       3.886   5.201  18.752  0.00  0.00    +0.000 C 
ATOM      9  O   UNL     1       4.279   5.881  19.700  0.00  0.00    +0.000 OA
ENDROOT
BRANCH   8  10
ATOM     10  C   UNL     1       4.845   4.963  17.613  0.00  0.00    +0.000 A 
ATOM     11  C   UNL     1       4.468   4.939  16.253  0.00  0.00    +0.000 A 
ATOM     12  C   UNL     1       5.372   4.603  15.248  0.00  0.00    +0.000 A 
ATOM     13  F   UNL     1       4.927   4.487  13.989  0.00  0.00    +0.000 F 
ATOM     14  C   UNL     1       6.718   4.384  15.505  0.00  0.00    +0.000 A 
ATOM     15  C   UNL     1       7.116   4.547  16.829  0.00  0.00    +0.000 A 
ATOM     16  N   UNL     1       8.359   4.503  17.411  0.00  0.00    +0.000 N 
ATOM     17  C   UNL     1       8.207   4.735  18.744  0.00  0.00    +0.000 A 
ATOM     18  N   UNL     1       6.946   4.878  19.062  0.00  0.00    +0.000 NA
ATOM     19  C   UNL     1       6.232   4.812  17.883  0.00  0.00    +0.000 A 
ATOM     20  H   UNL     1       9.237   4.362  16.931  0.00  0.00    +0.000 HD
ENDBRANCH   8  10
BRANCH   1  23
ATOM     21  C   UNL     1       1.596   8.648  19.849  0.00  0.00    +0.000 A 
ATOM     22  N   UNL     1       1.608   7.525  19.162  0.00  0.00    +0.000 NA
ATOM     23  C   UNL     1       1.659   6.566  20.150  0.00  0.00    +0.000 A 
ATOM     24  N   UNL     1       1.571   7.060  21.397  0.00  0.00    +0.000 NA
ATOM     25  O   UNL     1       1.558   8.438  21.201  0.00  0.00    +0.000 OA
BRANCH  21  29
ATOM     26  C   UNL     1       0.308  13.261  18.483  0.00  0.00    +0.000 C 
ATOM     27  N   UNL     1       0.995  12.003  18.634  0.00  0.00    +0.000 N 
ATOM     28  C   UNL     1       0.754  11.043  19.577  0.00  0.00    +0.000 A 
ATOM     29  C   UNL     1       1.546   9.979  19.216  0.00  0.00    +0.000 A 
ATOM     30  C   UNL     1       2.267  10.410  18.093  0.00  0.00    +0.000 A 
ATOM     31  N   UNL     1       1.930  11.652  17.730  0.00  0.00    +0.000 NA
ENDBRANCH  21  29
ENDBRANCH   1  23
TORSDOF 3
ENDMDL
