MODEL 1
REMARK VINA RESULT:      -9.6      0.000      0.000
REMARK  Name = 
REMARK  5 active torsions:
REMARK  status: ('A' for Active; 'I' for Inactive)
REMARK    1  A    between atoms: C_1  and  N_2
REMARK    2  A    between atoms: C_6  and  C_7
REMARK    3  A    between atoms: C_11  and  N_12
REMARK    4  A    between atoms: N_12  and  S_13
REMARK    5  A    between atoms: S_13  and  C_16
REMARK                            x       y       z     vdW  Elec       q    Type
REMARK                         _______ _______ _______ _____ _____    ______ ____
ROOT
ATOM      1  S   UNL     1       3.017   4.228  19.312  0.00  0.00    +0.000 S 
ATOM      2  O   UNL     1       3.491   3.134  20.135  0.00  0.00    +0.000 OA
ATOM      3  O   UNL     1       1.798   4.116  18.541  0.00  0.00    +0.000 OA
ENDROOT
BRANCH   1   4
ATOM      4  C   UNL     1       4.348   4.671  18.219  0.00  0.00    +0.000 A 
ATOM      5  C   UNL     1       5.470   5.348  18.698  0.00  0.00    +0.000 A 
ATOM      6  C   UNL     1       6.505   5.663  17.814  0.00  0.00    +0.000 A 
ATOM      7  C   UNL     1       6.411   5.304  16.464  0.00  0.00    +0.000 A 
ATOM      8  C   UNL     1       5.280   4.648  15.978  0.00  0.00    +0.000 A 
ATOM      9  C   UNL     1       4.235   4.350  16.861  0.00  0.00    +0.000 A 
ATOM     10  C   UNL     1       5.134   4.340  14.519  0.00  0.00    +0.000 C 
ATOM     11  C   UNL     1       6.425   4.403  13.718  0.00  0.00    +0.000 C 
ATOM     12  C   UNL     1       7.511   5.288  14.278  0.00  0.00    +0.000 C 
ATOM     13  O   UNL     1       8.474   5.633  13.595  0.00  0.00    +0.000 OA
ATOM     14  N   UNL     1       7.454   5.625  15.598  0.00  0.00    +0.000 N 
ATOM     15  H   UNL     1       8.248   6.154  15.936  0.00  0.00    +0.000 HD
ENDBRANCH   1   4
BRANCH   1  16
ATOM     16  N   UNL     1       2.923   5.584  20.327  0.00  0.00    +0.000 N 
ATOM     17  H   UNL     1       3.724   5.656  20.951  0.00  0.00    +0.000 HD
BRANCH  16  22
ATOM     18  C   UNL     1       1.179   8.852  20.129  0.00  0.00    +0.000 A 
ATOM     19  C   UNL     1       1.375   9.158  18.771  0.00  0.00    +0.000 A 
ATOM     20  C   UNL     1       2.072   8.290  17.922  0.00  0.00    +0.000 A 
ATOM     21  C   UNL     1       2.598   7.100  18.424  0.00  0.00    +0.000 A 
ATOM     22  C   UNL     1       2.427   6.797  19.772  0.00  0.00    +0.000 A 
ATOM     23  C   UNL     1       1.731   7.664  20.615  0.00  0.00    +0.000 A 
BRANCH  18  29
ATOM     24  C   UNL     1      -1.126  10.920  19.328  0.00  0.00    +0.000 C 
ATOM     25  N   UNL     1      -0.545  10.679  20.622  0.00  0.00    +0.000 N 
ATOM     26  C   UNL     1      -0.870  11.377  21.747  0.00  0.00    +0.000 A 
ATOM     27  N   UNL     1      -0.136  10.965  22.750  0.00  0.00    +0.000 NA
ATOM     28  N   UNL     1       0.697   9.986  22.269  0.00  0.00    +0.000 NA
ATOM     29  C   UNL     1       0.454   9.802  20.980  0.00  0.00    +0.000 A 
ENDBRANCH  18  29
ENDBRANCH  16  22
ENDBRANCH   1  16
TORSDOF 4
ENDMDL
MODEL 2
REMARK VINA RESULT:      -9.2      2.252      7.830
REMARK  Name = 
REMARK  5 active torsions:
REMARK  status: ('A' for Active; 'I' for Inactive)
REMARK    1  A    between atoms: C_1  and  N_2
REMARK    2  A    between atoms: C_6  and  C_7
REMARK    3  A    between atoms: C_11  and  N_12
REMARK    4  A    between atoms: N_12  and  S_13
REMARK    5  A    between atoms: S_13  and  C_16
REMARK                            x       y       z     vdW  Elec       q    Type
REMARK                         _______ _______ _______ _____ _____    ______ ____
ROOT
ATOM      1  S   UNL     1       3.474   3.135  18.315  0.00  0.00    +0.000 S 
ATOM      2  O   UNL     1       3.366   3.199  16.872  0.00  0.00    +0.000 OA
ATOM      3  O   UNL     1       2.896   2.040  19.064  0.00  0.00    +0.000 OA
ENDROOT
BRANCH   1   4
ATOM      4  C   UNL     1       2.833   4.666  18.953  0.00  0.00    +0.000 A 
ATOM      5  C   UNL     1       2.425   4.770  20.284  0.00  0.00    +0.000 A 
ATOM      6  C   UNL     1       1.945   5.994  20.756  0.00  0.00    +0.000 A 
ATOM      7  C   UNL     1       1.872   7.099  19.899  0.00  0.00    +0.000 A 
ATOM      8  C   UNL     1       2.257   6.991  18.563  0.00  0.00    +0.000 A 
ATOM      9  C   UNL     1       2.721   5.759  18.086  0.00  0.00    +0.000 A 
ATOM     10  C   UNL     1       2.099   8.145  17.619  0.00  0.00    +0.000 C 
ATOM     11  C   UNL     1       1.904   9.497  18.287  0.00  0.00    +0.000 C 
ATOM     12  C   UNL     1       1.320   9.472  19.678  0.00  0.00    +0.000 C 
ATOM     13  O   UNL     1       0.865  10.488  20.202  0.00  0.00    +0.000 OA
ATOM     14  N   UNL     1       1.391   8.311  20.389  0.00  0.00    +0.000 N 
ATOM     15  H   UNL     1       1.056   8.376  21.342  0.00  0.00    +0.000 HD
ENDBRANCH   1   4
BRANCH   1  16
ATOM     16  N   UNL     1       5.126   3.260  18.678  0.00  0.00    +0.000 N 
ATOM     17  H   UNL     1       5.577   2.349  18.743  0.00  0.00    +0.000 HD
BRANCH  16  22
ATOM     18  C   UNL     1       6.878   5.160  16.018  0.00  0.00    +0.000 A 
ATOM     19  C   UNL     1       7.351   6.255  16.762  0.00  0.00    +0.000 A 
ATOM     20  C   UNL     1       7.101   6.364  18.136  0.00  0.00    +0.000 A 
ATOM     21  C   UNL     1       6.358   5.380  18.787  0.00  0.00    +0.000 A 
ATOM     22  C   UNL     1       5.867   4.303  18.054  0.00  0.00    +0.000 A 
ATOM     23  C   UNL     1       6.119   4.196  16.686  0.00  0.00    +0.000 A 
BRANCH  18  29
ATOM     24  C   UNL     1       5.307   3.571  13.730  0.00  0.00    +0.000 C 
ATOM     25  N   UNL     1       6.462   4.419  13.602  0.00  0.00    +0.000 N 
ATOM     26  C   UNL     1       7.126   4.636  12.432  0.00  0.00    +0.000 A 
ATOM     27  N   UNL     1       8.162   5.407  12.647  0.00  0.00    +0.000 NA
ATOM     28  N   UNL     1       8.185   5.691  13.990  0.00  0.00    +0.000 NA
ATOM     29  C   UNL     1       7.155   5.100  14.578  0.00  0.00    +0.000 A 
ENDBRANCH  18  29
ENDBRANCH  16  22
ENDBRANCH   1  16
TORSDOF 4
ENDMDL
MODEL 3
REMARK VINA RESULT:      -9.1      0.644      1.190
REMARK  Name = 
REMARK  5 active torsions:
REMARK  status: ('A' for Active; 'I' for Inactive)
REMARK    1  A    between atoms: C_1  and  N_2
REMARK    2  A    between atoms: C_6  and  C_7
REMARK    3  A    between atoms: C_11  and  N_12
REMARK    4  A    between atoms: N_12  and  S_13
REMARK    5  A    between atoms: S_13  and  C_16
REMARK                            x       y       z     vdW  Elec       q    Type
REMARK                         _______ _______ _______ _____ _____    ______ ____
ROOT
ATOM      1  S   UNL     1       3.090   4.706  19.236  0.00  0.00    +0.000 S 
ATOM      2  O   UNL     1       3.550   3.671  20.139  0.00  0.00    +0.000 OA
ATOM      3  O   UNL     1       1.859   4.562  18.490  0.00  0.00    +0.000 OA
ENDROOT
BRANCH   1   4
ATOM      4  C   UNL     1       4.416   5.028  18.096  0.00  0.00    +0.000 A 
ATOM      5  C   UNL     1       5.548   5.739  18.499  0.00  0.00    +0.000 A 
ATOM      6  C   UNL     1       6.579   5.957  17.581  0.00  0.00    +0.000 A 
ATOM      7  C   UNL     1       6.471   5.469  16.273  0.00  0.00    +0.000 A 
ATOM      8  C   UNL     1       5.331   4.779  15.862  0.00  0.00    +0.000 A 
ATOM      9  C   UNL     1       4.290   4.577  16.777  0.00  0.00    +0.000 A 
ATOM     10  C   UNL     1       5.172   4.331  14.440  0.00  0.00    +0.000 C 
ATOM     11  C   UNL     1       6.458   4.304  13.628  0.00  0.00    +0.000 C 
ATOM     12  C   UNL     1       7.555   5.230  14.093  0.00  0.00    +0.000 C 
ATOM     13  O   UNL     1       8.516   5.498  13.373  0.00  0.00    +0.000 OA
ATOM     14  N   UNL     1       7.510   5.695  15.373  0.00  0.00    +0.000 N 
ATOM     15  H   UNL     1       8.312   6.246  15.653  0.00  0.00    +0.000 HD
ENDBRANCH   1   4
BRANCH   1  16
ATOM     16  N   UNL     1       3.040   6.141  20.139  0.00  0.00    +0.000 N 
ATOM     17  H   UNL     1       3.898   6.295  20.668  0.00  0.00    +0.000 HD
BRANCH  16  22
ATOM     18  C   UNL     1       0.962   9.195  19.810  0.00  0.00    +0.000 A 
ATOM     19  C   UNL     1       1.175   9.498  18.454  0.00  0.00    +0.000 A 
ATOM     20  C   UNL     1       1.994   8.696  17.649  0.00  0.00    +0.000 A 
ATOM     21  C   UNL     1       2.626   7.579  18.195  0.00  0.00    +0.000 A 
ATOM     22  C   UNL     1       2.438   7.283  19.542  0.00  0.00    +0.000 A 
ATOM     23  C   UNL     1       1.620   8.083  20.341  0.00  0.00    +0.000 A 
BRANCH  18  29
ATOM     24  C   UNL     1       0.785   9.473  22.991  0.00  0.00    +0.000 C 
ATOM     25  N   UNL     1       0.050  10.192  21.985  0.00  0.00    +0.000 N 
ATOM     26  C   UNL     1      -0.924  11.105  22.256  0.00  0.00    +0.000 A 
ATOM     27  N   UNL     1      -1.443  11.545  21.138  0.00  0.00    +0.000 NA
ATOM     28  N   UNL     1      -0.804  10.895  20.111  0.00  0.00    +0.000 NA
ATOM     29  C   UNL     1       0.107  10.076  20.614  0.00  0.00    +0.000 A 
ENDBRANCH  18  29
ENDBRANCH  16  22
ENDBRANCH   1  16
TORSDOF 4
ENDMDL
MODEL 4
REMARK VINA RESULT:      -9.1      2.530      9.102
REMARK  Name = 
REMARK  5 active torsions:
REMARK  status: ('A' for Active; 'I' for Inactive)
REMARK    1  A    between atoms: C_1  and  N_2
REMARK    2  A    between atoms: C_6  and  C_7
REMARK    3  A    between atoms: C_11  and  N_12
REMARK    4  A    between atoms: N_12  and  S_13
REMARK    5  A    between atoms: S_13  and  C_16
REMARK                            x       y       z     vdW  Elec       q    Type
REMARK                         _______ _______ _______ _____ _____    ______ ____
ROOT
ATOM      1  S   UNL     1       3.122   6.264  18.586  0.00  0.00    +0.000 S 
ATOM      2  O   UNL     1       2.294   5.463  17.707  0.00  0.00    +0.000 OA
ATOM      3  O   UNL     1       3.728   5.697  19.771  0.00  0.00    +0.000 OA
ENDROOT
BRANCH   1   4
ATOM      4  C   UNL     1       2.158   7.682  19.059  0.00  0.00    +0.000 A 
ATOM      5  C   UNL     1       1.787   8.640  18.114  0.00  0.00    +0.000 A 
ATOM      6  C   UNL     1       1.014   9.731  18.517  0.00  0.00    +0.000 A 
ATOM      7  C   UNL     1       0.622   9.860  19.855  0.00  0.00    +0.000 A 
ATOM      8  C   UNL     1       1.012   8.916  20.805  0.00  0.00    +0.000 A 
ATOM      9  C   UNL     1       1.802   7.832  20.404  0.00  0.00    +0.000 A 
ATOM     10  C   UNL     1       0.670   9.093  22.254  0.00  0.00    +0.000 C 
ATOM     11  C   UNL     1      -0.439  10.096  22.533  0.00  0.00    +0.000 C 
ATOM     12  C   UNL     1      -0.641  11.169  21.491  0.00  0.00    +0.000 C 
ATOM     13  O   UNL     1      -1.304  12.178  21.729  0.00  0.00    +0.000 OA
ATOM     14  N   UNL     1      -0.150  10.954  20.238  0.00  0.00    +0.000 N 
ATOM     15  H   UNL     1      -0.384  11.670  19.562  0.00  0.00    +0.000 HD
ENDBRANCH   1   4
BRANCH   1  16
ATOM     16  N   UNL     1       4.324   6.957  17.611  0.00  0.00    +0.000 N 
ATOM     17  H   UNL     1       4.561   7.904  17.905  0.00  0.00    +0.000 HD
BRANCH  16  22
ATOM     18  C   UNL     1       6.389   4.818  15.394  0.00  0.00    +0.000 A 
ATOM     19  C   UNL     1       7.417   4.457  16.282  0.00  0.00    +0.000 A 
ATOM     20  C   UNL     1       7.428   4.910  17.607  0.00  0.00    +0.000 A 
ATOM     21  C   UNL     1       6.410   5.746  18.064  0.00  0.00    +0.000 A 
ATOM     22  C   UNL     1       5.398   6.127  17.186  0.00  0.00    +0.000 A 
ATOM     23  C   UNL     1       5.390   5.672  15.867  0.00  0.00    +0.000 A 
BRANCH  18  29
ATOM     24  C   UNL     1       8.339   5.682  13.012  0.00  0.00    +0.000 C 
ATOM     25  N   UNL     1       7.286   4.703  12.999  0.00  0.00    +0.000 N 
ATOM     26  C   UNL     1       6.906   4.003  11.893  0.00  0.00    +0.000 A 
ATOM     27  N   UNL     1       5.889   3.232  12.184  0.00  0.00    +0.000 NA
ATOM     28  N   UNL     1       5.587   3.441  13.507  0.00  0.00    +0.000 NA
ATOM     29  C   UNL     1       6.431   4.328  14.011  0.00  0.00    +0.000 A 
ENDBRANCH  18  29
ENDBRANCH  16  22
ENDBRANCH   1  16
TORSDOF 4
ENDMDL
MODEL 5
REMARK VINA RESULT:      -9.0      2.323      7.055
REMARK  Name = 
REMARK  5 active torsions:
REMARK  status: ('A' for Active; 'I' for Inactive)
REMARK    1  A    between atoms: C_1  and  N_2
REMARK    2  A    between atoms: C_6  and  C_7
REMARK    3  A    between atoms: C_11  and  N_12
REMARK    4  A    between atoms: N_12  and  S_13
REMARK    5  A    between atoms: S_13  and  C_16
REMARK                            x       y       z     vdW  Elec       q    Type
REMARK                         _______ _______ _______ _____ _____    ______ ____
ROOT
ATOM      1  S   UNL     1       3.511   3.417  18.835  0.00  0.00    +0.000 S 
ATOM      2  O   UNL     1       2.517   2.396  19.098  0.00  0.00    +0.000 OA
ATOM      3  O   UNL     1       4.842   3.334  19.396  0.00  0.00    +0.000 OA
ENDROOT
BRANCH   1   4
ATOM      4  C   UNL     1       2.790   4.975  19.298  0.00  0.00    +0.000 A 
ATOM      5  C   UNL     1       2.276   5.171  20.581  0.00  0.00    +0.000 A 
ATOM      6  C   UNL     1       1.735   6.415  20.916  0.00  0.00    +0.000 A 
ATOM      7  C   UNL     1       1.707   7.447  19.972  0.00  0.00    +0.000 A 
ATOM      8  C   UNL     1       2.199   7.247  18.682  0.00  0.00    +0.000 A 
ATOM      9  C   UNL     1       2.724   5.994  18.341  0.00  0.00    +0.000 A 
ATOM     10  C   UNL     1       2.093   8.319  17.640  0.00  0.00    +0.000 C 
ATOM     11  C   UNL     1       1.818   9.714  18.182  0.00  0.00    +0.000 C 
ATOM     12  C   UNL     1       1.126   9.781  19.521  0.00  0.00    +0.000 C 
ATOM     13  O   UNL     1       0.611  10.822  19.926  0.00  0.00    +0.000 OA
ATOM     14  N   UNL     1       1.165   8.681  20.325  0.00  0.00    +0.000 N 
ATOM     15  H   UNL     1       0.754   8.810  21.241  0.00  0.00    +0.000 HD
ENDBRANCH   1   4
BRANCH   1  16
ATOM     16  N   UNL     1       3.615   3.559  17.148  0.00  0.00    +0.000 N 
ATOM     17  H   UNL     1       2.749   3.902  16.735  0.00  0.00    +0.000 HD
BRANCH  16  22
ATOM     18  C   UNL     1       6.642   5.665  16.744  0.00  0.00    +0.000 A 
ATOM     19  C   UNL     1       7.173   5.114  15.565  0.00  0.00    +0.000 A 
ATOM     20  C   UNL     1       6.535   4.059  14.901  0.00  0.00    +0.000 A 
ATOM     21  C   UNL     1       5.354   3.526  15.417  0.00  0.00    +0.000 A 
ATOM     22  C   UNL     1       4.831   4.051  16.596  0.00  0.00    +0.000 A 
ATOM     23  C   UNL     1       5.469   5.103  17.254  0.00  0.00    +0.000 A 
BRANCH  18  29
ATOM     24  C   UNL     1       8.121   5.674  19.579  0.00  0.00    +0.000 C 
ATOM     25  N   UNL     1       7.999   6.745  18.626  0.00  0.00    +0.000 N 
ATOM     26  C   UNL     1       8.473   8.007  18.830  0.00  0.00    +0.000 A 
ATOM     27  N   UNL     1       8.162   8.766  17.810  0.00  0.00    +0.000 NA
ATOM     28  N   UNL     1       7.457   7.989  16.925  0.00  0.00    +0.000 NA
ATOM     29  C   UNL     1       7.357   6.760  17.409  0.00  0.00    +0.000 A 
ENDBRANCH  18  29
ENDBRANCH  16  22
ENDBRANCH   1  16
TORSDOF 4
ENDMDL
MODEL 6
REMARK VINA RESULT:      -8.9      0.998      1.058
REMARK  Name = 
REMARK  5 active torsions:
REMARK  status: ('A' for Active; 'I' for Inactive)
REMARK    1  A    between atoms: C_1  and  N_2
REMARK    2  A    between atoms: C_6  and  C_7
REMARK    3  A    between atoms: C_11  and  N_12
REMARK    4  A    between atoms: N_12  and  S_13
REMARK    5  A    between atoms: S_13  and  C_16
REMARK                            x       y       z     vdW  Elec       q    Type
REMARK                         _______ _______ _______ _____ _____    ______ ____
ROOT
ATOM      1  S   UNL     1       3.401   3.610  19.393  0.00  0.00    +0.000 S 
ATOM      2  O   UNL     1       3.776   4.102  20.703  0.00  0.00    +0.000 OA
ATOM      3  O   UNL     1       3.183   2.200  19.152  0.00  0.00    +0.000 OA
ENDROOT
BRANCH   1   4
ATOM      4  C   UNL     1       4.622   4.204  18.245  0.00  0.00    +0.000 A 
ATOM      5  C   UNL     1       5.687   4.995  18.681  0.00  0.00    +0.000 A 
ATOM      6  C   UNL     1       6.638   5.428  17.754  0.00  0.00    +0.000 A 
ATOM      7  C   UNL     1       6.518   5.074  16.405  0.00  0.00    +0.000 A 
ATOM      8  C   UNL     1       5.442   4.304  15.963  0.00  0.00    +0.000 A 
ATOM      9  C   UNL     1       4.479   3.886  16.890  0.00  0.00    +0.000 A 
ATOM     10  C   UNL     1       5.260   3.995  14.508  0.00  0.00    +0.000 C 
ATOM     11  C   UNL     1       6.498   4.205  13.648  0.00  0.00    +0.000 C 
ATOM     12  C   UNL     1       7.508   5.197  14.170  0.00  0.00    +0.000 C 
ATOM     13  O   UNL     1       8.394   5.651  13.448  0.00  0.00    +0.000 OA
ATOM     14  N   UNL     1       7.478   5.514  15.496  0.00  0.00    +0.000 N 
ATOM     15  H   UNL     1       8.227   6.121  15.804  0.00  0.00    +0.000 HD
ENDBRANCH   1   4
BRANCH   1  16
ATOM     16  N   UNL     1       2.022   4.483  18.931  0.00  0.00    +0.000 N 
ATOM     17  H   UNL     1       1.167   4.093  19.325  0.00  0.00    +0.000 HD
BRANCH  16  22
ATOM     18  C   UNL     1       1.612   8.028  19.944  0.00  0.00    +0.000 A 
ATOM     19  C   UNL     1       2.208   8.672  18.846  0.00  0.00    +0.000 A 
ATOM     20  C   UNL     1       2.736   7.944  17.773  0.00  0.00    +0.000 A 
ATOM     21  C   UNL     1       2.688   6.550  17.788  0.00  0.00    +0.000 A 
ATOM     22  C   UNL     1       2.119   5.902  18.880  0.00  0.00    +0.000 A 
ATOM     23  C   UNL     1       1.592   6.631  19.947  0.00  0.00    +0.000 A 
BRANCH  18  29
ATOM     24  C   UNL     1      -0.764  10.169  19.920  0.00  0.00    +0.000 C 
ATOM     25  N   UNL     1       0.054   9.747  21.026  0.00  0.00    +0.000 N 
ATOM     26  C   UNL     1      -0.031  10.269  22.282  0.00  0.00    +0.000 A 
ATOM     27  N   UNL     1       0.876   9.722  23.051  0.00  0.00    +0.000 NA
ATOM     28  N   UNL     1       1.581   8.832  22.279  0.00  0.00    +0.000 NA
ATOM     29  C   UNL     1       1.086   8.837  21.050  0.00  0.00    +0.000 A 
ENDBRANCH  18  29
ENDBRANCH  16  22
ENDBRANCH   1  16
TORSDOF 4
ENDMDL
MODEL 7
REMARK VINA RESULT:      -8.8      2.443      6.974
REMARK  Name = 
REMARK  5 active torsions:
REMARK  status: ('A' for Active; 'I' for Inactive)
REMARK    1  A    between atoms: C_1  and  N_2
REMARK    2  A    between atoms: C_6  and  C_7
REMARK    3  A    between atoms: C_11  and  N_12
REMARK    4  A    between atoms: N_12  and  S_13
REMARK    5  A    between atoms: S_13  and  C_16
REMARK                            x       y       z     vdW  Elec       q    Type
REMARK                         _______ _______ _______ _____ _____    ______ ____
ROOT
ATOM      1  S   UNL     1       2.732   2.805  17.896  0.00  0.00    +0.000 S 
ATOM      2  O   UNL     1       2.376   3.022  16.508  0.00  0.00    +0.000 OA
ATOM      3  O   UNL     1       2.194   1.691  18.645  0.00  0.00    +0.000 OA
ENDROOT
BRANCH   1   4
ATOM      4  C   UNL     1       2.367   4.312  18.767  0.00  0.00    +0.000 A 
ATOM      5  C   UNL     1       2.183   4.309  20.151  0.00  0.00    +0.000 A 
ATOM      6  C   UNL     1       1.916   5.514  20.805  0.00  0.00    +0.000 A 
ATOM      7  C   UNL     1       1.833   6.707  20.077  0.00  0.00    +0.000 A 
ATOM      8  C   UNL     1       1.994   6.708  18.692  0.00  0.00    +0.000 A 
ATOM      9  C   UNL     1       2.242   5.497  18.034  0.00  0.00    +0.000 A 
ATOM     10  C   UNL     1       1.819   7.966  17.896  0.00  0.00    +0.000 C 
ATOM     11  C   UNL     1       1.877   9.252  18.707  0.00  0.00    +0.000 C 
ATOM     12  C   UNL     1       1.514   9.131  20.167  0.00  0.00    +0.000 C 
ATOM     13  O   UNL     1       1.259  10.123  20.849  0.00  0.00    +0.000 OA
ATOM     14  N   UNL     1       1.568   7.899  20.747  0.00  0.00    +0.000 N 
ATOM     15  H   UNL     1       1.392   7.891  21.744  0.00  0.00    +0.000 HD
ENDBRANCH   1   4
BRANCH   1  16
ATOM     16  N   UNL     1       4.427   2.761  17.953  0.00  0.00    +0.000 N 
ATOM     17  H   UNL     1       4.785   1.812  18.046  0.00  0.00    +0.000 HD
BRANCH  16  22
ATOM     18  C   UNL     1       6.514   5.638  16.892  0.00  0.00    +0.000 A 
ATOM     19  C   UNL     1       6.526   5.439  15.501  0.00  0.00    +0.000 A 
ATOM     20  C   UNL     1       5.844   4.366  14.913  0.00  0.00    +0.000 A 
ATOM     21  C   UNL     1       5.145   3.463  15.714  0.00  0.00    +0.000 A 
ATOM     22  C   UNL     1       5.145   3.640  17.095  0.00  0.00    +0.000 A 
ATOM     23  C   UNL     1       5.825   4.710  17.677  0.00  0.00    +0.000 A 
BRANCH  18  29
ATOM     24  C   UNL     1       8.216   5.774  19.596  0.00  0.00    +0.000 C 
ATOM     25  N   UNL     1       7.995   6.809  18.622  0.00  0.00    +0.000 N 
ATOM     26  C   UNL     1       8.456   8.085  18.744  0.00  0.00    +0.000 A 
ATOM     27  N   UNL     1       8.048   8.802  17.728  0.00  0.00    +0.000 NA
ATOM     28  N   UNL     1       7.291   7.982  16.929  0.00  0.00    +0.000 NA
ATOM     29  C   UNL     1       7.257   6.769  17.460  0.00  0.00    +0.000 A 
ENDBRANCH  18  29
ENDBRANCH  16  22
ENDBRANCH   1  16
TORSDOF 4
ENDMDL
MODEL 8
REMARK VINA RESULT:      -8.8      2.353      7.904
REMARK  Name = 
REMARK  5 active torsions:
REMARK  status: ('A' for Active; 'I' for Inactive)
REMARK    1  A    between atoms: C_1  and  N_2
REMARK    2  A    between atoms: C_6  and  C_7
REMARK    3  A    between atoms: C_11  and  N_12
REMARK    4  A    between atoms: N_12  and  S_13
REMARK    5  A    between atoms: S_13  and  C_16
REMARK                            x       y       z     vdW  Elec       q    Type
REMARK                         _______ _______ _______ _____ _____    ______ ____
ROOT
ATOM      1  S   UNL     1       3.649   3.410  18.712  0.00  0.00    +0.000 S 
ATOM      2  O   UNL     1       3.555   2.959  17.339  0.00  0.00    +0.000 OA
ATOM      3  O   UNL     1       2.993   2.695  19.785  0.00  0.00    +0.000 OA
ENDROOT
BRANCH   1   4
ATOM      4  C   UNL     1       3.112   5.105  18.742  0.00  0.00    +0.000 A 
ATOM      5  C   UNL     1       3.321   5.939  17.642  0.00  0.00    +0.000 A 
ATOM      6  C   UNL     1       2.868   7.260  17.694  0.00  0.00    +0.000 A 
ATOM      7  C   UNL     1       2.218   7.737  18.838  0.00  0.00    +0.000 A 
ATOM      8  C   UNL     1       2.030   6.912  19.946  0.00  0.00    +0.000 A 
ATOM      9  C   UNL     1       2.500   5.593  19.902  0.00  0.00    +0.000 A 
ATOM     10  C   UNL     1       1.413   7.441  21.206  0.00  0.00    +0.000 C 
ATOM     11  C   UNL     1       0.657   8.751  21.049  0.00  0.00    +0.000 C 
ATOM     12  C   UNL     1       1.081   9.628  19.896  0.00  0.00    +0.000 C 
ATOM     13  O   UNL     1       0.744  10.809  19.830  0.00  0.00    +0.000 OA
ATOM     14  N   UNL     1       1.773   9.056  18.869  0.00  0.00    +0.000 N 
ATOM     15  H   UNL     1       1.961   9.673  18.089  0.00  0.00    +0.000 HD
ENDBRANCH   1   4
BRANCH   1  16
ATOM     16  N   UNL     1       5.304   3.553  19.056  0.00  0.00    +0.000 N 
ATOM     17  H   UNL     1       5.750   2.648  19.194  0.00  0.00    +0.000 HD
BRANCH  16  22
ATOM     18  C   UNL     1       6.969   5.267  16.219  0.00  0.00    +0.000 A 
ATOM     19  C   UNL     1       7.531   6.369  16.887  0.00  0.00    +0.000 A 
ATOM     20  C   UNL     1       7.368   6.544  18.267  0.00  0.00    +0.000 A 
ATOM     21  C   UNL     1       6.626   5.620  19.002  0.00  0.00    +0.000 A 
ATOM     22  C   UNL     1       6.048   4.537  18.347  0.00  0.00    +0.000 A 
ATOM     23  C   UNL     1       6.214   4.364  16.972  0.00  0.00    +0.000 A 
BRANCH  18  29
ATOM     24  C   UNL     1       5.310   3.510  14.125  0.00  0.00    +0.000 C 
ATOM     25  N   UNL     1       6.426   4.384  13.878  0.00  0.00    +0.000 N 
ATOM     26  C   UNL     1       7.007   4.556  12.658  0.00  0.00    +0.000 A 
ATOM     27  N   UNL     1       8.029   5.367  12.765  0.00  0.00    +0.000 NA
ATOM     28  N   UNL     1       8.128   5.724  14.087  0.00  0.00    +0.000 NA
ATOM     29  C   UNL     1       7.157   5.137  14.770  0.00  0.00    +0.000 A 
ENDBRANCH  18  29
ENDBRANCH  16  22
ENDBRANCH   1  16
TORSDOF 4
ENDMDL
MODEL 9
REMARK VINA RESULT:      -8.8      1.438      2.327
REMARK  Name = 
REMARK  5 active torsions:
REMARK  status: ('A' for Active; 'I' for Inactive)
REMARK    1  A    between atoms: C_1  and  N_2
REMARK    2  A    between atoms: C_6  and  C_7
REMARK    3  A    between atoms: C_11  and  N_12
REMARK    4  A    between atoms: N_12  and  S_13
REMARK    5  A    between atoms: S_13  and  C_16
REMARK                            x       y       z     vdW  Elec       q    Type
REMARK                         _______ _______ _______ _____ _____    ______ ____
ROOT
ATOM      1  S   UNL     1       1.877   4.513  20.624  0.00  0.00    +0.000 S 
ATOM      2  O   UNL     1       2.294   3.555  21.628  0.00  0.00    +0.000 OA
ATOM      3  O   UNL     1       0.538   4.495  20.077  0.00  0.00    +0.000 OA
ENDROOT
BRANCH   1   4
ATOM      4  C   UNL     1       3.043   4.403  19.286  0.00  0.00    +0.000 A 
ATOM      5  C   UNL     1       2.673   3.848  18.060  0.00  0.00    +0.000 A 
ATOM      6  C   UNL     1       3.609   3.795  17.025  0.00  0.00    +0.000 A 
ATOM      7  C   UNL     1       4.904   4.292  17.221  0.00  0.00    +0.000 A 
ATOM      8  C   UNL     1       5.283   4.825  18.452  0.00  0.00    +0.000 A 
ATOM      9  C   UNL     1       4.349   4.861  19.495  0.00  0.00    +0.000 A 
ATOM     10  C   UNL     1       6.691   5.278  18.696  0.00  0.00    +0.000 C 
ATOM     11  C   UNL     1       7.519   5.501  17.440  0.00  0.00    +0.000 C 
ATOM     12  C   UNL     1       7.093   4.727  16.218  0.00  0.00    +0.000 C 
ATOM     13  O   UNL     1       7.832   4.610  15.241  0.00  0.00    +0.000 OA
ATOM     14  N   UNL     1       5.823   4.232  16.176  0.00  0.00    +0.000 N 
ATOM     15  H   UNL     1       5.568   3.791  15.301  0.00  0.00    +0.000 HD
ENDBRANCH   1   4
BRANCH   1  16
ATOM     16  N   UNL     1       2.209   6.049  21.261  0.00  0.00    +0.000 N 
ATOM     17  H   UNL     1       3.098   6.078  21.757  0.00  0.00    +0.000 HD
BRANCH  16  22
ATOM     18  C   UNL     1       0.650   9.276  20.307  0.00  0.00    +0.000 A 
ATOM     19  C   UNL     1       1.123   9.403  18.989  0.00  0.00    +0.000 A 
ATOM     20  C   UNL     1       1.946   8.427  18.414  0.00  0.00    +0.000 A 
ATOM     21  C   UNL     1       2.321   7.308  19.158  0.00  0.00    +0.000 A 
ATOM     22  C   UNL     1       1.875   7.184  20.470  0.00  0.00    +0.000 A 
ATOM     23  C   UNL     1       1.053   8.158  21.040  0.00  0.00    +0.000 A 
BRANCH  18  29
ATOM     24  C   UNL     1      -0.252   9.737  23.340  0.00  0.00    +0.000 C 
ATOM     25  N   UNL     1      -0.569  10.526  22.180  0.00  0.00    +0.000 N 
ATOM     26  C   UNL     1      -1.393  11.612  22.195  0.00  0.00    +0.000 A 
ATOM     27  N   UNL     1      -1.528  12.082  20.981  0.00  0.00    +0.000 NA
ATOM     28  N   UNL     1      -0.788  11.278  20.149  0.00  0.00    +0.000 NA
ATOM     29  C   UNL     1      -0.199  10.334  20.868  0.00  0.00    +0.000 A 
ENDBRANCH  18  29
ENDBRANCH  16  22
ENDBRANCH   1  16
TORSDOF 4
ENDMDL
