MODEL 1
REMARK VINA RESULT:      -8.0      0.000      0.000
REMARK  Name = 
REMARK  5 active torsions:
REMARK  status: ('A' for Active; 'I' for Inactive)
REMARK    1  A    between atoms: C_2  and  O_4
REMARK    2  A    between atoms: O_4  and  C_5
REMARK    3  A    between atoms: C_10  and  C_11
REMARK    4  A    between atoms: C_11  and  C_12
REMARK    5  A    between atoms: C_15  and  C_16
REMARK                            x       y       z     vdW  Elec       q    Type
REMARK                         _______ _______ _______ _____ _____    ______ ____
ROOT
ATOM      1  C   UNL     1       4.079   5.982  18.360  0.00  0.00    +0.000 A 
ATOM      2  N   UNL     1       5.058   5.449  19.100  0.00  0.00    +0.000 NA
ATOM      3  O   UNL     1       6.063   5.197  18.174  0.00  0.00    +0.000 OA
ATOM      4  C   UNL     1       5.608   5.614  16.948  0.00  0.00    +0.000 A 
ATOM      5  N   UNL     1       4.391   6.131  17.020  0.00  0.00    +0.000 NA
ENDROOT
BRANCH   4   6
ATOM      6  C   UNL     1       6.424   5.435  15.703  0.00  0.00    +0.000 A 
ATOM      7  N   UNL     1       7.623   6.035  15.584  0.00  0.00    +0.000 NA
ATOM      8  O   UNL     1       8.120   5.673  14.343  0.00  0.00    +0.000 OA
ATOM      9  C   UNL     1       7.212   4.886  13.733  0.00  0.00    +0.000 A 
ATOM     10  C   UNL     1       6.120   4.686  14.541  0.00  0.00    +0.000 A 
ATOM     11  C   UNL     1       4.941   3.906  14.084  0.00  0.00    +0.000 C 
ATOM     12  C   UNL     1       5.260   3.130  12.779  0.00  0.00    +0.000 C 
ATOM     13  C   UNL     1       6.102   3.948  11.773  0.00  0.00    +0.000 C 
ATOM     14  C   UNL     1       7.455   4.379  12.369  0.00  0.00    +0.000 C 
ENDBRANCH   4   6
BRANCH   1  15
ATOM     15  C   UNL     1       2.704   6.136  18.903  0.00  0.00    +0.000 C 
BRANCH  15  21
ATOM     16  C   UNL     1       1.733   3.767  18.897  0.00  0.00    +0.000 A 
ATOM     17  C   UNL     1       1.143   2.711  19.607  0.00  0.00    +0.000 A 
ATOM     18  C   UNL     1       1.207   2.674  20.999  0.00  0.00    +0.000 A 
ATOM     19  C   UNL     1       1.843   3.699  21.690  0.00  0.00    +0.000 A 
ATOM     20  C   UNL     1       2.368   4.782  20.996  0.00  0.00    +0.000 A 
ATOM     21  C   UNL     1       2.290   4.856  19.592  0.00  0.00    +0.000 A 
BRANCH  16  22
ATOM     22  O   UNL     1       1.746   3.805  17.525  0.00  0.00    +0.000 OA
BRANCH  22  24
ATOM     23  F   UNL     1       3.848   2.980  17.595  0.00  0.00    +0.000 F 
ATOM     24  C   UNL     1       2.660   2.881  16.943  0.00  0.00    +0.000 C 
ATOM     25  F   UNL     1       2.198   1.628  17.174  0.00  0.00    +0.000 F 
ENDBRANCH  22  24
ENDBRANCH  16  22
ENDBRANCH  15  21
ENDBRANCH   1  15
TORSDOF 5
ENDMDL
MODEL 2
REMARK VINA RESULT:      -7.9      6.072      8.479
REMARK  Name = 
REMARK  5 active torsions:
REMARK  status: ('A' for Active; 'I' for Inactive)
REMARK    1  A    between atoms: C_2  and  O_4
REMARK    2  A    between atoms: O_4  and  C_5
REMARK    3  A    between atoms: C_10  and  C_11
REMARK    4  A    between atoms: C_11  and  C_12
REMARK    5  A    between atoms: C_15  and  C_16
REMARK                            x       y       z     vdW  Elec       q    Type
REMARK                         _______ _______ _______ _____ _____    ______ ____
ROOT
ATOM      1  C   UNL     1       8.291   9.202  18.085  0.00  0.00    +0.000 A 
ATOM      2  N   UNL     1       8.842   8.409  19.010  0.00  0.00    +0.000 NA
ATOM      3  O   UNL     1       8.338   7.152  18.702  0.00  0.00    +0.000 OA
ATOM      4  C   UNL     1       7.531   7.291  17.601  0.00  0.00    +0.000 A 
ATOM      5  N   UNL     1       7.491   8.541  17.168  0.00  0.00    +0.000 NA
ENDROOT
BRANCH   4   6
ATOM      6  C   UNL     1       6.771   6.130  17.030  0.00  0.00    +0.000 A 
ATOM      7  N   UNL     1       7.175   5.553  15.882  0.00  0.00    +0.000 NA
ATOM      8  O   UNL     1       6.285   4.522  15.629  0.00  0.00    +0.000 OA
ATOM      9  C   UNL     1       5.358   4.510  16.607  0.00  0.00    +0.000 A 
ATOM     10  C   UNL     1       5.611   5.494  17.531  0.00  0.00    +0.000 A 
ATOM     11  C   UNL     1       4.703   5.740  18.681  0.00  0.00    +0.000 C 
ATOM     12  C   UNL     1       3.687   4.580  18.845  0.00  0.00    +0.000 C 
ATOM     13  C   UNL     1       3.131   4.060  17.499  0.00  0.00    +0.000 C 
ATOM     14  C   UNL     1       4.249   3.537  16.577  0.00  0.00    +0.000 C 
ENDBRANCH   4   6
BRANCH   1  15
ATOM     15  C   UNL     1       8.333  10.682  18.217  0.00  0.00    +0.000 C 
BRANCH  15  21
ATOM     16  C   UNL     1       9.954  11.384  20.071  0.00  0.00    +0.000 A 
ATOM     17  C   UNL     1      11.157  12.003  20.440  0.00  0.00    +0.000 A 
ATOM     18  C   UNL     1      12.151  12.237  19.492  0.00  0.00    +0.000 A 
ATOM     19  C   UNL     1      11.943  11.872  18.166  0.00  0.00    +0.000 A 
ATOM     20  C   UNL     1      10.726  11.322  17.781  0.00  0.00    +0.000 A 
ATOM     21  C   UNL     1       9.696  11.103  18.717  0.00  0.00    +0.000 A 
BRANCH  16  22
ATOM     22  O   UNL     1       8.980  11.079  20.987  0.00  0.00    +0.000 OA
BRANCH  22  24
ATOM     23  F   UNL     1       7.951  12.982  21.637  0.00  0.00    +0.000 F 
ATOM     24  C   UNL     1       8.857  12.047  22.024  0.00  0.00    +0.000 C 
ATOM     25  F   UNL     1       8.334  11.434  23.114  0.00  0.00    +0.000 F 
ENDBRANCH  22  24
ENDBRANCH  16  22
ENDBRANCH  15  21
ENDBRANCH   1  15
TORSDOF 5
ENDMDL
MODEL 3
REMARK VINA RESULT:      -7.9      3.475      7.527
REMARK  Name = 
REMARK  5 active torsions:
REMARK  status: ('A' for Active; 'I' for Inactive)
REMARK    1  A    between atoms: C_2  and  O_4
REMARK    2  A    between atoms: O_4  and  C_5
REMARK    3  A    between atoms: C_10  and  C_11
REMARK    4  A    between atoms: C_11  and  C_12
REMARK    5  A    between atoms: C_15  and  C_16
REMARK                            x       y       z     vdW  Elec       q    Type
REMARK                         _______ _______ _______ _____ _____    ______ ____
ROOT
ATOM      1  C   UNL     1       4.121   5.120  18.708  0.00  0.00    +0.000 A 
ATOM      2  N   UNL     1       3.119   4.565  19.398  0.00  0.00    +0.000 NA
ATOM      3  O   UNL     1       2.199   5.599  19.521  0.00  0.00    +0.000 OA
ATOM      4  C   UNL     1       2.721   6.694  18.879  0.00  0.00    +0.000 A 
ATOM      5  N   UNL     1       3.902   6.436  18.339  0.00  0.00    +0.000 NA
ENDROOT
BRANCH   4   6
ATOM      6  C   UNL     1       2.010   8.014  18.868  0.00  0.00    +0.000 A 
ATOM      7  N   UNL     1       1.962   8.750  17.742  0.00  0.00    +0.000 NA
ATOM      8  O   UNL     1       1.239   9.890  18.051  0.00  0.00    +0.000 OA
ATOM      9  C   UNL     1       0.886   9.832  19.350  0.00  0.00    +0.000 A 
ATOM     10  C   UNL     1       1.332   8.667  19.925  0.00  0.00    +0.000 A 
ATOM     11  C   UNL     1       1.132   8.380  21.369  0.00  0.00    +0.000 C 
ATOM     12  C   UNL     1       0.121   9.374  21.999  0.00  0.00    +0.000 C 
ATOM     13  C   UNL     1       0.304  10.827  21.502  0.00  0.00    +0.000 C 
ATOM     14  C   UNL     1       0.137  10.940  19.974  0.00  0.00    +0.000 C 
ENDBRANCH   4   6
BRANCH   1  15
ATOM     15  C   UNL     1       5.444   4.449  18.601  0.00  0.00    +0.000 C 
BRANCH  15  21
ATOM     16  C   UNL     1       6.980   5.239  16.712  0.00  0.00    +0.000 A 
ATOM     17  C   UNL     1       7.202   5.405  15.337  0.00  0.00    +0.000 A 
ATOM     18  C   UNL     1       6.429   4.711  14.408  0.00  0.00    +0.000 A 
ATOM     19  C   UNL     1       5.418   3.861  14.846  0.00  0.00    +0.000 A 
ATOM     20  C   UNL     1       5.148   3.747  16.205  0.00  0.00    +0.000 A 
ATOM     21  C   UNL     1       5.897   4.461  17.160  0.00  0.00    +0.000 A 
BRANCH  16  22
ATOM     22  O   UNL     1       7.762   5.857  17.656  0.00  0.00    +0.000 OA
BRANCH  22  24
ATOM     23  F   UNL     1       6.540   7.752  17.532  0.00  0.00    +0.000 F 
ATOM     24  C   UNL     1       7.811   7.272  17.512  0.00  0.00    +0.000 C 
ATOM     25  F   UNL     1       8.433   7.785  18.601  0.00  0.00    +0.000 F 
ENDBRANCH  22  24
ENDBRANCH  16  22
ENDBRANCH  15  21
ENDBRANCH   1  15
TORSDOF 5
ENDMDL
MODEL 4
REMARK VINA RESULT:      -7.7      4.706      8.375
REMARK  Name = 
REMARK  5 active torsions:
REMARK  status: ('A' for Active; 'I' for Inactive)
REMARK    1  A    between atoms: C_2  and  O_4
REMARK    2  A    between atoms: O_4  and  C_5
REMARK    3  A    between atoms: C_10  and  C_11
REMARK    4  A    between atoms: C_11  and  C_12
REMARK    5  A    between atoms: C_15  and  C_16
REMARK                            x       y       z     vdW  Elec       q    Type
REMARK                         _______ _______ _______ _____ _____    ______ ____
ROOT
ATOM      1  C   UNL     1       2.424   7.470  18.552  0.00  0.00    +0.000 A 
ATOM      2  N   UNL     1       2.133   8.517  17.771  0.00  0.00    +0.000 NA
ATOM      3  O   UNL     1       1.518   9.409  18.641  0.00  0.00    +0.000 OA
ATOM      4  C   UNL     1       1.503   8.827  19.884  0.00  0.00    +0.000 A 
ATOM      5  N   UNL     1       2.076   7.634  19.882  0.00  0.00    +0.000 NA
ENDROOT
BRANCH   4   6
ATOM      6  C   UNL     1       0.854   9.498  21.059  0.00  0.00    +0.000 A 
ATOM      7  N   UNL     1       1.155   9.111  22.313  0.00  0.00    +0.000 NA
ATOM      8  O   UNL     1       0.408   9.914  23.159  0.00  0.00    +0.000 OA
ATOM      9  C   UNL     1      -0.338  10.748  22.407  0.00  0.00    +0.000 A 
ATOM     10  C   UNL     1      -0.098  10.545  21.070  0.00  0.00    +0.000 A 
ATOM     11  C   UNL     1      -0.838  11.291  20.020  0.00  0.00    +0.000 C 
ATOM     12  C   UNL     1      -1.621  12.483  20.632  0.00  0.00    +0.000 C 
ATOM     13  C   UNL     1      -2.295  12.142  21.981  0.00  0.00    +0.000 C 
ATOM     14  C   UNL     1      -1.271  11.698  23.042  0.00  0.00    +0.000 C 
ENDBRANCH   4   6
BRANCH   1  15
ATOM     15  C   UNL     1       2.832   6.166  17.967  0.00  0.00    +0.000 C 
BRANCH  15  21
ATOM     16  C   UNL     1       4.993   5.249  18.989  0.00  0.00    +0.000 A 
ATOM     17  C   UNL     1       6.381   5.359  19.156  0.00  0.00    +0.000 A 
ATOM     18  C   UNL     1       7.135   6.158  18.298  0.00  0.00    +0.000 A 
ATOM     19  C   UNL     1       6.504   6.866  17.280  0.00  0.00    +0.000 A 
ATOM     20  C   UNL     1       5.121   6.815  17.153  0.00  0.00    +0.000 A 
ATOM     21  C   UNL     1       4.337   6.038  18.026  0.00  0.00    +0.000 A 
BRANCH  16  22
ATOM     22  O   UNL     1       4.228   4.423  19.773  0.00  0.00    +0.000 OA
BRANCH  22  24
ATOM     23  F   UNL     1       4.676   2.312  20.440  0.00  0.00    +0.000 F 
ATOM     24  C   UNL     1       4.281   3.057  19.375  0.00  0.00    +0.000 C 
ATOM     25  F   UNL     1       3.022   2.657  19.072  0.00  0.00    +0.000 F 
ENDBRANCH  22  24
ENDBRANCH  16  22
ENDBRANCH  15  21
ENDBRANCH   1  15
TORSDOF 5
ENDMDL
MODEL 5
REMARK VINA RESULT:      -7.6      3.799      7.799
REMARK  Name = 
REMARK  5 active torsions:
REMARK  status: ('A' for Active; 'I' for Inactive)
REMARK    1  A    between atoms: C_2  and  O_4
REMARK    2  A    between atoms: O_4  and  C_5
REMARK    3  A    between atoms: C_10  and  C_11
REMARK    4  A    between atoms: C_11  and  C_12
REMARK    5  A    between atoms: C_15  and  C_16
REMARK                            x       y       z     vdW  Elec       q    Type
REMARK                         _______ _______ _______ _____ _____    ______ ____
ROOT
ATOM      1  C   UNL     1       3.619   6.219  18.298  0.00  0.00    +0.000 A 
ATOM      2  N   UNL     1       4.132   7.079  17.411  0.00  0.00    +0.000 NA
ATOM      3  O   UNL     1       3.354   8.217  17.576  0.00  0.00    +0.000 OA
ATOM      4  C   UNL     1       2.439   7.951  18.565  0.00  0.00    +0.000 A 
ATOM      5  N   UNL     1       2.582   6.732  19.059  0.00  0.00    +0.000 NA
ENDROOT
BRANCH   4   6
ATOM      6  C   UNL     1       1.393   8.952  18.960  0.00  0.00    +0.000 A 
ATOM      7  N   UNL     1       0.836   9.753  18.033  0.00  0.00    +0.000 NA
ATOM      8  O   UNL     1      -0.082  10.545  18.703  0.00  0.00    +0.000 OA
ATOM      9  C   UNL     1      -0.047  10.224  20.011  0.00  0.00    +0.000 A 
ATOM     10  C   UNL     1       0.857   9.217  20.242  0.00  0.00    +0.000 A 
ATOM     11  C   UNL     1       1.138   8.717  21.613  0.00  0.00    +0.000 C 
ATOM     12  C   UNL     1       0.083   9.240  22.623  0.00  0.00    +0.000 C 
ATOM     13  C   UNL     1      -0.308  10.717  22.387  0.00  0.00    +0.000 C 
ATOM     14  C   UNL     1      -0.897  10.941  20.982  0.00  0.00    +0.000 C 
ENDBRANCH   4   6
BRANCH   1  15
ATOM     15  C   UNL     1       3.968   4.774  18.257  0.00  0.00    +0.000 C 
BRANCH  15  21
ATOM     16  C   UNL     1       6.360   4.517  17.381  0.00  0.00    +0.000 A 
ATOM     17  C   UNL     1       7.248   4.535  16.295  0.00  0.00    +0.000 A 
ATOM     18  C   UNL     1       6.768   4.450  14.989  0.00  0.00    +0.000 A 
ATOM     19  C   UNL     1       5.399   4.366  14.759  0.00  0.00    +0.000 A 
ATOM     20  C   UNL     1       4.511   4.417  15.828  0.00  0.00    +0.000 A 
ATOM     21  C   UNL     1       4.972   4.532  17.153  0.00  0.00    +0.000 A 
BRANCH  16  22
ATOM     22  O   UNL     1       6.799   4.534  18.681  0.00  0.00    +0.000 OA
BRANCH  22  24
ATOM     23  F   UNL     1       7.130   6.762  18.509  0.00  0.00    +0.000 F 
ATOM     24  C   UNL     1       7.688   5.609  18.963  0.00  0.00    +0.000 C 
ATOM     25  F   UNL     1       7.784   5.734  20.309  0.00  0.00    +0.000 F 
ENDBRANCH  22  24
ENDBRANCH  16  22
ENDBRANCH  15  21
ENDBRANCH   1  15
TORSDOF 5
ENDMDL
MODEL 6
REMARK VINA RESULT:      -7.5      3.197      7.371
REMARK  Name = 
REMARK  5 active torsions:
REMARK  status: ('A' for Active; 'I' for Inactive)
REMARK    1  A    between atoms: C_2  and  O_4
REMARK    2  A    between atoms: O_4  and  C_5
REMARK    3  A    between atoms: C_10  and  C_11
REMARK    4  A    between atoms: C_11  and  C_12
REMARK    5  A    between atoms: C_15  and  C_16
REMARK                            x       y       z     vdW  Elec       q    Type
REMARK                         _______ _______ _______ _____ _____    ______ ____
ROOT
ATOM      1  C   UNL     1       4.162   4.671  17.914  0.00  0.00    +0.000 A 
ATOM      2  N   UNL     1       2.982   4.184  17.514  0.00  0.00    +0.000 NA
ATOM      3  O   UNL     1       2.063   5.062  18.073  0.00  0.00    +0.000 OA
ATOM      4  C   UNL     1       2.770   6.020  18.756  0.00  0.00    +0.000 A 
ATOM      5  N   UNL     1       4.077   5.832  18.664  0.00  0.00    +0.000 NA
ENDROOT
BRANCH   4   6
ATOM      6  C   UNL     1       2.082   7.101  19.535  0.00  0.00    +0.000 A 
ATOM      7  N   UNL     1       1.608   6.850  20.770  0.00  0.00    +0.000 NA
ATOM      8  O   UNL     1       1.044   8.033  21.219  0.00  0.00    +0.000 OA
ATOM      9  C   UNL     1       1.168   8.960  20.249  0.00  0.00    +0.000 A 
ATOM     10  C   UNL     1       1.824   8.441  19.160  0.00  0.00    +0.000 A 
ATOM     11  C   UNL     1       2.038   9.235  17.923  0.00  0.00    +0.000 C 
ATOM     12  C   UNL     1       1.725  10.736  18.165  0.00  0.00    +0.000 C 
ATOM     13  C   UNL     1       0.473  10.964  19.043  0.00  0.00    +0.000 C 
ATOM     14  C   UNL     1       0.617  10.316  20.433  0.00  0.00    +0.000 C 
ENDBRANCH   4   6
BRANCH   1  15
ATOM     15  C   UNL     1       5.408   3.872  17.780  0.00  0.00    +0.000 C 
BRANCH  15  21
ATOM     16  C   UNL     1       7.065   5.092  16.256  0.00  0.00    +0.000 A 
ATOM     17  C   UNL     1       7.440   5.484  14.963  0.00  0.00    +0.000 A 
ATOM     18  C   UNL     1       6.885   4.859  13.847  0.00  0.00    +0.000 A 
ATOM     19  C   UNL     1       5.941   3.853  14.016  0.00  0.00    +0.000 A 
ATOM     20  C   UNL     1       5.514   3.508  15.294  0.00  0.00    +0.000 A 
ATOM     21  C   UNL     1       6.039   4.147  16.434  0.00  0.00    +0.000 A 
BRANCH  16  22
ATOM     22  O   UNL     1       7.636   5.640  17.378  0.00  0.00    +0.000 OA
BRANCH  22  24
ATOM     23  F   UNL     1       6.385   7.519  17.471  0.00  0.00    +0.000 F 
ATOM     24  C   UNL     1       7.660   7.064  17.362  0.00  0.00    +0.000 C 
ATOM     25  F   UNL     1       8.316   7.486  18.470  0.00  0.00    +0.000 F 
ENDBRANCH  22  24
ENDBRANCH  16  22
ENDBRANCH  15  21
ENDBRANCH   1  15
TORSDOF 5
ENDMDL
MODEL 7
REMARK VINA RESULT:      -7.5      3.703      7.247
REMARK  Name = 
REMARK  5 active torsions:
REMARK  status: ('A' for Active; 'I' for Inactive)
REMARK    1  A    between atoms: C_2  and  O_4
REMARK    2  A    between atoms: O_4  and  C_5
REMARK    3  A    between atoms: C_10  and  C_11
REMARK    4  A    between atoms: C_11  and  C_12
REMARK    5  A    between atoms: C_15  and  C_16
REMARK                            x       y       z     vdW  Elec       q    Type
REMARK                         _______ _______ _______ _____ _____    ______ ____
ROOT
ATOM      1  C   UNL     1       3.295   4.948  19.282  0.00  0.00    +0.000 A 
ATOM      2  N   UNL     1       2.547   5.033  20.388  0.00  0.00    +0.000 NA
ATOM      3  O   UNL     1       1.971   6.294  20.293  0.00  0.00    +0.000 OA
ATOM      4  C   UNL     1       2.411   6.861  19.123  0.00  0.00    +0.000 A 
ATOM      5  N   UNL     1       3.215   6.053  18.451  0.00  0.00    +0.000 NA
ENDROOT
BRANCH   4   6
ATOM      6  C   UNL     1       2.027   8.257  18.732  0.00  0.00    +0.000 A 
ATOM      7  N   UNL     1       2.423   8.764  17.549  0.00  0.00    +0.000 NA
ATOM      8  O   UNL     1       1.909  10.049  17.483  0.00  0.00    +0.000 OA
ATOM      9  C   UNL     1       1.238  10.298  18.625  0.00  0.00    +0.000 A 
ATOM     10  C   UNL     1       1.264   9.205  19.454  0.00  0.00    +0.000 A 
ATOM     11  C   UNL     1       0.651   9.234  20.808  0.00  0.00    +0.000 C 
ATOM     12  C   UNL     1      -0.246  10.488  20.985  0.00  0.00    +0.000 C 
ATOM     13  C   UNL     1       0.365  11.767  20.367  0.00  0.00    +0.000 C 
ATOM     14  C   UNL     1       0.614  11.616  18.854  0.00  0.00    +0.000 C 
ENDBRANCH   4   6
BRANCH   1  15
ATOM     15  C   UNL     1       4.313   3.876  19.123  0.00  0.00    +0.000 C 
BRANCH  15  21
ATOM     16  C   UNL     1       6.328   4.909  17.930  0.00  0.00    +0.000 A 
ATOM     17  C   UNL     1       6.923   5.340  16.735  0.00  0.00    +0.000 A 
ATOM     18  C   UNL     1       6.415   4.927  15.504  0.00  0.00    +0.000 A 
ATOM     19  C   UNL     1       5.301   4.095  15.459  0.00  0.00    +0.000 A 
ATOM     20  C   UNL     1       4.666   3.722  16.638  0.00  0.00    +0.000 A 
ATOM     21  C   UNL     1       5.144   4.151  17.891  0.00  0.00    +0.000 A 
BRANCH  16  22
ATOM     22  O   UNL     1       6.838   5.244  19.159  0.00  0.00    +0.000 OA
BRANCH  22  24
ATOM     23  F   UNL     1       8.296   6.967  19.077  0.00  0.00    +0.000 F 
ATOM     24  C   UNL     1       8.213   5.611  19.120  0.00  0.00    +0.000 C 
ATOM     25  F   UNL     1       8.785   5.228  20.287  0.00  0.00    +0.000 F 
ENDBRANCH  22  24
ENDBRANCH  16  22
ENDBRANCH  15  21
ENDBRANCH   1  15
TORSDOF 5
ENDMDL
MODEL 8
REMARK VINA RESULT:      -7.5      4.691      7.394
REMARK  Name = 
REMARK  5 active torsions:
REMARK  status: ('A' for Active; 'I' for Inactive)
REMARK    1  A    between atoms: C_2  and  O_4
REMARK    2  A    between atoms: O_4  and  C_5
REMARK    3  A    between atoms: C_10  and  C_11
REMARK    4  A    between atoms: C_11  and  C_12
REMARK    5  A    between atoms: C_15  and  C_16
REMARK                            x       y       z     vdW  Elec       q    Type
REMARK                         _______ _______ _______ _____ _____    ______ ____
ROOT
ATOM      1  C   UNL     1       2.661   7.677  18.878  0.00  0.00    +0.000 A 
ATOM      2  N   UNL     1       2.522   7.935  17.572  0.00  0.00    +0.000 NA
ATOM      3  O   UNL     1       1.495   8.870  17.535  0.00  0.00    +0.000 OA
ATOM      4  C   UNL     1       1.109   9.110  18.831  0.00  0.00    +0.000 A 
ATOM      5  N   UNL     1       1.821   8.409  19.699  0.00  0.00    +0.000 NA
ENDROOT
BRANCH   4   6
ATOM      6  C   UNL     1      -0.028  10.033  19.155  0.00  0.00    +0.000 A 
ATOM      7  N   UNL     1      -0.049  10.699  20.325  0.00  0.00    +0.000 NA
ATOM      8  O   UNL     1      -1.206  11.461  20.320  0.00  0.00    +0.000 OA
ATOM      9  C   UNL     1      -1.865  11.227  19.168  0.00  0.00    +0.000 A 
ATOM     10  C   UNL     1      -1.172  10.341  18.381  0.00  0.00    +0.000 A 
ATOM     11  C   UNL     1      -1.709   9.862  17.081  0.00  0.00    +0.000 C 
ATOM     12  C   UNL     1      -2.926  10.715  16.634  0.00  0.00    +0.000 C 
ATOM     13  C   UNL     1      -3.879  11.075  17.797  0.00  0.00    +0.000 C 
ATOM     14  C   UNL     1      -3.164  11.875  18.903  0.00  0.00    +0.000 C 
ENDBRANCH   4   6
BRANCH   1  15
ATOM     15  C   UNL     1       3.457   6.513  19.349  0.00  0.00    +0.000 C 
BRANCH  15  21
ATOM     16  C   UNL     1       2.568   4.443  18.132  0.00  0.00    +0.000 A 
ATOM     17  C   UNL     1       1.590   3.444  18.023  0.00  0.00    +0.000 A 
ATOM     18  C   UNL     1       0.730   3.179  19.088  0.00  0.00    +0.000 A 
ATOM     19  C   UNL     1       0.831   3.920  20.260  0.00  0.00    +0.000 A 
ATOM     20  C   UNL     1       1.752   4.957  20.348  0.00  0.00    +0.000 A 
ATOM     21  C   UNL     1       2.611   5.263  19.275  0.00  0.00    +0.000 A 
BRANCH  16  22
ATOM     22  O   UNL     1       3.473   4.690  17.130  0.00  0.00    +0.000 OA
BRANCH  22  24
ATOM     23  F   UNL     1       5.125   3.839  15.847  0.00  0.00    +0.000 F 
ATOM     24  C   UNL     1       4.508   3.716  17.051  0.00  0.00    +0.000 C 
ATOM     25  F   UNL     1       5.438   4.013  17.992  0.00  0.00    +0.000 F 
ENDBRANCH  22  24
ENDBRANCH  16  22
ENDBRANCH  15  21
ENDBRANCH   1  15
TORSDOF 5
ENDMDL
MODEL 9
REMARK VINA RESULT:      -7.5      4.225      7.583
REMARK  Name = 
REMARK  5 active torsions:
REMARK  status: ('A' for Active; 'I' for Inactive)
REMARK    1  A    between atoms: C_2  and  O_4
REMARK    2  A    between atoms: O_4  and  C_5
REMARK    3  A    between atoms: C_10  and  C_11
REMARK    4  A    between atoms: C_11  and  C_12
REMARK    5  A    between atoms: C_15  and  C_16
REMARK                            x       y       z     vdW  Elec       q    Type
REMARK                         _______ _______ _______ _____ _____    ______ ____
ROOT
ATOM      1  C   UNL     1       2.856   6.770  19.362  0.00  0.00    +0.000 A 
ATOM      2  N   UNL     1       2.656   6.923  18.049  0.00  0.00    +0.000 NA
ATOM      3  O   UNL     1       1.785   8.002  17.978  0.00  0.00    +0.000 OA
ATOM      4  C   UNL     1       1.542   8.422  19.262  0.00  0.00    +0.000 A 
ATOM      5  N   UNL     1       2.205   7.701  20.153  0.00  0.00    +0.000 NA
ENDROOT
BRANCH   4   6
ATOM      6  C   UNL     1       0.588   9.541  19.558  0.00  0.00    +0.000 A 
ATOM      7  N   UNL     1       0.137  10.328  18.564  0.00  0.00    +0.000 NA
ATOM      8  O   UNL     1      -0.718  11.247  19.151  0.00  0.00    +0.000 OA
ATOM      9  C   UNL     1      -0.750  11.012  20.478  0.00  0.00    +0.000 A 
ATOM     10  C   UNL     1       0.046   9.941  20.802  0.00  0.00    +0.000 A 
ATOM     11  C   UNL     1       0.240   9.508  22.210  0.00  0.00    +0.000 C 
ATOM     12  C   UNL     1      -0.786  10.195  23.150  0.00  0.00    +0.000 C 
ATOM     13  C   UNL     1      -1.025  11.684  22.808  0.00  0.00    +0.000 C 
ATOM     14  C   UNL     1      -1.552  11.869  21.372  0.00  0.00    +0.000 C 
ENDBRANCH   4   6
BRANCH   1  15
ATOM     15  C   UNL     1       3.500   5.544  19.903  0.00  0.00    +0.000 C 
BRANCH  15  21
ATOM     16  C   UNL     1       3.113   3.391  18.573  0.00  0.00    +0.000 A 
ATOM     17  C   UNL     1       2.217   2.433  18.076  0.00  0.00    +0.000 A 
ATOM     18  C   UNL     1       0.928   2.334  18.598  0.00  0.00    +0.000 A 
ATOM     19  C   UNL     1       0.521   3.201  19.606  0.00  0.00    +0.000 A 
ATOM     20  C   UNL     1       1.381   4.197  20.054  0.00  0.00    +0.000 A 
ATOM     21  C   UNL     1       2.677   4.335  19.521  0.00  0.00    +0.000 A 
BRANCH  16  22
ATOM     22  O   UNL     1       4.408   3.476  18.129  0.00  0.00    +0.000 OA
BRANCH  22  24
ATOM     23  F   UNL     1       5.137   5.289  16.996  0.00  0.00    +0.000 F 
ATOM     24  C   UNL     1       4.528   4.084  16.847  0.00  0.00    +0.000 C 
ATOM     25  F   UNL     1       5.360   3.322  16.096  0.00  0.00    +0.000 F 
ENDBRANCH  22  24
ENDBRANCH  16  22
ENDBRANCH  15  21
ENDBRANCH   1  15
TORSDOF 5
ENDMDL
