MODEL 1
REMARK VINA RESULT:      -7.6      0.000      0.000
REMARK  Name = 
REMARK  6 active torsions:
REMARK  status: ('A' for Active; 'I' for Inactive)
REMARK    1  A    between atoms: C_1  and  C_2
REMARK    2  A    between atoms: N_4  and  C_5
REMARK    3  A    between atoms: C_9  and  C_10
REMARK    4  A    between atoms: N_12  and  C_13
REMARK    5  A    between atoms: N_12  and  C_23
REMARK    6  A    between atoms: C_13  and  C_14
REMARK                            x       y       z     vdW  Elec       q    Type
REMARK                         _______ _______ _______ _____ _____    ______ ____
ROOT
ATOM      1  C   UNL     1       1.120   9.262  18.425  0.00  0.00    +0.000 C 
ATOM      2  O   UNL     1       1.837   9.004  17.455  0.00  0.00    +0.000 OA
ATOM      3  N   UNL     1       1.334   8.681  19.714  0.00  0.00    +0.000 N 
ENDROOT
BRANCH   1   8
ATOM      4  C   UNL     1      -0.913  12.530  18.325  0.00  0.00    +0.000 A 
ATOM      5  C   UNL     1      -2.158  12.003  17.985  0.00  0.00    +0.000 A 
ATOM      6  C   UNL     1      -2.271  10.696  17.547  0.00  0.00    +0.000 A 
ATOM      7  C   UNL     1      -1.152   9.876  17.538  0.00  0.00    +0.000 A 
ATOM      8  C   UNL     1       0.020  10.269  18.182  0.00  0.00    +0.000 A 
ATOM      9  C   UNL     1       0.164  11.636  18.515  0.00  0.00    +0.000 A 
BRANCH   4  13
ATOM     10  C   UNL     1      -0.593  16.137  19.466  0.00  0.00    +0.000 C 
ATOM     11  C   UNL     1      -0.705  14.644  19.624  0.00  0.00    +0.000 C 
ATOM     12  O   UNL     1      -0.798  14.174  20.753  0.00  0.00    +0.000 OA
ATOM     13  N   UNL     1      -0.733  13.936  18.417  0.00  0.00    +0.000 N 
ATOM     14  H   UNL     1      -0.863  14.477  17.569  0.00  0.00    +0.000 HD
ENDBRANCH   4  13
ENDBRANCH   1   8
BRANCH   3  15
ATOM     15  C   UNL     1       0.752   9.207  20.970  0.00  0.00    +0.000 C 
ATOM     16  C   UNL     1       1.688   9.105  22.176  0.00  0.00    +0.000 C 
ATOM     17  C   UNL     1       0.792   9.266  23.403  0.00  0.00    +0.000 C 
ATOM     18  C   UNL     1      -0.648   9.146  22.911  0.00  0.00    +0.000 C 
ATOM     19  C   UNL     1      -0.548   8.590  21.499  0.00  0.00    +0.000 C 
ENDBRANCH   3  15
BRANCH   3  20
ATOM     20  C   UNL     1       2.456   7.726  19.830  0.00  0.00    +0.000 C 
BRANCH  20  21
ATOM     21  C   UNL     1       2.109   6.260  19.595  0.00  0.00    +0.000 A 
ATOM     22  C   UNL     1       1.565   5.482  20.657  0.00  0.00    +0.000 A 
ATOM     23  C   UNL     1       1.378   4.100  20.535  0.00  0.00    +0.000 A 
ATOM     24  C   UNL     1       1.751   3.506  19.355  0.00  0.00    +0.000 A 
ATOM     25  C   UNL     1       2.252   4.248  18.307  0.00  0.00    +0.000 A 
ATOM     26  C   UNL     1       2.428   5.616  18.393  0.00  0.00    +0.000 A 
ATOM     27  O   UNL     1       2.573   3.467  17.236  0.00  0.00    +0.000 OA
ATOM     28  C   UNL     1       2.347   2.151  17.786  0.00  0.00    +0.000 C 
ATOM     29  O   UNL     1       1.721   2.173  19.084  0.00  0.00    +0.000 OA
ENDBRANCH  20  21
ENDBRANCH   3  20
TORSDOF 5
ENDMDL
MODEL 2
REMARK VINA RESULT:      -7.6      2.930      8.443
REMARK  Name = 
REMARK  6 active torsions:
REMARK  status: ('A' for Active; 'I' for Inactive)
REMARK    1  A    between atoms: C_1  and  C_2
REMARK    2  A    between atoms: N_4  and  C_5
REMARK    3  A    between atoms: C_9  and  C_10
REMARK    4  A    between atoms: N_12  and  C_13
REMARK    5  A    between atoms: N_12  and  C_23
REMARK    6  A    between atoms: C_13  and  C_14
REMARK                            x       y       z     vdW  Elec       q    Type
REMARK                         _______ _______ _______ _____ _____    ______ ____
ROOT
ATOM      1  C   UNL     1       0.580  10.715  20.105  0.00  0.00    +0.000 C 
ATOM      2  O   UNL     1       1.181  11.304  21.007  0.00  0.00    +0.000 OA
ATOM      3  N   UNL     1      -0.613  11.235  19.511  0.00  0.00    +0.000 N 
ENDROOT
BRANCH   1   8
ATOM      4  C   UNL     1       2.076   7.169  20.025  0.00  0.00    +0.000 A 
ATOM      5  C   UNL     1       2.636   7.196  18.749  0.00  0.00    +0.000 A 
ATOM      6  C   UNL     1       2.312   8.206  17.861  0.00  0.00    +0.000 A 
ATOM      7  C   UNL     1       1.500   9.251  18.278  0.00  0.00    +0.000 A 
ATOM      8  C   UNL     1       1.204   9.425  19.629  0.00  0.00    +0.000 A 
ATOM      9  C   UNL     1       1.435   8.334  20.501  0.00  0.00    +0.000 A 
BRANCH   4  13
ATOM     10  C   UNL     1       1.766   3.616  21.326  0.00  0.00    +0.000 C 
ATOM     11  C   UNL     1       1.738   4.718  20.301  0.00  0.00    +0.000 C 
ATOM     12  O   UNL     1       1.374   4.455  19.159  0.00  0.00    +0.000 OA
ATOM     13  N   UNL     1       2.107   5.975  20.794  0.00  0.00    +0.000 N 
ATOM     14  H   UNL     1       2.173   6.073  21.801  0.00  0.00    +0.000 HD
ENDBRANCH   4  13
ENDBRANCH   1   8
BRANCH   3  15
ATOM     15  C   UNL     1      -1.167  10.774  18.218  0.00  0.00    +0.000 C 
ATOM     16  C   UNL     1      -1.698  11.904  17.334  0.00  0.00    +0.000 C 
ATOM     17  C   UNL     1      -2.596  11.226  16.300  0.00  0.00    +0.000 C 
ATOM     18  C   UNL     1      -2.815   9.795  16.783  0.00  0.00    +0.000 C 
ATOM     19  C   UNL     1      -2.332   9.776  18.224  0.00  0.00    +0.000 C 
ENDBRANCH   3  15
BRANCH   3  20
ATOM     20  C   UNL     1      -1.115  12.517  20.049  0.00  0.00    +0.000 C 
BRANCH  20  21
ATOM     21  C   UNL     1      -2.389  12.437  20.882  0.00  0.00    +0.000 A 
ATOM     22  C   UNL     1      -3.652  12.680  20.269  0.00  0.00    +0.000 A 
ATOM     23  C   UNL     1      -4.828  12.771  21.021  0.00  0.00    +0.000 A 
ATOM     24  C   UNL     1      -4.729  12.632  22.384  0.00  0.00    +0.000 A 
ATOM     25  C   UNL     1      -3.520  12.367  22.990  0.00  0.00    +0.000 A 
ATOM     26  C   UNL     1      -2.346  12.252  22.270  0.00  0.00    +0.000 A 
ATOM     27  O   UNL     1      -3.637  12.281  24.346  0.00  0.00    +0.000 OA
ATOM     28  C   UNL     1      -5.020  12.658  24.521  0.00  0.00    +0.000 C 
ATOM     29  O   UNL     1      -5.743  12.771  23.279  0.00  0.00    +0.000 OA
ENDBRANCH  20  21
ENDBRANCH   3  20
TORSDOF 5
ENDMDL
MODEL 3
REMARK VINA RESULT:      -7.3      2.046      7.645
REMARK  Name = 
REMARK  6 active torsions:
REMARK  status: ('A' for Active; 'I' for Inactive)
REMARK    1  A    between atoms: C_1  and  C_2
REMARK    2  A    between atoms: N_4  and  C_5
REMARK    3  A    between atoms: C_9  and  C_10
REMARK    4  A    between atoms: N_12  and  C_13
REMARK    5  A    between atoms: N_12  and  C_23
REMARK    6  A    between atoms: C_13  and  C_14
REMARK                            x       y       z     vdW  Elec       q    Type
REMARK                         _______ _______ _______ _____ _____    ______ ____
ROOT
ATOM      1  C   UNL     1       1.930   8.919  18.236  0.00  0.00    +0.000 C 
ATOM      2  O   UNL     1       1.878   9.218  17.040  0.00  0.00    +0.000 OA
ATOM      3  N   UNL     1       1.319   9.718  19.253  0.00  0.00    +0.000 N 
ENDROOT
BRANCH   1   8
ATOM      4  C   UNL     1       3.012   5.658  19.971  0.00  0.00    +0.000 A 
ATOM      5  C   UNL     1       4.198   5.423  19.277  0.00  0.00    +0.000 A 
ATOM      6  C   UNL     1       4.491   6.135  18.127  0.00  0.00    +0.000 A 
ATOM      7  C   UNL     1       3.644   7.153  17.717  0.00  0.00    +0.000 A 
ATOM      8  C   UNL     1       2.643   7.628  18.563  0.00  0.00    +0.000 A 
ATOM      9  C   UNL     1       2.278   6.825  19.669  0.00  0.00    +0.000 A 
BRANCH   4  13
ATOM     10  C   UNL     1       1.401   2.707  21.734  0.00  0.00    +0.000 C 
ATOM     11  C   UNL     1       1.897   3.511  20.563  0.00  0.00    +0.000 C 
ATOM     12  O   UNL     1       1.685   3.097  19.428  0.00  0.00    +0.000 OA
ATOM     13  N   UNL     1       2.536   4.707  20.913  0.00  0.00    +0.000 N 
ATOM     14  H   UNL     1       2.444   5.013  21.876  0.00  0.00    +0.000 HD
ENDBRANCH   4  13
ENDBRANCH   1   8
BRANCH   3  15
ATOM     15  C   UNL     1       1.042   9.243  20.628  0.00  0.00    +0.000 C 
ATOM     16  C   UNL     1      -0.323   8.569  20.786  0.00  0.00    +0.000 C 
ATOM     17  C   UNL     1      -0.602   8.558  22.288  0.00  0.00    +0.000 C 
ATOM     18  C   UNL     1       0.430   9.482  22.931  0.00  0.00    +0.000 C 
ATOM     19  C   UNL     1       1.052  10.255  21.779  0.00  0.00    +0.000 C 
ENDBRANCH   3  15
BRANCH   3  20
ATOM     20  C   UNL     1       0.632  10.947  18.806  0.00  0.00    +0.000 C 
BRANCH  20  21
ATOM     21  C   UNL     1      -0.866  10.821  18.557  0.00  0.00    +0.000 A 
ATOM     22  C   UNL     1      -1.343   9.965  17.522  0.00  0.00    +0.000 A 
ATOM     23  C   UNL     1      -2.693   9.936  17.156  0.00  0.00    +0.000 A 
ATOM     24  C   UNL     1      -3.554  10.775  17.820  0.00  0.00    +0.000 A 
ATOM     25  C   UNL     1      -3.116  11.587  18.843  0.00  0.00    +0.000 A 
ATOM     26  C   UNL     1      -1.792  11.621  19.239  0.00  0.00    +0.000 A 
ATOM     27  O   UNL     1      -4.123  12.349  19.357  0.00  0.00    +0.000 OA
ATOM     28  C   UNL     1      -5.198  12.021  18.450  0.00  0.00    +0.000 C 
ATOM     29  O   UNL     1      -4.876  10.944  17.548  0.00  0.00    +0.000 OA
ENDBRANCH  20  21
ENDBRANCH   3  20
TORSDOF 5
ENDMDL
MODEL 4
REMARK VINA RESULT:      -7.3      2.615      7.757
REMARK  Name = 
REMARK  6 active torsions:
REMARK  status: ('A' for Active; 'I' for Inactive)
REMARK    1  A    between atoms: C_1  and  C_2
REMARK    2  A    between atoms: N_4  and  C_5
REMARK    3  A    between atoms: C_9  and  C_10
REMARK    4  A    between atoms: N_12  and  C_13
REMARK    5  A    between atoms: N_12  and  C_23
REMARK    6  A    between atoms: C_13  and  C_14
REMARK                            x       y       z     vdW  Elec       q    Type
REMARK                         _______ _______ _______ _____ _____    ______ ____
ROOT
ATOM      1  C   UNL     1       1.870   8.691  18.372  0.00  0.00    +0.000 C 
ATOM      2  O   UNL     1       1.840   8.919  17.159  0.00  0.00    +0.000 OA
ATOM      3  N   UNL     1       1.298   9.580  19.334  0.00  0.00    +0.000 N 
ENDROOT
BRANCH   1   8
ATOM      4  C   UNL     1       4.112   5.562  18.436  0.00  0.00    +0.000 A 
ATOM      5  C   UNL     1       3.444   4.834  19.419  0.00  0.00    +0.000 A 
ATOM      6  C   UNL     1       2.481   5.438  20.208  0.00  0.00    +0.000 A 
ATOM      7  C   UNL     1       2.112   6.751  19.954  0.00  0.00    +0.000 A 
ATOM      8  C   UNL     1       2.514   7.387  18.781  0.00  0.00    +0.000 A 
ATOM      9  C   UNL     1       3.581   6.813  18.051  0.00  0.00    +0.000 A 
BRANCH   4  13
ATOM     10  C   UNL     1       7.713   4.570  17.758  0.00  0.00    +0.000 C 
ATOM     11  C   UNL     1       6.545   5.050  18.576  0.00  0.00    +0.000 C 
ATOM     12  O   UNL     1       6.739   5.407  19.733  0.00  0.00    +0.000 OA
ATOM     13  N   UNL     1       5.327   5.073  17.886  0.00  0.00    +0.000 N 
ATOM     14  H   UNL     1       5.366   4.953  16.879  0.00  0.00    +0.000 HD
ENDBRANCH   4  13
ENDBRANCH   1   8
BRANCH   3  15
ATOM     15  C   UNL     1       0.990   9.204  20.733  0.00  0.00    +0.000 C 
ATOM     16  C   UNL     1      -0.377   8.540  20.908  0.00  0.00    +0.000 C 
ATOM     17  C   UNL     1      -0.690   8.637  22.401  0.00  0.00    +0.000 C 
ATOM     18  C   UNL     1       0.327   9.607  22.998  0.00  0.00    +0.000 C 
ATOM     19  C   UNL     1       0.974  10.297  21.808  0.00  0.00    +0.000 C 
ENDBRANCH   3  15
BRANCH   3  20
ATOM     20  C   UNL     1       0.679  10.815  18.808  0.00  0.00    +0.000 C 
BRANCH  20  21
ATOM     21  C   UNL     1      -0.827  10.757  18.573  0.00  0.00    +0.000 A 
ATOM     22  C   UNL     1      -1.347   9.962  17.512  0.00  0.00    +0.000 A 
ATOM     23  C   UNL     1      -2.701  10.000  17.161  0.00  0.00    +0.000 A 
ATOM     24  C   UNL     1      -3.521  10.845  17.867  0.00  0.00    +0.000 A 
ATOM     25  C   UNL     1      -3.040  11.600  18.915  0.00  0.00    +0.000 A 
ATOM     26  C   UNL     1      -1.712  11.567  19.295  0.00  0.00    +0.000 A 
ATOM     27  O   UNL     1      -4.011  12.381  19.470  0.00  0.00    +0.000 OA
ATOM     28  C   UNL     1      -5.107  12.131  18.564  0.00  0.00    +0.000 C 
ATOM     29  O   UNL     1      -4.838  11.077  17.618  0.00  0.00    +0.000 OA
ENDBRANCH  20  21
ENDBRANCH   3  20
TORSDOF 5
ENDMDL
MODEL 5
REMARK VINA RESULT:      -7.2      3.764      5.999
REMARK  Name = 
REMARK  6 active torsions:
REMARK  status: ('A' for Active; 'I' for Inactive)
REMARK    1  A    between atoms: C_1  and  C_2
REMARK    2  A    between atoms: N_4  and  C_5
REMARK    3  A    between atoms: C_9  and  C_10
REMARK    4  A    between atoms: N_12  and  C_13
REMARK    5  A    between atoms: N_12  and  C_23
REMARK    6  A    between atoms: C_13  and  C_14
REMARK                            x       y       z     vdW  Elec       q    Type
REMARK                         _______ _______ _______ _____ _____    ______ ____
ROOT
ATOM      1  C   UNL     1       4.011   6.601  18.077  0.00  0.00    +0.000 C 
ATOM      2  O   UNL     1       5.116   7.113  17.878  0.00  0.00    +0.000 OA
ATOM      3  N   UNL     1       3.793   5.190  17.991  0.00  0.00    +0.000 N 
ENDROOT
BRANCH   1   8
ATOM      4  C   UNL     1       1.169   8.343  20.002  0.00  0.00    +0.000 A 
ATOM      5  C   UNL     1       0.670   9.146  18.977  0.00  0.00    +0.000 A 
ATOM      6  C   UNL     1       1.386   9.314  17.805  0.00  0.00    +0.000 A 
ATOM      7  C   UNL     1       2.561   8.602  17.612  0.00  0.00    +0.000 A 
ATOM      8  C   UNL     1       2.903   7.552  18.462  0.00  0.00    +0.000 A 
ATOM      9  C   UNL     1       2.239   7.470  19.709  0.00  0.00    +0.000 A 
BRANCH   4  13
ATOM     10  C   UNL     1       0.132   9.484  23.471  0.00  0.00    +0.000 C 
ATOM     11  C   UNL     1       0.666   9.633  22.072  0.00  0.00    +0.000 C 
ATOM     12  O   UNL     1       1.101  10.723  21.716  0.00  0.00    +0.000 OA
ATOM     13  N   UNL     1       0.643   8.454  21.317  0.00  0.00    +0.000 N 
ATOM     14  H   UNL     1       0.455   7.591  21.816  0.00  0.00    +0.000 HD
ENDBRANCH   4  13
ENDBRANCH   1   8
BRANCH   3  15
ATOM     15  C   UNL     1       2.612   4.496  18.554  0.00  0.00    +0.000 C 
ATOM     16  C   UNL     1       2.895   3.758  19.865  0.00  0.00    +0.000 C 
ATOM     17  C   UNL     1       1.736   2.779  20.040  0.00  0.00    +0.000 C 
ATOM     18  C   UNL     1       0.988   2.744  18.710  0.00  0.00    +0.000 C 
ATOM     19  C   UNL     1       1.909   3.426  17.711  0.00  0.00    +0.000 C 
ENDBRANCH   3  15
BRANCH   3  20
ATOM     20  C   UNL     1       4.960   4.361  17.626  0.00  0.00    +0.000 C 
BRANCH  20  21
ATOM     21  C   UNL     1       5.438   4.482  16.183  0.00  0.00    +0.000 A 
ATOM     22  C   UNL     1       4.773   3.755  15.154  0.00  0.00    +0.000 A 
ATOM     23  C   UNL     1       5.269   3.712  13.846  0.00  0.00    +0.000 A 
ATOM     24  C   UNL     1       6.436   4.386  13.582  0.00  0.00    +0.000 A 
ATOM     25  C   UNL     1       7.077   5.118  14.559  0.00  0.00    +0.000 A 
ATOM     26  C   UNL     1       6.598   5.194  15.853  0.00  0.00    +0.000 A 
ATOM     27  O   UNL     1       8.222   5.695  14.095  0.00  0.00    +0.000 OA
ATOM     28  C   UNL     1       8.291   5.128  12.769  0.00  0.00    +0.000 C 
ATOM     29  O   UNL     1       7.108   4.391  12.400  0.00  0.00    +0.000 OA
ENDBRANCH  20  21
ENDBRANCH   3  20
TORSDOF 5
ENDMDL
MODEL 6
REMARK VINA RESULT:      -7.2      3.582      8.457
REMARK  Name = 
REMARK  6 active torsions:
REMARK  status: ('A' for Active; 'I' for Inactive)
REMARK    1  A    between atoms: C_1  and  C_2
REMARK    2  A    between atoms: N_4  and  C_5
REMARK    3  A    between atoms: C_9  and  C_10
REMARK    4  A    between atoms: N_12  and  C_13
REMARK    5  A    between atoms: N_12  and  C_23
REMARK    6  A    between atoms: C_13  and  C_14
REMARK                            x       y       z     vdW  Elec       q    Type
REMARK                         _______ _______ _______ _____ _____    ______ ____
ROOT
ATOM      1  C   UNL     1       3.596   6.724  18.046  0.00  0.00    +0.000 C 
ATOM      2  O   UNL     1       3.247   7.650  17.309  0.00  0.00    +0.000 OA
ATOM      3  N   UNL     1       2.739   6.181  19.055  0.00  0.00    +0.000 N 
ENDROOT
BRANCH   1   8
ATOM      4  C   UNL     1       6.773   5.442  16.291  0.00  0.00    +0.000 A 
ATOM      5  C   UNL     1       7.399   4.840  17.382  0.00  0.00    +0.000 A 
ATOM      6  C   UNL     1       6.944   5.073  18.668  0.00  0.00    +0.000 A 
ATOM      7  C   UNL     1       5.801   5.834  18.864  0.00  0.00    +0.000 A 
ATOM      8  C   UNL     1       4.975   6.163  17.791  0.00  0.00    +0.000 A 
ATOM      9  C   UNL     1       5.503   6.028  16.485  0.00  0.00    +0.000 A 
BRANCH   4  13
ATOM     10  C   UNL     1       7.924   4.978  12.704  0.00  0.00    +0.000 C 
ATOM     11  C   UNL     1       7.013   4.823  13.891  0.00  0.00    +0.000 C 
ATOM     12  O   UNL     1       6.023   4.107  13.789  0.00  0.00    +0.000 OA
ATOM     13  N   UNL     1       7.435   5.510  15.036  0.00  0.00    +0.000 N 
ATOM     14  H   UNL     1       8.379   5.881  15.028  0.00  0.00    +0.000 HD
ENDBRANCH   4  13
ENDBRANCH   1   8
BRANCH   3  15
ATOM     15  C   UNL     1       2.954   4.872  19.711  0.00  0.00    +0.000 C 
ATOM     16  C   UNL     1       2.553   3.673  18.848  0.00  0.00    +0.000 C 
ATOM     17  C   UNL     1       2.425   2.498  19.816  0.00  0.00    +0.000 C 
ATOM     18  C   UNL     1       2.445   3.087  21.224  0.00  0.00    +0.000 C 
ATOM     19  C   UNL     1       2.244   4.582  21.039  0.00  0.00    +0.000 C 
ENDBRANCH   3  15
BRANCH   3  20
ATOM     20  C   UNL     1       1.405   6.802  19.193  0.00  0.00    +0.000 C 
BRANCH  20  21
ATOM     21  C   UNL     1       1.364   8.135  19.932  0.00  0.00    +0.000 A 
ATOM     22  C   UNL     1       1.374   8.156  21.356  0.00  0.00    +0.000 A 
ATOM     23  C   UNL     1       1.181   9.341  22.076  0.00  0.00    +0.000 A 
ATOM     24  C   UNL     1       0.966  10.494  21.362  0.00  0.00    +0.000 A 
ATOM     25  C   UNL     1       0.983  10.498  19.984  0.00  0.00    +0.000 A 
ATOM     26  C   UNL     1       1.191   9.346  19.249  0.00  0.00    +0.000 A 
ATOM     27  O   UNL     1       0.734  11.737  19.473  0.00  0.00    +0.000 OA
ATOM     28  C   UNL     1       0.425  12.468  20.680  0.00  0.00    +0.000 C 
ATOM     29  O   UNL     1       0.680  11.717  21.884  0.00  0.00    +0.000 OA
ENDBRANCH  20  21
ENDBRANCH   3  20
TORSDOF 5
ENDMDL
MODEL 7
REMARK VINA RESULT:      -7.2      0.639      1.297
REMARK  Name = 
REMARK  6 active torsions:
REMARK  status: ('A' for Active; 'I' for Inactive)
REMARK    1  A    between atoms: C_1  and  C_2
REMARK    2  A    between atoms: N_4  and  C_5
REMARK    3  A    between atoms: C_9  and  C_10
REMARK    4  A    between atoms: N_12  and  C_13
REMARK    5  A    between atoms: N_12  and  C_23
REMARK    6  A    between atoms: C_13  and  C_14
REMARK                            x       y       z     vdW  Elec       q    Type
REMARK                         _______ _______ _______ _____ _____    ______ ____
ROOT
ATOM      1  C   UNL     1       1.180   9.303  18.447  0.00  0.00    +0.000 C 
ATOM      2  O   UNL     1       1.938   9.096  17.495  0.00  0.00    +0.000 OA
ATOM      3  N   UNL     1       1.388   8.716  19.734  0.00  0.00    +0.000 N 
ENDROOT
BRANCH   1   8
ATOM      4  C   UNL     1      -0.989  12.477  18.256  0.00  0.00    +0.000 A 
ATOM      5  C   UNL     1      -2.216  11.887  17.956  0.00  0.00    +0.000 A 
ATOM      6  C   UNL     1      -2.281  10.560  17.571  0.00  0.00    +0.000 A 
ATOM      7  C   UNL     1      -1.128   9.788  17.575  0.00  0.00    +0.000 A 
ATOM      8  C   UNL     1       0.036  10.253  18.183  0.00  0.00    +0.000 A 
ATOM      9  C   UNL     1       0.127  11.637  18.462  0.00  0.00    +0.000 A 
BRANCH   4  13
ATOM     10  C   UNL     1      -0.662  16.123  19.261  0.00  0.00    +0.000 C 
ATOM     11  C   UNL     1      -0.672  14.632  19.463  0.00  0.00    +0.000 C 
ATOM     12  O   UNL     1      -0.549  14.187  20.599  0.00  0.00    +0.000 OA
ATOM     13  N   UNL     1      -0.866  13.893  18.290  0.00  0.00    +0.000 N 
ATOM     14  H   UNL     1      -1.165  14.404  17.467  0.00  0.00    +0.000 HD
ENDBRANCH   4  13
ENDBRANCH   1   8
BRANCH   3  15
ATOM     15  C   UNL     1       0.742   9.193  20.979  0.00  0.00    +0.000 C 
ATOM     16  C   UNL     1       1.657   9.154  22.205  0.00  0.00    +0.000 C 
ATOM     17  C   UNL     1       0.726   9.245  23.412  0.00  0.00    +0.000 C 
ATOM     18  C   UNL     1      -0.691   9.023  22.889  0.00  0.00    +0.000 C 
ATOM     19  C   UNL     1      -0.520   8.481  21.479  0.00  0.00    +0.000 C 
ENDBRANCH   3  15
BRANCH   3  20
ATOM     20  C   UNL     1       2.555   7.820  19.873  0.00  0.00    +0.000 C 
BRANCH  20  21
ATOM     21  C   UNL     1       2.335   6.370  19.456  0.00  0.00    +0.000 A 
ATOM     22  C   UNL     1       2.592   5.973  18.112  0.00  0.00    +0.000 A 
ATOM     23  C   UNL     1       2.257   4.696  17.647  0.00  0.00    +0.000 A 
ATOM     24  C   UNL     1       1.655   3.832  18.527  0.00  0.00    +0.000 A 
ATOM     25  C   UNL     1       1.425   4.190  19.838  0.00  0.00    +0.000 A 
ATOM     26  C   UNL     1       1.764   5.436  20.330  0.00  0.00    +0.000 A 
ATOM     27  O   UNL     1       0.806   3.196  20.538  0.00  0.00    +0.000 OA
ATOM     28  C   UNL     1       0.554   2.242  19.483  0.00  0.00    +0.000 C 
ATOM     29  O   UNL     1       1.187   2.588  18.235  0.00  0.00    +0.000 OA
ENDBRANCH  20  21
ENDBRANCH   3  20
TORSDOF 5
ENDMDL
MODEL 8
REMARK VINA RESULT:      -7.2      3.434      5.532
REMARK  Name = 
REMARK  6 active torsions:
REMARK  status: ('A' for Active; 'I' for Inactive)
REMARK    1  A    between atoms: C_1  and  C_2
REMARK    2  A    between atoms: N_4  and  C_5
REMARK    3  A    between atoms: C_9  and  C_10
REMARK    4  A    between atoms: N_12  and  C_13
REMARK    5  A    between atoms: N_12  and  C_23
REMARK    6  A    between atoms: C_13  and  C_14
REMARK                            x       y       z     vdW  Elec       q    Type
REMARK                         _______ _______ _______ _____ _____    ______ ____
ROOT
ATOM      1  C   UNL     1       3.751   6.450  18.584  0.00  0.00    +0.000 C 
ATOM      2  O   UNL     1       4.920   6.846  18.581  0.00  0.00    +0.000 OA
ATOM      3  N   UNL     1       3.411   5.062  18.581  0.00  0.00    +0.000 N 
ENDROOT
BRANCH   1   8
ATOM      4  C   UNL     1       1.139   8.974  19.860  0.00  0.00    +0.000 A 
ATOM      5  C   UNL     1       0.528   9.290  18.647  0.00  0.00    +0.000 A 
ATOM      6  C   UNL     1       1.109   8.912  17.450  0.00  0.00    +0.000 A 
ATOM      7  C   UNL     1       2.256   8.132  17.460  0.00  0.00    +0.000 A 
ATOM      8  C   UNL     1       2.692   7.526  18.637  0.00  0.00    +0.000 A 
ATOM      9  C   UNL     1       2.170   8.010  19.861  0.00  0.00    +0.000 A 
BRANCH   4  13
ATOM     10  C   UNL     1      -0.485  10.112  23.098  0.00  0.00    +0.000 C 
ATOM     11  C   UNL     1      -0.184   9.173  21.960  0.00  0.00    +0.000 C 
ATOM     12  O   UNL     1      -0.792   8.110  21.894  0.00  0.00    +0.000 OA
ATOM     13  N   UNL     1       0.762   9.655  21.049  0.00  0.00    +0.000 N 
ATOM     14  H   UNL     1       1.014  10.635  21.121  0.00  0.00    +0.000 HD
ENDBRANCH   4  13
ENDBRANCH   1   8
BRANCH   3  15
ATOM     15  C   UNL     1       2.075   4.532  18.939  0.00  0.00    +0.000 C 
ATOM     16  C   UNL     1       1.941   4.136  20.411  0.00  0.00    +0.000 C 
ATOM     17  C   UNL     1       0.709   3.235  20.480  0.00  0.00    +0.000 C 
ATOM     18  C   UNL     1       0.346   2.879  19.041  0.00  0.00    +0.000 C 
ATOM     19  C   UNL     1       1.548   3.292  18.208  0.00  0.00    +0.000 C 
ENDBRANCH   3  15
BRANCH   3  20
ATOM     20  C   UNL     1       4.537   4.105  18.549  0.00  0.00    +0.000 C 
BRANCH  20  21
ATOM     21  C   UNL     1       5.470   4.214  17.348  0.00  0.00    +0.000 A 
ATOM     22  C   UNL     1       6.773   4.765  17.512  0.00  0.00    +0.000 A 
ATOM     23  C   UNL     1       7.603   5.027  16.416  0.00  0.00    +0.000 A 
ATOM     24  C   UNL     1       7.115   4.749  15.164  0.00  0.00    +0.000 A 
ATOM     25  C   UNL     1       5.868   4.189  14.988  0.00  0.00    +0.000 A 
ATOM     26  C   UNL     1       5.036   3.900  16.054  0.00  0.00    +0.000 A 
ATOM     27  O   UNL     1       5.570   4.007  13.670  0.00  0.00    +0.000 OA
ATOM     28  C   UNL     1       6.708   4.642  13.048  0.00  0.00    +0.000 C 
ATOM     29  O   UNL     1       7.739   5.012  13.984  0.00  0.00    +0.000 OA
ENDBRANCH  20  21
ENDBRANCH   3  20
TORSDOF 5
ENDMDL
MODEL 9
REMARK VINA RESULT:      -7.1      1.350      1.792
REMARK  Name = 
REMARK  6 active torsions:
REMARK  status: ('A' for Active; 'I' for Inactive)
REMARK    1  A    between atoms: C_1  and  C_2
REMARK    2  A    between atoms: N_4  and  C_5
REMARK    3  A    between atoms: C_9  and  C_10
REMARK    4  A    between atoms: N_12  and  C_13
REMARK    5  A    between atoms: N_12  and  C_23
REMARK    6  A    between atoms: C_13  and  C_14
REMARK                            x       y       z     vdW  Elec       q    Type
REMARK                         _______ _______ _______ _____ _____    ______ ____
ROOT
ATOM      1  C   UNL     1       0.649   9.491  18.361  0.00  0.00    +0.000 C 
ATOM      2  O   UNL     1       1.310   9.383  17.324  0.00  0.00    +0.000 OA
ATOM      3  N   UNL     1       1.092   8.957  19.611  0.00  0.00    +0.000 N 
ENDROOT
BRANCH   1   8
ATOM      4  C   UNL     1      -2.159  12.061  18.930  0.00  0.00    +0.000 A 
ATOM      5  C   UNL     1      -3.167  11.454  18.182  0.00  0.00    +0.000 A 
ATOM      6  C   UNL     1      -2.871  10.413  17.321  0.00  0.00    +0.000 A 
ATOM      7  C   UNL     1      -1.580   9.907  17.274  0.00  0.00    +0.000 A 
ATOM      8  C   UNL     1      -0.643  10.264  18.242  0.00  0.00    +0.000 A 
ATOM      9  C   UNL     1      -0.913  11.405  19.034  0.00  0.00    +0.000 A 
BRANCH   4  13
ATOM     10  C   UNL     1      -3.170  14.969  21.152  0.00  0.00    +0.000 C 
ATOM     11  C   UNL     1      -2.961  13.526  20.777  0.00  0.00    +0.000 C 
ATOM     12  O   UNL     1      -3.335  12.653  21.553  0.00  0.00    +0.000 OA
ATOM     13  N   UNL     1      -2.376  13.336  19.520  0.00  0.00    +0.000 N 
ATOM     14  H   UNL     1      -2.321  14.144  18.910  0.00  0.00    +0.000 HD
ENDBRANCH   4  13
ENDBRANCH   1   8
BRANCH   3  15
ATOM     15  C   UNL     1       0.539   9.352  20.927  0.00  0.00    +0.000 C 
ATOM     16  C   UNL     1       1.568   9.343  22.059  0.00  0.00    +0.000 C 
ATOM     17  C   UNL     1       0.753   9.334  23.351  0.00  0.00    +0.000 C 
ATOM     18  C   UNL     1      -0.689   9.028  22.956  0.00  0.00    +0.000 C 
ATOM     19  C   UNL     1      -0.619   8.540  21.518  0.00  0.00    +0.000 C 
ENDBRANCH   3  15
BRANCH   3  20
ATOM     20  C   UNL     1       2.384   8.239  19.603  0.00  0.00    +0.000 C 
BRANCH  20  21
ATOM     21  C   UNL     1       2.305   6.727  19.424  0.00  0.00    +0.000 A 
ATOM     22  C   UNL     1       2.492   6.157  18.132  0.00  0.00    +0.000 A 
ATOM     23  C   UNL     1       2.275   4.795  17.891  0.00  0.00    +0.000 A 
ATOM     24  C   UNL     1       1.858   4.018  18.943  0.00  0.00    +0.000 A 
ATOM     25  C   UNL     1       1.700   4.547  20.206  0.00  0.00    +0.000 A 
ATOM     26  C   UNL     1       1.927   5.884  20.477  0.00  0.00    +0.000 A 
ATOM     27  O   UNL     1       1.267   3.614  21.101  0.00  0.00    +0.000 OA
ATOM     28  C   UNL     1       1.042   2.487  20.226  0.00  0.00    +0.000 C 
ATOM     29  O   UNL     1       1.520   2.702  18.883  0.00  0.00    +0.000 OA
ENDBRANCH  20  21
ENDBRANCH   3  20
TORSDOF 5
ENDMDL
