MODEL 1
REMARK VINA RESULT:      -7.5      0.000      0.000
REMARK  Name = 
REMARK  4 active torsions:
REMARK  status: ('A' for Active; 'I' for Inactive)
REMARK    1  A    between atoms: C_1  and  C_2
REMARK    2  A    between atoms: C_7  and  N_8
REMARK    3  A    between atoms: C_9  and  C_11
REMARK    4  A    between atoms: N_25  and  C_26
REMARK                            x       y       z     vdW  Elec       q    Type
REMARK                         _______ _______ _______ _____ _____    ______ ____
ROOT
ATOM      1  C   UNL     1       5.140   5.122  17.920  0.00  0.00    +0.000 C 
ATOM      2  C   UNL     1       5.783   4.732  19.257  0.00  0.00    +0.000 C 
ATOM      3  C   UNL     1       5.378   3.263  19.435  0.00  0.00    +0.000 C 
ATOM      4  C   UNL     1       4.248   3.079  18.445  0.00  0.00    +0.000 C 
ATOM      5  O   UNL     1       3.693   2.026  18.181  0.00  0.00    +0.000 OA
ATOM      6  N   UNL     1       3.892   4.361  17.973  0.00  0.00    +0.000 N 
ATOM      7  C   UNL     1       2.831   5.013  18.698  0.00  0.00    +0.000 A 
ATOM      8  C   UNL     1       1.999   4.305  19.583  0.00  0.00    +0.000 A 
ATOM      9  C   UNL     1       1.194   4.988  20.500  0.00  0.00    +0.000 A 
ATOM     10  C   UNL     1       1.138   6.380  20.486  0.00  0.00    +0.000 A 
ATOM     11  C   UNL     1       1.878   7.090  19.559  0.00  0.00    +0.000 A 
ATOM     12  C   UNL     1       2.756   6.405  18.698  0.00  0.00    +0.000 A 
ATOM     13  C   UNL     1       3.753   7.191  17.960  0.00  0.00    +0.000 C 
ATOM     14  O   UNL     1       3.527   8.359  17.669  0.00  0.00    +0.000 OA
ATOM     15  N   UNL     1       4.963   6.565  17.751  0.00  0.00    +0.000 N 
ATOM     16  C   UNL     1       6.121   7.403  17.496  0.00  0.00    +0.000 C 
ENDROOT
BRANCH   1  18
ATOM     17  N   UNL     1       5.373   4.868  15.447  0.00  0.00    +0.000 N 
ATOM     18  C   UNL     1       5.973   4.598  16.671  0.00  0.00    +0.000 C 
ATOM     19  O   UNL     1       7.029   3.983  16.814  0.00  0.00    +0.000 OA
ATOM     20  H   UNL     1       4.382   5.101  15.478  0.00  0.00    +0.000 HD
BRANCH  17  27
ATOM     21  C   UNL     1       4.955   2.216  11.217  0.00  0.00    +0.000 C 
ATOM     22  C   UNL     1       5.682   3.195  12.096  0.00  0.00    +0.000 A 
ATOM     23  C   UNL     1       6.894   3.756  11.670  0.00  0.00    +0.000 A 
ATOM     24  C   UNL     1       7.596   4.624  12.504  0.00  0.00    +0.000 A 
ATOM     25  C   UNL     1       7.084   4.930  13.761  0.00  0.00    +0.000 A 
ATOM     26  F   UNL     1       7.767   5.772  14.553  0.00  0.00    +0.000 F 
ATOM     27  C   UNL     1       5.852   4.429  14.191  0.00  0.00    +0.000 A 
ATOM     28  C   UNL     1       5.164   3.538  13.360  0.00  0.00    +0.000 A 
ENDBRANCH  17  27
ENDBRANCH   1  18
TORSDOF 2
ENDMDL
MODEL 2
REMARK VINA RESULT:      -7.2      8.306     12.369
REMARK  Name = 
REMARK  4 active torsions:
REMARK  status: ('A' for Active; 'I' for Inactive)
REMARK    1  A    between atoms: C_1  and  C_2
REMARK    2  A    between atoms: C_7  and  N_8
REMARK    3  A    between atoms: C_9  and  C_11
REMARK    4  A    between atoms: N_25  and  C_26
REMARK                            x       y       z     vdW  Elec       q    Type
REMARK                         _______ _______ _______ _____ _____    ______ ____
ROOT
ATOM      1  C   UNL     1      -1.313  12.416  20.527  0.00  0.00    +0.000 C 
ATOM      2  C   UNL     1      -0.166  13.304  20.027  0.00  0.00    +0.000 C 
ATOM      3  C   UNL     1      -0.369  13.329  18.506  0.00  0.00    +0.000 C 
ATOM      4  C   UNL     1      -1.310  12.171  18.250  0.00  0.00    +0.000 C 
ATOM      5  O   UNL     1      -1.817  11.886  17.178  0.00  0.00    +0.000 OA
ATOM      6  N   UNL     1      -1.400  11.431  19.449  0.00  0.00    +0.000 N 
ATOM      7  C   UNL     1      -0.471  10.337  19.570  0.00  0.00    +0.000 A 
ATOM      8  C   UNL     1       0.234   9.842  18.460  0.00  0.00    +0.000 A 
ATOM      9  C   UNL     1       1.343   9.007  18.636  0.00  0.00    +0.000 A 
ATOM     10  C   UNL     1       1.707   8.584  19.913  0.00  0.00    +0.000 A 
ATOM     11  C   UNL     1       0.967   8.986  21.009  0.00  0.00    +0.000 A 
ATOM     12  C   UNL     1      -0.092   9.897  20.838  0.00  0.00    +0.000 A 
ATOM     13  C   UNL     1      -0.644  10.548  22.033  0.00  0.00    +0.000 C 
ATOM     14  O   UNL     1      -0.597   9.986  23.120  0.00  0.00    +0.000 OA
ATOM     15  N   UNL     1      -1.078  11.843  21.853  0.00  0.00    +0.000 N 
ATOM     16  C   UNL     1      -1.159  12.697  23.025  0.00  0.00    +0.000 C 
ENDROOT
BRANCH   1  18
ATOM     17  N   UNL     1      -3.810  12.358  20.519  0.00  0.00    +0.000 N 
ATOM     18  C   UNL     1      -2.699  13.192  20.586  0.00  0.00    +0.000 C 
ATOM     19  O   UNL     1      -2.748  14.420  20.649  0.00  0.00    +0.000 OA
ATOM     20  H   UNL     1      -3.639  11.418  20.168  0.00  0.00    +0.000 HD
BRANCH  17  27
ATOM     21  C   UNL     1      -7.913  13.735  17.997  0.00  0.00    +0.000 C 
ATOM     22  C   UNL     1      -7.192  13.430  19.280  0.00  0.00    +0.000 A 
ATOM     23  C   UNL     1      -7.861  13.538  20.507  0.00  0.00    +0.000 A 
ATOM     24  C   UNL     1      -7.181  13.306  21.700  0.00  0.00    +0.000 A 
ATOM     25  C   UNL     1      -5.834  12.963  21.665  0.00  0.00    +0.000 A 
ATOM     26  F   UNL     1      -5.190  12.737  22.821  0.00  0.00    +0.000 F 
ATOM     27  C   UNL     1      -5.153  12.794  20.455  0.00  0.00    +0.000 A 
ATOM     28  C   UNL     1      -5.834  13.054  19.261  0.00  0.00    +0.000 A 
ENDBRANCH  17  27
ENDBRANCH   1  18
TORSDOF 2
ENDMDL
MODEL 3
REMARK VINA RESULT:      -7.2      8.134     12.431
REMARK  Name = 
REMARK  4 active torsions:
REMARK  status: ('A' for Active; 'I' for Inactive)
REMARK    1  A    between atoms: C_1  and  C_2
REMARK    2  A    between atoms: C_7  and  N_8
REMARK    3  A    between atoms: C_9  and  C_11
REMARK    4  A    between atoms: N_25  and  C_26
REMARK                            x       y       z     vdW  Elec       q    Type
REMARK                         _______ _______ _______ _____ _____    ______ ____
ROOT
ATOM      1  C   UNL     1      -1.312  12.350  20.468  0.00  0.00    +0.000 C 
ATOM      2  C   UNL     1      -0.214  13.265  19.911  0.00  0.00    +0.000 C 
ATOM      3  C   UNL     1      -0.512  13.309  18.407  0.00  0.00    +0.000 C 
ATOM      4  C   UNL     1      -1.449  12.139  18.192  0.00  0.00    +0.000 C 
ATOM      5  O   UNL     1      -2.017  11.861  17.149  0.00  0.00    +0.000 OA
ATOM      6  N   UNL     1      -1.451  11.380  19.381  0.00  0.00    +0.000 N 
ATOM      7  C   UNL     1      -0.498  10.300  19.427  0.00  0.00    +0.000 A 
ATOM      8  C   UNL     1       0.143   9.834  18.266  0.00  0.00    +0.000 A 
ATOM      9  C   UNL     1       1.275   9.016  18.360  0.00  0.00    +0.000 A 
ATOM     10  C   UNL     1       1.726   8.580  19.604  0.00  0.00    +0.000 A 
ATOM     11  C   UNL     1       1.049   8.952  20.751  0.00  0.00    +0.000 A 
ATOM     12  C   UNL     1      -0.033   9.848  20.661  0.00  0.00    +0.000 A 
ATOM     13  C   UNL     1      -0.519  10.471  21.898  0.00  0.00    +0.000 C 
ATOM     14  O   UNL     1      -0.395   9.893  22.972  0.00  0.00    +0.000 OA
ATOM     15  N   UNL     1      -0.985  11.761  21.767  0.00  0.00    +0.000 N 
ATOM     16  C   UNL     1      -1.006  12.595  22.956  0.00  0.00    +0.000 C 
ENDROOT
BRANCH   1  18
ATOM     17  N   UNL     1      -3.793  12.242  20.738  0.00  0.00    +0.000 N 
ATOM     18  C   UNL     1      -2.705  13.100  20.626  0.00  0.00    +0.000 C 
ATOM     19  O   UNL     1      -2.780  14.329  20.611  0.00  0.00    +0.000 OA
ATOM     20  H   UNL     1      -3.636  11.283  20.435  0.00  0.00    +0.000 HD
BRANCH  17  27
ATOM     21  C   UNL     1      -7.916  13.623  23.225  0.00  0.00    +0.000 C 
ATOM     22  C   UNL     1      -7.169  13.365  21.947  0.00  0.00    +0.000 A 
ATOM     23  C   UNL     1      -7.803  13.556  20.711  0.00  0.00    +0.000 A 
ATOM     24  C   UNL     1      -7.130  13.270  19.526  0.00  0.00    +0.000 A 
ATOM     25  C   UNL     1      -5.824  12.794  19.577  0.00  0.00    +0.000 A 
ATOM     26  F   UNL     1      -5.183  12.526  18.428  0.00  0.00    +0.000 F 
ATOM     27  C   UNL     1      -5.147  12.646  20.792  0.00  0.00    +0.000 A 
ATOM     28  C   UNL     1      -5.836  12.911  21.980  0.00  0.00    +0.000 A 
ENDBRANCH  17  27
ENDBRANCH   1  18
TORSDOF 2
ENDMDL
MODEL 4
REMARK VINA RESULT:      -6.8      8.046     10.282
REMARK  Name = 
REMARK  4 active torsions:
REMARK  status: ('A' for Active; 'I' for Inactive)
REMARK    1  A    between atoms: C_1  and  C_2
REMARK    2  A    between atoms: C_7  and  N_8
REMARK    3  A    between atoms: C_9  and  C_11
REMARK    4  A    between atoms: N_25  and  C_26
REMARK                            x       y       z     vdW  Elec       q    Type
REMARK                         _______ _______ _______ _____ _____    ______ ____
ROOT
ATOM      1  C   UNL     1       0.011  11.890  20.179  0.00  0.00    +0.000 C 
ATOM      2  C   UNL     1       0.073  10.513  20.853  0.00  0.00    +0.000 C 
ATOM      3  C   UNL     1       0.904   9.672  19.876  0.00  0.00    +0.000 C 
ATOM      4  C   UNL     1       0.885  10.482  18.598  0.00  0.00    +0.000 C 
ATOM      5  O   UNL     1       1.510  10.229  17.582  0.00  0.00    +0.000 OA
ATOM      6  N   UNL     1      -0.066  11.510  18.768  0.00  0.00    +0.000 N 
ATOM      7  C   UNL     1      -1.398  11.203  18.310  0.00  0.00    +0.000 A 
ATOM      8  C   UNL     1      -1.652  10.107  17.468  0.00  0.00    +0.000 A 
ATOM      9  C   UNL     1      -2.958   9.638  17.287  0.00  0.00    +0.000 A 
ATOM     10  C   UNL     1      -4.032  10.309  17.868  0.00  0.00    +0.000 A 
ATOM     11  C   UNL     1      -3.807  11.446  18.624  0.00  0.00    +0.000 A 
ATOM     12  C   UNL     1      -2.487  11.862  18.878  0.00  0.00    +0.000 A 
ATOM     13  C   UNL     1      -2.269  12.862  19.931  0.00  0.00    +0.000 C 
ATOM     14  O   UNL     1      -3.144  13.674  20.203  0.00  0.00    +0.000 OA
ATOM     15  N   UNL     1      -1.097  12.724  20.644  0.00  0.00    +0.000 N 
ATOM     16  C   UNL     1      -1.039  13.319  21.967  0.00  0.00    +0.000 C 
ENDROOT
BRANCH   1  18
ATOM     17  N   UNL     1       1.531  13.727  19.435  0.00  0.00    +0.000 N 
ATOM     18  C   UNL     1       1.349  12.725  20.381  0.00  0.00    +0.000 C 
ATOM     19  O   UNL     1       2.144  12.459  21.282  0.00  0.00    +0.000 OA
ATOM     20  H   UNL     1       0.973  13.645  18.588  0.00  0.00    +0.000 HD
BRANCH  17  27
ATOM     21  C   UNL     1       6.157  14.698  17.776  0.00  0.00    +0.000 C 
ATOM     22  C   UNL     1       4.909  15.093  18.514  0.00  0.00    +0.000 A 
ATOM     23  C   UNL     1       4.818  16.354  19.119  0.00  0.00    +0.000 A 
ATOM     24  C   UNL     1       3.683  16.703  19.846  0.00  0.00    +0.000 A 
ATOM     25  C   UNL     1       2.639  15.792  19.966  0.00  0.00    +0.000 A 
ATOM     26  F   UNL     1       1.547  16.142  20.666  0.00  0.00    +0.000 F 
ATOM     27  C   UNL     1       2.677  14.548  19.329  0.00  0.00    +0.000 A 
ATOM     28  C   UNL     1       3.830  14.193  18.621  0.00  0.00    +0.000 A 
ENDBRANCH  17  27
ENDBRANCH   1  18
TORSDOF 2
ENDMDL
MODEL 5
REMARK VINA RESULT:      -6.8     10.197     12.183
REMARK  Name = 
REMARK  4 active torsions:
REMARK  status: ('A' for Active; 'I' for Inactive)
REMARK    1  A    between atoms: C_1  and  C_2
REMARK    2  A    between atoms: C_7  and  N_8
REMARK    3  A    between atoms: C_9  and  C_11
REMARK    4  A    between atoms: N_25  and  C_26
REMARK                            x       y       z     vdW  Elec       q    Type
REMARK                         _______ _______ _______ _____ _____    ______ ____
ROOT
ATOM      1  C   UNL     1       8.432  14.873  20.680  0.00  0.00    +0.000 C 
ATOM      2  C   UNL     1       9.458  15.889  21.200  0.00  0.00    +0.000 C 
ATOM      3  C   UNL     1       9.798  16.723  19.958  0.00  0.00    +0.000 C 
ATOM      4  C   UNL     1       9.280  15.884  18.809  0.00  0.00    +0.000 C 
ATOM      5  O   UNL     1       9.254  16.218  17.636  0.00  0.00    +0.000 OA
ATOM      6  N   UNL     1       8.943  14.618  19.333  0.00  0.00    +0.000 N 
ATOM      7  C   UNL     1       9.986  13.626  19.274  0.00  0.00    +0.000 A 
ATOM      8  C   UNL     1      11.124  13.801  18.466  0.00  0.00    +0.000 A 
ATOM      9  C   UNL     1      12.255  12.999  18.651  0.00  0.00    +0.000 A 
ATOM     10  C   UNL     1      12.235  11.957  19.576  0.00  0.00    +0.000 A 
ATOM     11  C   UNL     1      11.091  11.712  20.312  0.00  0.00    +0.000 A 
ATOM     12  C   UNL     1       9.986  12.576  20.190  0.00  0.00    +0.000 A 
ATOM     13  C   UNL     1       8.925  12.488  21.202  0.00  0.00    +0.000 C 
ATOM     14  O   UNL     1       8.712  11.431  21.783  0.00  0.00    +0.000 OA
ATOM     15  N   UNL     1       8.309  13.679  21.518  0.00  0.00    +0.000 N 
ATOM     16  C   UNL     1       7.641  13.773  22.803  0.00  0.00    +0.000 C 
ENDROOT
BRANCH   1  18
ATOM     17  N   UNL     1       6.117  14.739  19.753  0.00  0.00    +0.000 N 
ATOM     18  C   UNL     1       6.979  15.500  20.535  0.00  0.00    +0.000 C 
ATOM     19  O   UNL     1       6.688  16.579  21.051  0.00  0.00    +0.000 OA
ATOM     20  H   UNL     1       6.558  14.048  19.150  0.00  0.00    +0.000 HD
BRANCH  17  27
ATOM     21  C   UNL     1       2.837  17.069  16.768  0.00  0.00    +0.000 C 
ATOM     22  C   UNL     1       3.160  16.192  17.945  0.00  0.00    +0.000 A 
ATOM     23  C   UNL     1       2.128  15.664  18.733  0.00  0.00    +0.000 A 
ATOM     24  C   UNL     1       2.426  14.892  19.854  0.00  0.00    +0.000 A 
ATOM     25  C   UNL     1       3.754  14.648  20.184  0.00  0.00    +0.000 A 
ATOM     26  F   UNL     1       4.029  13.899  21.264  0.00  0.00    +0.000 F 
ATOM     27  C   UNL     1       4.804  15.114  19.386  0.00  0.00    +0.000 A 
ATOM     28  C   UNL     1       4.500  15.910  18.277  0.00  0.00    +0.000 A 
ENDBRANCH  17  27
ENDBRANCH   1  18
TORSDOF 2
ENDMDL
MODEL 6
REMARK VINA RESULT:      -6.7      7.879     10.405
REMARK  Name = 
REMARK  4 active torsions:
REMARK  status: ('A' for Active; 'I' for Inactive)
REMARK    1  A    between atoms: C_1  and  C_2
REMARK    2  A    between atoms: C_7  and  N_8
REMARK    3  A    between atoms: C_9  and  C_11
REMARK    4  A    between atoms: N_25  and  C_26
REMARK                            x       y       z     vdW  Elec       q    Type
REMARK                         _______ _______ _______ _____ _____    ______ ____
ROOT
ATOM      1  C   UNL     1      -0.140  11.875  20.219  0.00  0.00    +0.000 C 
ATOM      2  C   UNL     1      -0.093  10.499  20.896  0.00  0.00    +0.000 C 
ATOM      3  C   UNL     1       0.755   9.655  19.935  0.00  0.00    +0.000 C 
ATOM      4  C   UNL     1       0.761  10.464  18.655  0.00  0.00    +0.000 C 
ATOM      5  O   UNL     1       1.404  10.209  17.651  0.00  0.00    +0.000 OA
ATOM      6  N   UNL     1      -0.192  11.494  18.807  0.00  0.00    +0.000 N 
ATOM      7  C   UNL     1      -1.515  11.187  18.325  0.00  0.00    +0.000 A 
ATOM      8  C   UNL     1      -1.756  10.091  17.479  0.00  0.00    +0.000 A 
ATOM      9  C   UNL     1      -3.058   9.624  17.274  0.00  0.00    +0.000 A 
ATOM     10  C   UNL     1      -4.142  10.296  17.835  0.00  0.00    +0.000 A 
ATOM     11  C   UNL     1      -3.930  11.433  18.593  0.00  0.00    +0.000 A 
ATOM     12  C   UNL     1      -2.614  11.848  18.872  0.00  0.00    +0.000 A 
ATOM     13  C   UNL     1      -2.415  12.849  19.928  0.00  0.00    +0.000 C 
ATOM     14  O   UNL     1      -3.294  13.663  20.182  0.00  0.00    +0.000 OA
ATOM     15  N   UNL     1      -1.257  12.711  20.662  0.00  0.00    +0.000 N 
ATOM     16  C   UNL     1      -1.222  13.307  21.985  0.00  0.00    +0.000 C 
ENDROOT
BRANCH   1  18
ATOM     17  N   UNL     1       1.347  13.770  19.560  0.00  0.00    +0.000 N 
ATOM     18  C   UNL     1       1.194  12.708  20.445  0.00  0.00    +0.000 C 
ATOM     19  O   UNL     1       2.011  12.394  21.310  0.00  0.00    +0.000 OA
ATOM     20  H   UNL     1       0.771  13.736  18.721  0.00  0.00    +0.000 HD
BRANCH  17  27
ATOM     21  C   UNL     1       3.945  17.857  20.842  0.00  0.00    +0.000 C 
ATOM     22  C   UNL     1       3.810  16.556  20.101  0.00  0.00    +0.000 A 
ATOM     23  C   UNL     1       4.862  16.091  19.300  0.00  0.00    +0.000 A 
ATOM     24  C   UNL     1       4.721  14.911  18.573  0.00  0.00    +0.000 A 
ATOM     25  C   UNL     1       3.529  14.198  18.649  0.00  0.00    +0.000 A 
ATOM     26  F   UNL     1       3.407  13.060  17.947  0.00  0.00    +0.000 F 
ATOM     27  C   UNL     1       2.483  14.608  19.481  0.00  0.00    +0.000 A 
ATOM     28  C   UNL     1       2.621  15.807  20.190  0.00  0.00    +0.000 A 
ENDBRANCH  17  27
ENDBRANCH   1  18
TORSDOF 2
ENDMDL
MODEL 7
REMARK VINA RESULT:      -6.7      8.886     12.394
REMARK  Name = 
REMARK  4 active torsions:
REMARK  status: ('A' for Active; 'I' for Inactive)
REMARK    1  A    between atoms: C_1  and  C_2
REMARK    2  A    between atoms: C_7  and  N_8
REMARK    3  A    between atoms: C_9  and  C_11
REMARK    4  A    between atoms: N_25  and  C_26
REMARK                            x       y       z     vdW  Elec       q    Type
REMARK                         _______ _______ _______ _____ _____    ______ ____
ROOT
ATOM      1  C   UNL     1      -0.899  12.845  20.461  0.00  0.00    +0.000 C 
ATOM      2  C   UNL     1      -0.286  13.376  21.763  0.00  0.00    +0.000 C 
ATOM      3  C   UNL     1      -0.708  14.851  21.784  0.00  0.00    +0.000 C 
ATOM      4  C   UNL     1      -1.142  15.120  20.359  0.00  0.00    +0.000 C 
ATOM      5  O   UNL     1      -1.650  16.151  19.950  0.00  0.00    +0.000 OA
ATOM      6  N   UNL     1      -0.751  14.008  19.584  0.00  0.00    +0.000 N 
ATOM      7  C   UNL     1       0.542  14.115  18.956  0.00  0.00    +0.000 A 
ATOM      8  C   UNL     1       1.209  15.347  18.850  0.00  0.00    +0.000 A 
ATOM      9  C   UNL     1       2.570  15.393  18.530  0.00  0.00    +0.000 A 
ATOM     10  C   UNL     1       3.260  14.221  18.224  0.00  0.00    +0.000 A 
ATOM     11  C   UNL     1       2.595  13.009  18.232  0.00  0.00    +0.000 A 
ATOM     12  C   UNL     1       1.249  12.955  18.642  0.00  0.00    +0.000 A 
ATOM     13  C   UNL     1       0.672  11.641  18.948  0.00  0.00    +0.000 C 
ATOM     14  O   UNL     1       1.100  10.634  18.397  0.00  0.00    +0.000 OA
ATOM     15  N   UNL     1      -0.261  11.626  19.963  0.00  0.00    +0.000 N 
ATOM     16  C   UNL     1      -0.495  10.367  20.646  0.00  0.00    +0.000 C 
ENDROOT
BRANCH   1  18
ATOM     17  N   UNL     1      -3.122  12.471  19.385  0.00  0.00    +0.000 N 
ATOM     18  C   UNL     1      -2.453  12.542  20.601  0.00  0.00    +0.000 C 
ATOM     19  O   UNL     1      -2.988  12.421  21.703  0.00  0.00    +0.000 OA
ATOM     20  H   UNL     1      -2.639  12.882  18.588  0.00  0.00    +0.000 HD
BRANCH  17  27
ATOM     21  C   UNL     1      -7.865  13.896  20.137  0.00  0.00    +0.000 C 
ATOM     22  C   UNL     1      -6.843  12.979  19.528  0.00  0.00    +0.000 A 
ATOM     23  C   UNL     1      -7.251  11.905  18.724  0.00  0.00    +0.000 A 
ATOM     24  C   UNL     1      -6.309  11.024  18.199  0.00  0.00    +0.000 A 
ATOM     25  C   UNL     1      -4.960  11.217  18.477  0.00  0.00    +0.000 A 
ATOM     26  F   UNL     1      -4.061  10.363  17.962  0.00  0.00    +0.000 F 
ATOM     27  C   UNL     1      -4.517  12.309  19.230  0.00  0.00    +0.000 A 
ATOM     28  C   UNL     1      -5.470  13.177  19.776  0.00  0.00    +0.000 A 
ENDBRANCH  17  27
ENDBRANCH   1  18
TORSDOF 2
ENDMDL
MODEL 8
REMARK VINA RESULT:      -6.5      9.898     13.019
REMARK  Name = 
REMARK  4 active torsions:
REMARK  status: ('A' for Active; 'I' for Inactive)
REMARK    1  A    between atoms: C_1  and  C_2
REMARK    2  A    between atoms: C_7  and  N_8
REMARK    3  A    between atoms: C_9  and  C_11
REMARK    4  A    between atoms: N_25  and  C_26
REMARK                            x       y       z     vdW  Elec       q    Type
REMARK                         _______ _______ _______ _____ _____    ______ ____
ROOT
ATOM      1  C   UNL     1      -3.093  14.466  21.770  0.00  0.00    +0.000 C 
ATOM      2  C   UNL     1      -2.672  15.674  20.924  0.00  0.00    +0.000 C 
ATOM      3  C   UNL     1      -1.199  15.881  21.303  0.00  0.00    +0.000 C 
ATOM      4  C   UNL     1      -1.040  15.079  22.577  0.00  0.00    +0.000 C 
ATOM      5  O   UNL     1       0.007  14.884  23.172  0.00  0.00    +0.000 OA
ATOM      6  N   UNL     1      -2.332  14.700  22.997  0.00  0.00    +0.000 N 
ATOM      7  C   UNL     1      -2.969  15.599  23.926  0.00  0.00    +0.000 A 
ATOM      8  C   UNL     1      -2.242  16.588  24.610  0.00  0.00    +0.000 A 
ATOM      9  C   UNL     1      -2.905  17.638  25.256  0.00  0.00    +0.000 A 
ATOM     10  C   UNL     1      -4.297  17.664  25.306  0.00  0.00    +0.000 A 
ATOM     11  C   UNL     1      -5.027  16.647  24.720  0.00  0.00    +0.000 A 
ATOM     12  C   UNL     1      -4.361  15.642  23.993  0.00  0.00    +0.000 A 
ATOM     13  C   UNL     1      -5.162  14.772  23.123  0.00  0.00    +0.000 C 
ATOM     14  O   UNL     1      -6.338  14.548  23.386  0.00  0.00    +0.000 OA
ATOM     15  N   UNL     1      -4.540  14.359  21.965  0.00  0.00    +0.000 N 
ATOM     16  C   UNL     1      -5.382  13.943  20.858  0.00  0.00    +0.000 C 
ENDROOT
BRANCH   1  18
ATOM     17  N   UNL     1      -2.396  13.135  19.775  0.00  0.00    +0.000 N 
ATOM     18  C   UNL     1      -2.597  13.089  21.150  0.00  0.00    +0.000 C 
ATOM     19  O   UNL     1      -2.449  12.085  21.846  0.00  0.00    +0.000 OA
ATOM     20  H   UNL     1      -2.836  13.912  19.287  0.00  0.00    +0.000 HD
BRANCH  17  27
ATOM     21  C   UNL     1       0.834   9.679  18.126  0.00  0.00    +0.000 C 
ATOM     22  C   UNL     1      -0.534  10.299  18.158  0.00  0.00    +0.000 A 
ATOM     23  C   UNL     1      -1.569   9.760  17.379  0.00  0.00    +0.000 A 
ATOM     24  C   UNL     1      -2.824  10.363  17.368  0.00  0.00    +0.000 A 
ATOM     25  C   UNL     1      -3.045  11.501  18.136  0.00  0.00    +0.000 A 
ATOM     26  F   UNL     1      -4.261  12.071  18.120  0.00  0.00    +0.000 F 
ATOM     27  C   UNL     1      -2.050  12.029  18.964  0.00  0.00    +0.000 A 
ATOM     28  C   UNL     1      -0.783  11.435  18.952  0.00  0.00    +0.000 A 
ENDBRANCH  17  27
ENDBRANCH   1  18
TORSDOF 2
ENDMDL
MODEL 9
REMARK VINA RESULT:      -6.5     10.451     12.316
REMARK  Name = 
REMARK  4 active torsions:
REMARK  status: ('A' for Active; 'I' for Inactive)
REMARK    1  A    between atoms: C_1  and  C_2
REMARK    2  A    between atoms: C_7  and  N_8
REMARK    3  A    between atoms: C_9  and  C_11
REMARK    4  A    between atoms: N_25  and  C_26
REMARK                            x       y       z     vdW  Elec       q    Type
REMARK                         _______ _______ _______ _____ _____    ______ ____
ROOT
ATOM      1  C   UNL     1       8.519  15.074  20.610  0.00  0.00    +0.000 C 
ATOM      2  C   UNL     1       9.580  16.096  21.040  0.00  0.00    +0.000 C 
ATOM      3  C   UNL     1       9.936  16.816  19.733  0.00  0.00    +0.000 C 
ATOM      4  C   UNL     1       9.385  15.902  18.659  0.00  0.00    +0.000 C 
ATOM      5  O   UNL     1       9.361  16.140  17.463  0.00  0.00    +0.000 OA
ATOM      6  N   UNL     1       9.013  14.694  19.286  0.00  0.00    +0.000 N 
ATOM      7  C   UNL     1      10.025  13.669  19.303  0.00  0.00    +0.000 A 
ATOM      8  C   UNL     1      11.161  13.741  18.480  0.00  0.00    +0.000 A 
ATOM      9  C   UNL     1      12.269  12.922  18.724  0.00  0.00    +0.000 A 
ATOM     10  C   UNL     1      12.223  11.961  19.732  0.00  0.00    +0.000 A 
ATOM     11  C   UNL     1      11.077  11.812  20.490  0.00  0.00    +0.000 A 
ATOM     12  C   UNL     1       9.998  12.697  20.303  0.00  0.00    +0.000 A 
ATOM     13  C   UNL     1       8.943  12.725  21.323  0.00  0.00    +0.000 C 
ATOM     14  O   UNL     1       8.701  11.726  21.990  0.00  0.00    +0.000 OA
ATOM     15  N   UNL     1       8.366  13.957  21.543  0.00  0.00    +0.000 N 
ATOM     16  C   UNL     1       7.710  14.176  22.819  0.00  0.00    +0.000 C 
ENDROOT
BRANCH   1  18
ATOM     17  N   UNL     1       6.159  14.890  19.816  0.00  0.00    +0.000 N 
ATOM     18  C   UNL     1       7.085  15.732  20.420  0.00  0.00    +0.000 C 
ATOM     19  O   UNL     1       6.860  16.895  20.756  0.00  0.00    +0.000 OA
ATOM     20  H   UNL     1       6.544  14.088  19.321  0.00  0.00    +0.000 HD
BRANCH  17  27
ATOM     21  C   UNL     1       1.478  16.315  20.891  0.00  0.00    +0.000 C 
ATOM     22  C   UNL     1       2.567  15.992  19.907  0.00  0.00    +0.000 A 
ATOM     23  C   UNL     1       2.319  16.079  18.530  0.00  0.00    +0.000 A 
ATOM     24  C   UNL     1       3.311  15.731  17.616  0.00  0.00    +0.000 A 
ATOM     25  C   UNL     1       4.549  15.300  18.079  0.00  0.00    +0.000 A 
ATOM     26  F   UNL     1       5.499  14.972  17.188  0.00  0.00    +0.000 F 
ATOM     27  C   UNL     1       4.844  15.256  19.445  0.00  0.00    +0.000 A 
ATOM     28  C   UNL     1       3.836  15.581  20.359  0.00  0.00    +0.000 A 
ENDBRANCH  17  27
ENDBRANCH   1  18
TORSDOF 2
ENDMDL
