MODEL 1
REMARK VINA RESULT:      -8.9      0.000      0.000
REMARK  Name = 
REMARK  5 active torsions:
REMARK  status: ('A' for Active; 'I' for Inactive)
REMARK    1  A    between atoms: C_2  and  C_24
REMARK    2  A    between atoms: N_3  and  C_4
REMARK    3  A    between atoms: C_4  and  C_5
REMARK    4  A    between atoms: C_11  and  C_12
REMARK    5  A    between atoms: C_15  and  C_16
REMARK                            x       y       z     vdW  Elec       q    Type
REMARK                         _______ _______ _______ _____ _____    ______ ____
ROOT
ATOM      1  C   UNL     1       1.925   6.552  20.246  0.00  0.00    +0.000 C 
ATOM      2  O   UNL     1       1.252   6.459  21.278  0.00  0.00    +0.000 OA
ATOM      3  N   UNL     1       2.390   5.433  19.568  0.00  0.00    +0.000 N 
ATOM      4  C   UNL     1       1.896   4.111  19.941  0.00  0.00    +0.000 C 
ATOM      5  C   UNL     1       3.036   3.216  20.414  0.00  0.00    +0.000 C 
ATOM      6  C   UNL     1       4.151   3.147  19.372  0.00  0.00    +0.000 C 
ATOM      7  C   UNL     1       4.629   4.553  18.967  0.00  0.00    +0.000 C 
ATOM      8  C   UNL     1       3.441   5.433  18.540  0.00  0.00    +0.000 C 
ENDROOT
BRANCH   7   9
ATOM      9  C   UNL     1       5.655   4.483  17.888  0.00  0.00    +0.000 A 
ATOM     10  N   UNL     1       6.968   4.426  18.135  0.00  0.00    +0.000 NA
ATOM     11  N   UNL     1       7.470   4.390  16.890  0.00  0.00    +0.000 N 
ATOM     12  C   UNL     1       6.486   4.431  15.939  0.00  0.00    +0.000 A 
ATOM     13  N   UNL     1       5.321   4.465  16.559  0.00  0.00    +0.000 NA
ATOM     14  H   UNL     1       8.472   4.325  16.761  0.00  0.00    +0.000 HD
BRANCH  12  15
ATOM     15  C   UNL     1       6.721   4.422  14.498  0.00  0.00    +0.000 A 
ATOM     16  C   UNL     1       7.643   5.321  13.942  0.00  0.00    +0.000 A 
ATOM     17  C   UNL     1       7.906   5.315  12.570  0.00  0.00    +0.000 A 
ATOM     18  C   UNL     1       7.257   4.403  11.741  0.00  0.00    +0.000 A 
ATOM     19  C   UNL     1       6.339   3.504  12.280  0.00  0.00    +0.000 A 
ATOM     20  C   UNL     1       6.070   3.515  13.651  0.00  0.00    +0.000 A 
ENDBRANCH  12  15
ENDBRANCH   7   9
BRANCH   1  21
ATOM     21  C   UNL     1       2.328   7.935  19.735  0.00  0.00    +0.000 C 
BRANCH  21  24
ATOM     22  O   UNL     1       1.600   9.374  17.448  0.00  0.00    +0.000 OA
ATOM     23  C   UNL     1       0.881   9.441  18.440  0.00  0.00    +0.000 C 
ATOM     24  N   UNL     1       1.168   8.800  19.625  0.00  0.00    +0.000 N 
ATOM     25  H   UNL     1       0.433   8.671  20.310  0.00  0.00    +0.000 HD
BRANCH  23  26
ATOM     26  C   UNL     1      -0.386  10.217  18.391  0.00  0.00    +0.000 A 
ATOM     27  C   UNL     1      -1.279   9.975  17.340  0.00  0.00    +0.000 A 
ATOM     28  C   UNL     1      -2.469  10.699  17.247  0.00  0.00    +0.000 A 
ATOM     29  C   UNL     1      -2.765  11.674  18.200  0.00  0.00    +0.000 A 
ATOM     30  C   UNL     1      -1.873  11.929  19.242  0.00  0.00    +0.000 A 
ATOM     31  C   UNL     1      -0.683  11.204  19.340  0.00  0.00    +0.000 A 
ENDBRANCH  23  26
ENDBRANCH  21  24
ENDBRANCH   1  21
TORSDOF 5
ENDMDL
MODEL 2
REMARK VINA RESULT:      -8.6      1.384      1.908
REMARK  Name = 
REMARK  5 active torsions:
REMARK  status: ('A' for Active; 'I' for Inactive)
REMARK    1  A    between atoms: C_2  and  C_24
REMARK    2  A    between atoms: N_3  and  C_4
REMARK    3  A    between atoms: C_4  and  C_5
REMARK    4  A    between atoms: C_11  and  C_12
REMARK    5  A    between atoms: C_15  and  C_16
REMARK                            x       y       z     vdW  Elec       q    Type
REMARK                         _______ _______ _______ _____ _____    ______ ____
ROOT
ATOM      1  C   UNL     1       1.935   6.083  20.309  0.00  0.00    +0.000 C 
ATOM      2  O   UNL     1       1.255   5.879  21.320  0.00  0.00    +0.000 OA
ATOM      3  N   UNL     1       2.411   5.044  19.521  0.00  0.00    +0.000 N 
ATOM      4  C   UNL     1       1.920   3.687  19.748  0.00  0.00    +0.000 C 
ATOM      5  C   UNL     1       3.060   2.752  20.133  0.00  0.00    +0.000 C 
ATOM      6  C   UNL     1       4.184   2.798  19.098  0.00  0.00    +0.000 C 
ATOM      7  C   UNL     1       4.658   4.240  18.848  0.00  0.00    +0.000 C 
ATOM      8  C   UNL     1       3.470   5.157  18.507  0.00  0.00    +0.000 C 
ENDROOT
BRANCH   7   9
ATOM      9  C   UNL     1       5.693   4.289  17.776  0.00  0.00    +0.000 A 
ATOM     10  N   UNL     1       7.004   4.347  18.033  0.00  0.00    +0.000 NA
ATOM     11  N   UNL     1       7.515   4.385  16.792  0.00  0.00    +0.000 N 
ATOM     12  C   UNL     1       6.537   4.356  15.833  0.00  0.00    +0.000 A 
ATOM     13  N   UNL     1       5.371   4.269  16.444  0.00  0.00    +0.000 NA
ATOM     14  H   UNL     1       8.520   4.415  16.669  0.00  0.00    +0.000 HD
BRANCH  12  15
ATOM     15  C   UNL     1       6.780   4.400  14.395  0.00  0.00    +0.000 A 
ATOM     16  C   UNL     1       7.623   5.388  13.865  0.00  0.00    +0.000 A 
ATOM     17  C   UNL     1       7.894   5.437  12.496  0.00  0.00    +0.000 A 
ATOM     18  C   UNL     1       7.333   4.491  11.642  0.00  0.00    +0.000 A 
ATOM     19  C   UNL     1       6.494   3.503  12.154  0.00  0.00    +0.000 A 
ATOM     20  C   UNL     1       6.217   3.458  13.522  0.00  0.00    +0.000 A 
ENDBRANCH  12  15
ENDBRANCH   7   9
BRANCH   1  21
ATOM     21  C   UNL     1       2.335   7.514  19.950  0.00  0.00    +0.000 C 
BRANCH  21  24
ATOM     22  O   UNL     1       0.737   9.537  18.862  0.00  0.00    +0.000 OA
ATOM     23  C   UNL     1       0.780   9.412  20.081  0.00  0.00    +0.000 C 
ATOM     24  N   UNL     1       1.561   8.472  20.717  0.00  0.00    +0.000 N 
ATOM     25  H   UNL     1       1.368   8.236  21.683  0.00  0.00    +0.000 HD
BRANCH  23  26
ATOM     26  C   UNL     1      -0.061  10.278  20.950  0.00  0.00    +0.000 A 
ATOM     27  C   UNL     1      -0.138   9.979  22.316  0.00  0.00    +0.000 A 
ATOM     28  C   UNL     1      -0.935  10.755  23.161  0.00  0.00    +0.000 A 
ATOM     29  C   UNL     1      -1.664  11.825  22.640  0.00  0.00    +0.000 A 
ATOM     30  C   UNL     1      -1.601  12.118  21.277  0.00  0.00    +0.000 A 
ATOM     31  C   UNL     1      -0.802  11.346  20.430  0.00  0.00    +0.000 A 
ENDBRANCH  23  26
ENDBRANCH  21  24
ENDBRANCH   1  21
TORSDOF 5
ENDMDL
MODEL 3
REMARK VINA RESULT:      -8.5      0.843      1.236
REMARK  Name = 
REMARK  5 active torsions:
REMARK  status: ('A' for Active; 'I' for Inactive)
REMARK    1  A    between atoms: C_2  and  C_24
REMARK    2  A    between atoms: N_3  and  C_4
REMARK    3  A    between atoms: C_4  and  C_5
REMARK    4  A    between atoms: C_11  and  C_12
REMARK    5  A    between atoms: C_15  and  C_16
REMARK                            x       y       z     vdW  Elec       q    Type
REMARK                         _______ _______ _______ _____ _____    ______ ____
ROOT
ATOM      1  C   UNL     1       1.814   6.698  20.112  0.00  0.00    +0.000 C 
ATOM      2  O   UNL     1       1.136   6.659  21.144  0.00  0.00    +0.000 OA
ATOM      3  N   UNL     1       2.302   5.546  19.510  0.00  0.00    +0.000 N 
ATOM      4  C   UNL     1       1.827   4.242  19.963  0.00  0.00    +0.000 C 
ATOM      5  C   UNL     1       2.979   3.399  20.499  0.00  0.00    +0.000 C 
ATOM      6  C   UNL     1       4.102   3.283  19.470  0.00  0.00    +0.000 C 
ATOM      7  C   UNL     1       4.560   4.668  18.980  0.00  0.00    +0.000 C 
ATOM      8  C   UNL     1       3.361   5.499  18.490  0.00  0.00    +0.000 C 
ENDROOT
BRANCH   7   9
ATOM      9  C   UNL     1       5.594   4.547  17.914  0.00  0.00    +0.000 A 
ATOM     10  N   UNL     1       6.898   4.412  18.177  0.00  0.00    +0.000 NA
ATOM     11  N   UNL     1       7.414   4.357  16.939  0.00  0.00    +0.000 N 
ATOM     12  C   UNL     1       6.447   4.461  15.975  0.00  0.00    +0.000 A 
ATOM     13  N   UNL     1       5.278   4.558  16.580  0.00  0.00    +0.000 NA
ATOM     14  H   UNL     1       8.413   4.235  16.822  0.00  0.00    +0.000 HD
BRANCH  12  15
ATOM     15  C   UNL     1       6.700   4.450  14.538  0.00  0.00    +0.000 A 
ATOM     16  C   UNL     1       7.636   5.341  13.992  0.00  0.00    +0.000 A 
ATOM     17  C   UNL     1       7.916   5.332  12.624  0.00  0.00    +0.000 A 
ATOM     18  C   UNL     1       7.272   4.425  11.787  0.00  0.00    +0.000 A 
ATOM     19  C   UNL     1       6.340   3.533  12.315  0.00  0.00    +0.000 A 
ATOM     20  C   UNL     1       6.054   3.547  13.682  0.00  0.00    +0.000 A 
ENDBRANCH  12  15
ENDBRANCH   7   9
BRANCH   1  21
ATOM     21  C   UNL     1       2.197   8.053  19.517  0.00  0.00    +0.000 C 
BRANCH  21  24
ATOM     22  O   UNL     1       0.818   9.897  21.106  0.00  0.00    +0.000 OA
ATOM     23  C   UNL     1       0.428   9.699  19.960  0.00  0.00    +0.000 C 
ATOM     24  N   UNL     1       1.015   8.788  19.109  0.00  0.00    +0.000 N 
ATOM     25  H   UNL     1       0.832   8.848  18.115  0.00  0.00    +0.000 HD
BRANCH  23  26
ATOM     26  C   UNL     1      -0.713  10.482  19.414  0.00  0.00    +0.000 A 
ATOM     27  C   UNL     1      -1.293  11.469  20.221  0.00  0.00    +0.000 A 
ATOM     28  C   UNL     1      -2.380  12.210  19.753  0.00  0.00    +0.000 A 
ATOM     29  C   UNL     1      -2.895  11.960  18.480  0.00  0.00    +0.000 A 
ATOM     30  C   UNL     1      -2.329  10.969  17.677  0.00  0.00    +0.000 A 
ATOM     31  C   UNL     1      -1.239  10.228  18.141  0.00  0.00    +0.000 A 
ENDBRANCH  23  26
ENDBRANCH  21  24
ENDBRANCH   1  21
TORSDOF 5
ENDMDL
MODEL 4
REMARK VINA RESULT:      -8.4      1.404      2.020
REMARK  Name = 
REMARK  5 active torsions:
REMARK  status: ('A' for Active; 'I' for Inactive)
REMARK    1  A    between atoms: C_2  and  C_24
REMARK    2  A    between atoms: N_3  and  C_4
REMARK    3  A    between atoms: C_4  and  C_5
REMARK    4  A    between atoms: C_11  and  C_12
REMARK    5  A    between atoms: C_15  and  C_16
REMARK                            x       y       z     vdW  Elec       q    Type
REMARK                         _______ _______ _______ _____ _____    ______ ____
ROOT
ATOM      1  C   UNL     1       1.514   7.813  20.085  0.00  0.00    +0.000 C 
ATOM      2  O   UNL     1       0.984   7.751  21.199  0.00  0.00    +0.000 OA
ATOM      3  N   UNL     1       2.081   6.700  19.478  0.00  0.00    +0.000 N 
ATOM      4  C   UNL     1       1.856   5.376  20.052  0.00  0.00    +0.000 C 
ATOM      5  C   UNL     1       3.173   4.732  20.468  0.00  0.00    +0.000 C 
ATOM      6  C   UNL     1       4.163   4.700  19.304  0.00  0.00    +0.000 C 
ATOM      7  C   UNL     1       4.355   6.099  18.692  0.00  0.00    +0.000 C 
ATOM      8  C   UNL     1       2.998   6.728  18.329  0.00  0.00    +0.000 C 
ENDROOT
BRANCH   7   9
ATOM      9  C   UNL     1       5.253   6.048  17.504  0.00  0.00    +0.000 A 
ATOM     10  N   UNL     1       6.304   6.861  17.351  0.00  0.00    +0.000 NA
ATOM     11  N   UNL     1       6.780   6.458  16.162  0.00  0.00    +0.000 N 
ATOM     12  C   UNL     1       6.030   5.444  15.627  0.00  0.00    +0.000 A 
ATOM     13  N   UNL     1       5.068   5.153  16.482  0.00  0.00    +0.000 NA
ATOM     14  H   UNL     1       7.610   6.897  15.785  0.00  0.00    +0.000 HD
BRANCH  12  15
ATOM     15  C   UNL     1       6.289   4.809  14.338  0.00  0.00    +0.000 A 
ATOM     16  C   UNL     1       5.371   3.881  13.826  0.00  0.00    +0.000 A 
ATOM     17  C   UNL     1       5.582   3.279  12.584  0.00  0.00    +0.000 A 
ATOM     18  C   UNL     1       6.709   3.607  11.834  0.00  0.00    +0.000 A 
ATOM     19  C   UNL     1       7.630   4.527  12.330  0.00  0.00    +0.000 A 
ATOM     20  C   UNL     1       7.423   5.124  13.576  0.00  0.00    +0.000 A 
ENDBRANCH  12  15
ENDBRANCH   7   9
BRANCH   1  21
ATOM     21  C   UNL     1       1.624   9.165  19.380  0.00  0.00    +0.000 C 
BRANCH  21  24
ATOM     22  O   UNL     1      -0.638  10.604  20.178  0.00  0.00    +0.000 OA
ATOM     23  C   UNL     1      -0.595  10.161  19.036  0.00  0.00    +0.000 C 
ATOM     24  N   UNL     1       0.456   9.411  18.556  0.00  0.00    +0.000 N 
ATOM     25  H   UNL     1       0.568   9.295  17.556  0.00  0.00    +0.000 HD
BRANCH  23  26
ATOM     26  C   UNL     1      -1.698  10.451  18.081  0.00  0.00    +0.000 A 
ATOM     27  C   UNL     1      -2.740  11.287  18.498  0.00  0.00    +0.000 A 
ATOM     28  C   UNL     1      -3.805  11.565  17.638  0.00  0.00    +0.000 A 
ATOM     29  C   UNL     1      -3.835  10.999  16.363  0.00  0.00    +0.000 A 
ATOM     30  C   UNL     1      -2.805  10.154  15.947  0.00  0.00    +0.000 A 
ATOM     31  C   UNL     1      -1.736   9.877  16.804  0.00  0.00    +0.000 A 
ENDBRANCH  23  26
ENDBRANCH  21  24
ENDBRANCH   1  21
TORSDOF 5
ENDMDL
MODEL 5
REMARK VINA RESULT:      -8.4      2.477      9.204
REMARK  Name = 
REMARK  5 active torsions:
REMARK  status: ('A' for Active; 'I' for Inactive)
REMARK    1  A    between atoms: C_2  and  C_24
REMARK    2  A    between atoms: N_3  and  C_4
REMARK    3  A    between atoms: C_4  and  C_5
REMARK    4  A    between atoms: C_11  and  C_12
REMARK    5  A    between atoms: C_15  and  C_16
REMARK                            x       y       z     vdW  Elec       q    Type
REMARK                         _______ _______ _______ _____ _____    ______ ____
ROOT
ATOM      1  C   UNL     1       4.805   3.460  19.020  0.00  0.00    +0.000 C 
ATOM      2  O   UNL     1       4.819   2.249  18.778  0.00  0.00    +0.000 OA
ATOM      3  N   UNL     1       3.811   4.043  19.794  0.00  0.00    +0.000 N 
ATOM      4  C   UNL     1       2.882   3.191  20.532  0.00  0.00    +0.000 C 
ATOM      5  C   UNL     1       1.447   3.426  20.075  0.00  0.00    +0.000 C 
ATOM      6  C   UNL     1       1.075   4.905  20.166  0.00  0.00    +0.000 C 
ATOM      7  C   UNL     1       2.088   5.786  19.414  0.00  0.00    +0.000 C 
ATOM      8  C   UNL     1       3.525   5.484  19.874  0.00  0.00    +0.000 C 
ENDROOT
BRANCH   7   9
ATOM      9  C   UNL     1       1.770   7.233  19.578  0.00  0.00    +0.000 A 
ATOM     10  N   UNL     1       2.227   8.177  18.748  0.00  0.00    +0.000 NA
ATOM     11  N   UNL     1       1.702   9.286  19.293  0.00  0.00    +0.000 N 
ATOM     12  C   UNL     1       0.962   9.006  20.412  0.00  0.00    +0.000 A 
ATOM     13  N   UNL     1       0.975   7.699  20.592  0.00  0.00    +0.000 NA
ATOM     14  H   UNL     1       1.870  10.182  18.854  0.00  0.00    +0.000 HD
BRANCH  12  15
ATOM     15  C   UNL     1       0.281  10.005  21.229  0.00  0.00    +0.000 A 
ATOM     16  C   UNL     1      -0.357   9.611  22.415  0.00  0.00    +0.000 A 
ATOM     17  C   UNL     1      -0.993  10.551  23.229  0.00  0.00    +0.000 A 
ATOM     18  C   UNL     1      -0.990  11.897  22.872  0.00  0.00    +0.000 A 
ATOM     19  C   UNL     1      -0.360  12.303  21.697  0.00  0.00    +0.000 A 
ATOM     20  C   UNL     1       0.270  11.362  20.879  0.00  0.00    +0.000 A 
ENDBRANCH  12  15
ENDBRANCH   7   9
BRANCH   1  21
ATOM     21  C   UNL     1       5.864   4.364  18.389  0.00  0.00    +0.000 C 
BRANCH  21  24
ATOM     22  O   UNL     1       7.423   5.872  16.622  0.00  0.00    +0.000 OA
ATOM     23  C   UNL     1       6.709   4.985  16.168  0.00  0.00    +0.000 C 
ATOM     24  N   UNL     1       5.879   4.210  16.947  0.00  0.00    +0.000 N 
ATOM     25  H   UNL     1       5.518   3.339  16.575  0.00  0.00    +0.000 HD
BRANCH  23  26
ATOM     26  C   UNL     1       6.734   4.679  14.712  0.00  0.00    +0.000 A 
ATOM     27  C   UNL     1       5.833   3.731  14.213  0.00  0.00    +0.000 A 
ATOM     28  C   UNL     1       5.841   3.399  12.856  0.00  0.00    +0.000 A 
ATOM     29  C   UNL     1       6.756   4.009  11.998  0.00  0.00    +0.000 A 
ATOM     30  C   UNL     1       7.666   4.945  12.492  0.00  0.00    +0.000 A 
ATOM     31  C   UNL     1       7.659   5.281  13.849  0.00  0.00    +0.000 A 
ENDBRANCH  23  26
ENDBRANCH  21  24
ENDBRANCH   1  21
TORSDOF 5
ENDMDL
MODEL 6
REMARK VINA RESULT:      -8.3      0.743      1.306
REMARK  Name = 
REMARK  5 active torsions:
REMARK  status: ('A' for Active; 'I' for Inactive)
REMARK    1  A    between atoms: C_2  and  C_24
REMARK    2  A    between atoms: N_3  and  C_4
REMARK    3  A    between atoms: C_4  and  C_5
REMARK    4  A    between atoms: C_11  and  C_12
REMARK    5  A    between atoms: C_15  and  C_16
REMARK                            x       y       z     vdW  Elec       q    Type
REMARK                         _______ _______ _______ _____ _____    ______ ____
ROOT
ATOM      1  C   UNL     1       1.861   6.771  19.973  0.00  0.00    +0.000 C 
ATOM      2  O   UNL     1       1.202   6.788  21.018  0.00  0.00    +0.000 OA
ATOM      3  N   UNL     1       2.387   5.595  19.456  0.00  0.00    +0.000 N 
ATOM      4  C   UNL     1       1.976   4.313  20.022  0.00  0.00    +0.000 C 
ATOM      5  C   UNL     1       3.170   3.565  20.602  0.00  0.00    +0.000 C 
ATOM      6  C   UNL     1       4.281   3.411  19.564  0.00  0.00    +0.000 C 
ATOM      7  C   UNL     1       4.671   4.769  18.955  0.00  0.00    +0.000 C 
ATOM      8  C   UNL     1       3.430   5.508  18.423  0.00  0.00    +0.000 C 
ENDROOT
BRANCH   7   9
ATOM      9  C   UNL     1       5.693   4.604  17.882  0.00  0.00    +0.000 A 
ATOM     10  N   UNL     1       6.995   4.437  18.136  0.00  0.00    +0.000 NA
ATOM     11  N   UNL     1       7.498   4.350  16.894  0.00  0.00    +0.000 N 
ATOM     12  C   UNL     1       6.526   4.467  15.937  0.00  0.00    +0.000 A 
ATOM     13  N   UNL     1       5.365   4.605  16.550  0.00  0.00    +0.000 NA
ATOM     14  H   UNL     1       8.492   4.198  16.771  0.00  0.00    +0.000 HD
BRANCH  12  15
ATOM     15  C   UNL     1       6.766   4.429  14.498  0.00  0.00    +0.000 A 
ATOM     16  C   UNL     1       6.040   3.533  13.699  0.00  0.00    +0.000 A 
ATOM     17  C   UNL     1       6.232   3.495  12.316  0.00  0.00    +0.000 A 
ATOM     18  C   UNL     1       7.144   4.359  11.715  0.00  0.00    +0.000 A 
ATOM     19  C   UNL     1       7.872   5.254  12.497  0.00  0.00    +0.000 A 
ATOM     20  C   UNL     1       7.685   5.288  13.881  0.00  0.00    +0.000 A 
ENDBRANCH  12  15
ENDBRANCH   7   9
BRANCH   1  21
ATOM     21  C   UNL     1       2.176   8.087  19.262  0.00  0.00    +0.000 C 
BRANCH  21  24
ATOM     22  O   UNL     1       2.031  10.633  18.110  0.00  0.00    +0.000 OA
ATOM     23  C   UNL     1       1.184  10.311  18.936  0.00  0.00    +0.000 C 
ATOM     24  N   UNL     1       1.186   9.096  19.586  0.00  0.00    +0.000 N 
ATOM     25  H   UNL     1       0.342   8.779  20.048  0.00  0.00    +0.000 HD
BRANCH  23  26
ATOM     26  C   UNL     1       0.065  11.237  19.257  0.00  0.00    +0.000 A 
ATOM     27  C   UNL     1      -1.244  10.825  18.979  0.00  0.00    +0.000 A 
ATOM     28  C   UNL     1      -2.320  11.675  19.245  0.00  0.00    +0.000 A 
ATOM     29  C   UNL     1      -2.088  12.942  19.780  0.00  0.00    +0.000 A 
ATOM     30  C   UNL     1      -0.784  13.363  20.046  0.00  0.00    +0.000 A 
ATOM     31  C   UNL     1       0.294  12.514  19.784  0.00  0.00    +0.000 A 
ENDBRANCH  23  26
ENDBRANCH  21  24
ENDBRANCH   1  21
TORSDOF 5
ENDMDL
MODEL 7
REMARK VINA RESULT:      -8.3      3.215      8.564
REMARK  Name = 
REMARK  5 active torsions:
REMARK  status: ('A' for Active; 'I' for Inactive)
REMARK    1  A    between atoms: C_2  and  C_24
REMARK    2  A    between atoms: N_3  and  C_4
REMARK    3  A    between atoms: C_4  and  C_5
REMARK    4  A    between atoms: C_11  and  C_12
REMARK    5  A    between atoms: C_15  and  C_16
REMARK                            x       y       z     vdW  Elec       q    Type
REMARK                         _______ _______ _______ _____ _____    ______ ____
ROOT
ATOM      1  C   UNL     1       3.838   2.256  18.517  0.00  0.00    +0.000 C 
ATOM      2  O   UNL     1       3.682   1.030  18.502  0.00  0.00    +0.000 OA
ATOM      3  N   UNL     1       3.451   3.032  19.601  0.00  0.00    +0.000 N 
ATOM      4  C   UNL     1       3.059   2.381  20.848  0.00  0.00    +0.000 C 
ATOM      5  C   UNL     1       1.616   2.719  21.208  0.00  0.00    +0.000 C 
ATOM      6  C   UNL     1       1.398   4.231  21.249  0.00  0.00    +0.000 C 
ATOM      7  C   UNL     1       1.853   4.899  19.939  0.00  0.00    +0.000 C 
ATOM      8  C   UNL     1       3.298   4.495  19.592  0.00  0.00    +0.000 C 
ENDROOT
BRANCH   7   9
ATOM      9  C   UNL     1       1.719   6.381  20.016  0.00  0.00    +0.000 A 
ATOM     10  N   UNL     1       2.380   7.214  19.206  0.00  0.00    +0.000 NA
ATOM     11  N   UNL     1       1.958   8.409  19.652  0.00  0.00    +0.000 N 
ATOM     12  C   UNL     1       1.080   8.284  20.696  0.00  0.00    +0.000 A 
ATOM     13  N   UNL     1       0.898   6.997  20.924  0.00  0.00    +0.000 NA
ATOM     14  H   UNL     1       2.288   9.252  19.200  0.00  0.00    +0.000 HD
BRANCH  12  15
ATOM     15  C   UNL     1       0.462   9.403  21.400  0.00  0.00    +0.000 A 
ATOM     16  C   UNL     1       0.613  10.705  20.900  0.00  0.00    +0.000 A 
ATOM     17  C   UNL     1       0.010  11.790  21.540  0.00  0.00    +0.000 A 
ATOM     18  C   UNL     1      -0.761  11.584  22.682  0.00  0.00    +0.000 A 
ATOM     19  C   UNL     1      -0.920  10.296  23.190  0.00  0.00    +0.000 A 
ATOM     20  C   UNL     1      -0.311   9.212  22.554  0.00  0.00    +0.000 A 
ENDBRANCH  12  15
ENDBRANCH   7   9
BRANCH   1  21
ATOM     21  C   UNL     1       4.399   2.956  17.280  0.00  0.00    +0.000 C 
BRANCH  21  24
ATOM     22  O   UNL     1       4.859   5.407  16.011  0.00  0.00    +0.000 OA
ATOM     23  C   UNL     1       5.549   5.106  16.979  0.00  0.00    +0.000 C 
ATOM     24  N   UNL     1       5.427   3.910  17.652  0.00  0.00    +0.000 N 
ATOM     25  H   UNL     1       5.823   3.820  18.580  0.00  0.00    +0.000 HD
BRANCH  23  26
ATOM     26  C   UNL     1       6.558   6.065  17.502  0.00  0.00    +0.000 A 
ATOM     27  C   UNL     1       7.364   5.667  18.576  0.00  0.00    +0.000 A 
ATOM     28  C   UNL     1       8.307   6.548  19.111  0.00  0.00    +0.000 A 
ATOM     29  C   UNL     1       8.441   7.830  18.579  0.00  0.00    +0.000 A 
ATOM     30  C   UNL     1       7.631   8.236  17.517  0.00  0.00    +0.000 A 
ATOM     31  C   UNL     1       6.688   7.357  16.978  0.00  0.00    +0.000 A 
ENDBRANCH  23  26
ENDBRANCH  21  24
ENDBRANCH   1  21
TORSDOF 5
ENDMDL
MODEL 8
REMARK VINA RESULT:      -8.3      2.433      9.308
REMARK  Name = 
REMARK  5 active torsions:
REMARK  status: ('A' for Active; 'I' for Inactive)
REMARK    1  A    between atoms: C_2  and  C_24
REMARK    2  A    between atoms: N_3  and  C_4
REMARK    3  A    between atoms: C_4  and  C_5
REMARK    4  A    between atoms: C_11  and  C_12
REMARK    5  A    between atoms: C_15  and  C_16
REMARK                            x       y       z     vdW  Elec       q    Type
REMARK                         _______ _______ _______ _____ _____    ______ ____
ROOT
ATOM      1  C   UNL     1       5.013   3.925  18.936  0.00  0.00    +0.000 C 
ATOM      2  O   UNL     1       5.092   2.707  18.742  0.00  0.00    +0.000 OA
ATOM      3  N   UNL     1       4.057   4.474  19.780  0.00  0.00    +0.000 N 
ATOM      4  C   UNL     1       3.266   3.596  20.637  0.00  0.00    +0.000 C 
ATOM      5  C   UNL     1       1.781   3.712  20.313  0.00  0.00    +0.000 C 
ATOM      6  C   UNL     1       1.314   5.165  20.381  0.00  0.00    +0.000 C 
ATOM      7  C   UNL     1       2.186   6.077  19.499  0.00  0.00    +0.000 C 
ATOM      8  C   UNL     1       3.678   5.894  19.830  0.00  0.00    +0.000 C 
ENDROOT
BRANCH   7   9
ATOM      9  C   UNL     1       1.781   7.505  19.636  0.00  0.00    +0.000 A 
ATOM     10  N   UNL     1       2.124   8.446  18.750  0.00  0.00    +0.000 NA
ATOM     11  N   UNL     1       1.558   9.537  19.291  0.00  0.00    +0.000 N 
ATOM     12  C   UNL     1       0.907   9.251  20.461  0.00  0.00    +0.000 A 
ATOM     13  N   UNL     1       1.018   7.954  20.683  0.00  0.00    +0.000 NA
ATOM     14  H   UNL     1       1.639  10.426  18.814  0.00  0.00    +0.000 HD
BRANCH  12  15
ATOM     15  C   UNL     1       0.209  10.232  21.287  0.00  0.00    +0.000 A 
ATOM     16  C   UNL     1       0.075  11.551  20.830  0.00  0.00    +0.000 A 
ATOM     17  C   UNL     1      -0.610  12.502  21.589  0.00  0.00    +0.000 A 
ATOM     18  C   UNL     1      -1.179  12.143  22.807  0.00  0.00    +0.000 A 
ATOM     19  C   UNL     1      -1.055  10.835  23.274  0.00  0.00    +0.000 A 
ATOM     20  C   UNL     1      -0.362   9.885  22.519  0.00  0.00    +0.000 A 
ENDBRANCH  12  15
ENDBRANCH   7   9
BRANCH   1  21
ATOM     21  C   UNL     1       5.941   4.868  18.170  0.00  0.00    +0.000 C 
BRANCH  21  24
ATOM     22  O   UNL     1       7.530   6.121  16.238  0.00  0.00    +0.000 OA
ATOM     23  C   UNL     1       6.794   5.205  15.891  0.00  0.00    +0.000 C 
ATOM     24  N   UNL     1       5.948   4.546  16.756  0.00  0.00    +0.000 N 
ATOM     25  H   UNL     1       5.566   3.647  16.488  0.00  0.00    +0.000 HD
BRANCH  23  26
ATOM     26  C   UNL     1       6.808   4.730  14.481  0.00  0.00    +0.000 A 
ATOM     27  C   UNL     1       7.700   5.328  13.583  0.00  0.00    +0.000 A 
ATOM     28  C   UNL     1       7.727   4.926  12.246  0.00  0.00    +0.000 A 
ATOM     29  C   UNL     1       6.856   3.931  11.802  0.00  0.00    +0.000 A 
ATOM     30  C   UNL     1       5.955   3.341  12.690  0.00  0.00    +0.000 A 
ATOM     31  C   UNL     1       5.928   3.739  14.029  0.00  0.00    +0.000 A 
ENDBRANCH  23  26
ENDBRANCH  21  24
ENDBRANCH   1  21
TORSDOF 5
ENDMDL
MODEL 9
REMARK VINA RESULT:      -8.2      1.145      1.375
REMARK  Name = 
REMARK  5 active torsions:
REMARK  status: ('A' for Active; 'I' for Inactive)
REMARK    1  A    between atoms: C_2  and  C_24
REMARK    2  A    between atoms: N_3  and  C_4
REMARK    3  A    between atoms: C_4  and  C_5
REMARK    4  A    between atoms: C_11  and  C_12
REMARK    5  A    between atoms: C_15  and  C_16
REMARK                            x       y       z     vdW  Elec       q    Type
REMARK                         _______ _______ _______ _____ _____    ______ ____
ROOT
ATOM      1  C   UNL     1       1.705   6.758  20.292  0.00  0.00    +0.000 C 
ATOM      2  O   UNL     1       1.028   6.719  21.325  0.00  0.00    +0.000 OA
ATOM      3  N   UNL     1       2.169   5.604  19.673  0.00  0.00    +0.000 N 
ATOM      4  C   UNL     1       1.668   4.304  20.110  0.00  0.00    +0.000 C 
ATOM      5  C   UNL     1       2.803   3.431  20.633  0.00  0.00    +0.000 C 
ATOM      6  C   UNL     1       3.923   3.306  19.600  0.00  0.00    +0.000 C 
ATOM      7  C   UNL     1       4.407   4.688  19.127  0.00  0.00    +0.000 C 
ATOM      8  C   UNL     1       3.224   5.549  18.651  0.00  0.00    +0.000 C 
ENDROOT
BRANCH   7   9
ATOM      9  C   UNL     1       5.438   4.560  18.058  0.00  0.00    +0.000 A 
ATOM     10  N   UNL     1       6.746   4.464  18.316  0.00  0.00    +0.000 NA
ATOM     11  N   UNL     1       7.255   4.385  17.075  0.00  0.00    +0.000 N 
ATOM     12  C   UNL     1       6.279   4.438  16.116  0.00  0.00    +0.000 A 
ATOM     13  N   UNL     1       5.112   4.524  16.726  0.00  0.00    +0.000 NA
ATOM     14  H   UNL     1       8.255   4.284  16.955  0.00  0.00    +0.000 HD
BRANCH  12  15
ATOM     15  C   UNL     1       6.523   4.391  14.678  0.00  0.00    +0.000 A 
ATOM     16  C   UNL     1       7.513   5.210  14.116  0.00  0.00    +0.000 A 
ATOM     17  C   UNL     1       7.785   5.164  12.747  0.00  0.00    +0.000 A 
ATOM     18  C   UNL     1       7.076   4.291  11.925  0.00  0.00    +0.000 A 
ATOM     19  C   UNL     1       6.090   3.471  12.470  0.00  0.00    +0.000 A 
ATOM     20  C   UNL     1       5.813   3.521  13.838  0.00  0.00    +0.000 A 
ENDBRANCH  12  15
ENDBRANCH   7   9
BRANCH   1  21
ATOM     21  C   UNL     1       2.114   8.112  19.713  0.00  0.00    +0.000 C 
BRANCH  21  24
ATOM     22  O   UNL     1       1.425   9.937  21.719  0.00  0.00    +0.000 OA
ATOM     23  C   UNL     1       0.746   9.900  20.699  0.00  0.00    +0.000 C 
ATOM     24  N   UNL     1       0.980   9.015  19.668  0.00  0.00    +0.000 N 
ATOM     25  H   UNL     1       0.571   9.194  18.759  0.00  0.00    +0.000 HD
BRANCH  23  26
ATOM     26  C   UNL     1      -0.375  10.860  20.512  0.00  0.00    +0.000 A 
ATOM     27  C   UNL     1      -0.948  10.978  19.241  0.00  0.00    +0.000 A 
ATOM     28  C   UNL     1      -1.988  11.884  19.020  0.00  0.00    +0.000 A 
ATOM     29  C   UNL     1      -2.449  12.681  20.068  0.00  0.00    +0.000 A 
ATOM     30  C   UNL     1      -1.871  12.577  21.334  0.00  0.00    +0.000 A 
ATOM     31  C   UNL     1      -0.833  11.668  21.559  0.00  0.00    +0.000 A 
ENDBRANCH  23  26
ENDBRANCH  21  24
ENDBRANCH   1  21
TORSDOF 5
ENDMDL
