MODEL 1
REMARK VINA RESULT:      -7.3      0.000      0.000
REMARK  Name = 
REMARK  4 active torsions:
REMARK  status: ('A' for Active; 'I' for Inactive)
REMARK    1  A    between atoms: C_1  and  C_2
REMARK    2  A    between atoms: C_4  and  C_5
REMARK    3  A    between atoms: C_20  and  C_21
REMARK    4  A    between atoms: N_23  and  C_24
REMARK                            x       y       z     vdW  Elec       q    Type
REMARK                         _______ _______ _______ _____ _____    ______ ____
ROOT
ATOM      1  C   UNL     1       4.241   5.641  19.203  0.00  0.00    +0.000 C 
ATOM      2  O   UNL     1       4.629   4.946  20.147  0.00  0.00    +0.000 OA
ATOM      3  N   UNL     1       2.891   6.029  19.135  0.00  0.00    +0.000 N 
ATOM      4  C   UNL     1       1.928   5.569  20.146  0.00  0.00    +0.000 C 
ATOM      5  C   UNL     1       1.420   6.723  21.028  0.00  0.00    +0.000 C 
ATOM      6  C   UNL     1       1.198   8.023  20.270  0.00  0.00    +0.000 A 
ATOM      7  C   UNL     1       0.536   9.121  20.855  0.00  0.00    +0.000 A 
ATOM      8 CL   UNL     1      -0.367   8.969  22.319  0.00  0.00    +0.000 Cl
ATOM      9  C   UNL     1       0.572  10.376  20.247  0.00  0.00    +0.000 A 
ATOM     10  C   UNL     1       1.277  10.539  19.065  0.00  0.00    +0.000 A 
ATOM     11  F   UNL     1       1.369  11.756  18.513  0.00  0.00    +0.000 F 
ATOM     12  C   UNL     1       1.867   9.458  18.423  0.00  0.00    +0.000 A 
ATOM     13  C   UNL     1       1.802   8.184  18.994  0.00  0.00    +0.000 A 
ATOM     14  C   UNL     1       2.291   6.977  18.223  0.00  0.00    +0.000 C 
ENDROOT
BRANCH   1  18
ATOM     15  C   UNL     1       8.280   8.296  17.492  0.00  0.00    +0.000 C 
ATOM     16  C   UNL     1       7.252   7.208  17.373  0.00  0.00    +0.000 A 
ATOM     17  C   UNL     1       6.284   6.968  18.358  0.00  0.00    +0.000 A 
ATOM     18  C   UNL     1       5.280   5.990  18.169  0.00  0.00    +0.000 A 
ATOM     19  C   UNL     1       5.380   5.217  16.972  0.00  0.00    +0.000 A 
ATOM     20  C   UNL     1       4.714   4.160  16.276  0.00  0.00    +0.000 A 
ATOM     21  C   UNL     1       3.458   3.432  16.580  0.00  0.00    +0.000 C 
ATOM     22  N   UNL     1       5.359   3.790  15.150  0.00  0.00    +0.000 NA
ATOM     23  N   UNL     1       6.414   4.614  15.100  0.00  0.00    +0.000 N 
ATOM     24  C   UNL     1       7.381   4.503  14.034  0.00  0.00    +0.000 C 
ATOM     25  C   UNL     1       6.451   5.510  16.127  0.00  0.00    +0.000 A 
ATOM     26  N   UNL     1       7.371   6.482  16.252  0.00  0.00    +0.000 NA
ENDBRANCH   1  18
TORSDOF 1
ENDMDL
MODEL 2
REMARK VINA RESULT:      -7.0      7.201     10.908
REMARK  Name = 
REMARK  4 active torsions:
REMARK  status: ('A' for Active; 'I' for Inactive)
REMARK    1  A    between atoms: C_1  and  C_2
REMARK    2  A    between atoms: C_4  and  C_5
REMARK    3  A    between atoms: C_20  and  C_21
REMARK    4  A    between atoms: N_23  and  C_24
REMARK                            x       y       z     vdW  Elec       q    Type
REMARK                         _______ _______ _______ _____ _____    ______ ____
ROOT
ATOM      1  C   UNL     1      -0.046  14.355  21.728  0.00  0.00    +0.000 C 
ATOM      2  O   UNL     1       0.944  14.421  22.461  0.00  0.00    +0.000 OA
ATOM      3  N   UNL     1       0.111  14.002  20.376  0.00  0.00    +0.000 N 
ATOM      4  C   UNL     1       1.450  13.764  19.817  0.00  0.00    +0.000 C 
ATOM      5  C   UNL     1       1.662  12.289  19.433  0.00  0.00    +0.000 C 
ATOM      6  C   UNL     1       0.432  11.628  18.828  0.00  0.00    +0.000 A 
ATOM      7  C   UNL     1       0.493  10.358  18.222  0.00  0.00    +0.000 A 
ATOM      8 CL   UNL     1       1.996   9.614  17.808  0.00  0.00    +0.000 Cl
ATOM      9  C   UNL     1      -0.676   9.664  17.910  0.00  0.00    +0.000 A 
ATOM     10  C   UNL     1      -1.904  10.230  18.216  0.00  0.00    +0.000 A 
ATOM     11  F   UNL     1      -3.027   9.540  17.981  0.00  0.00    +0.000 F 
ATOM     12  C   UNL     1      -1.996  11.515  18.737  0.00  0.00    +0.000 A 
ATOM     13  C   UNL     1      -0.835  12.243  19.012  0.00  0.00    +0.000 A 
ATOM     14  C   UNL     1      -0.927  13.699  19.416  0.00  0.00    +0.000 C 
ENDROOT
BRANCH   1  18
ATOM     15  C   UNL     1      -3.762  17.626  23.065  0.00  0.00    +0.000 C 
ATOM     16  C   UNL     1      -3.176  16.249  22.949  0.00  0.00    +0.000 A 
ATOM     17  C   UNL     1      -1.919  16.004  22.380  0.00  0.00    +0.000 A 
ATOM     18  C   UNL     1      -1.366  14.702  22.367  0.00  0.00    +0.000 A 
ATOM     19  C   UNL     1      -2.204  13.664  22.877  0.00  0.00    +0.000 A 
ATOM     20  C   UNL     1      -2.205  12.253  23.108  0.00  0.00    +0.000 A 
ATOM     21  C   UNL     1      -1.144  11.234  22.921  0.00  0.00    +0.000 C 
ATOM     22  N   UNL     1      -3.385  11.803  23.584  0.00  0.00    +0.000 NA
ATOM     23  N   UNL     1      -4.131  12.910  23.688  0.00  0.00    +0.000 N 
ATOM     24  C   UNL     1      -5.500  12.833  24.140  0.00  0.00    +0.000 C 
ATOM     25  C   UNL     1      -3.468  14.047  23.328  0.00  0.00    +0.000 A 
ATOM     26  N   UNL     1      -3.984  15.285  23.417  0.00  0.00    +0.000 NA
ENDBRANCH   1  18
TORSDOF 1
ENDMDL
MODEL 3
REMARK VINA RESULT:      -6.7      7.772     12.551
REMARK  Name = 
REMARK  4 active torsions:
REMARK  status: ('A' for Active; 'I' for Inactive)
REMARK    1  A    between atoms: C_1  and  C_2
REMARK    2  A    between atoms: C_4  and  C_5
REMARK    3  A    between atoms: C_20  and  C_21
REMARK    4  A    between atoms: N_23  and  C_24
REMARK                            x       y       z     vdW  Elec       q    Type
REMARK                         _______ _______ _______ _____ _____    ______ ____
ROOT
ATOM      1  C   UNL     1      -3.619  12.613  23.051  0.00  0.00    +0.000 C 
ATOM      2  O   UNL     1      -3.764  12.015  24.121  0.00  0.00    +0.000 OA
ATOM      3  N   UNL     1      -2.356  12.634  22.432  0.00  0.00    +0.000 N 
ATOM      4  C   UNL     1      -1.197  11.999  23.076  0.00  0.00    +0.000 C 
ATOM      5  C   UNL     1      -0.707  10.766  22.296  0.00  0.00    +0.000 C 
ATOM      6  C   UNL     1      -0.772  10.928  20.785  0.00  0.00    +0.000 A 
ATOM      7  C   UNL     1      -0.172   9.999  19.912  0.00  0.00    +0.000 A 
ATOM      8 CL   UNL     1       0.960   8.820  20.469  0.00  0.00    +0.000 Cl
ATOM      9  C   UNL     1      -0.460  10.022  18.547  0.00  0.00    +0.000 A 
ATOM     10  C   UNL     1      -1.356  10.959  18.057  0.00  0.00    +0.000 A 
ATOM     11  F   UNL     1      -1.686  10.942  16.759  0.00  0.00    +0.000 F 
ATOM     12  C   UNL     1      -1.897  11.938  18.880  0.00  0.00    +0.000 A 
ATOM     13  C   UNL     1      -1.584  11.960  20.242  0.00  0.00    +0.000 A 
ATOM     14  C   UNL     1      -2.030  13.117  21.108  0.00  0.00    +0.000 C 
ENDROOT
BRANCH   1  18
ATOM     15  C   UNL     1      -7.768  12.902  20.053  0.00  0.00    +0.000 C 
ATOM     16  C   UNL     1      -6.864  13.424  21.131  0.00  0.00    +0.000 A 
ATOM     17  C   UNL     1      -5.714  12.742  21.553  0.00  0.00    +0.000 A 
ATOM     18  C   UNL     1      -4.842  13.309  22.512  0.00  0.00    +0.000 A 
ATOM     19  C   UNL     1      -5.259  14.553  23.076  0.00  0.00    +0.000 A 
ATOM     20  C   UNL     1      -4.836  15.539  24.021  0.00  0.00    +0.000 A 
ATOM     21  C   UNL     1      -3.592  15.653  24.820  0.00  0.00    +0.000 C 
ATOM     22  N   UNL     1      -5.742  16.526  24.186  0.00  0.00    +0.000 NA
ATOM     23  N   UNL     1      -6.727  16.201  23.339  0.00  0.00    +0.000 N 
ATOM     24  C   UNL     1      -7.916  17.014  23.251  0.00  0.00    +0.000 C 
ATOM     25  C   UNL     1      -6.474  15.068  22.622  0.00  0.00    +0.000 A 
ATOM     26  N   UNL     1      -7.280  14.584  21.662  0.00  0.00    +0.000 NA
ENDBRANCH   1  18
TORSDOF 1
ENDMDL
MODEL 4
REMARK VINA RESULT:      -6.6      7.354     11.858
REMARK  Name = 
REMARK  4 active torsions:
REMARK  status: ('A' for Active; 'I' for Inactive)
REMARK    1  A    between atoms: C_1  and  C_2
REMARK    2  A    between atoms: C_4  and  C_5
REMARK    3  A    between atoms: C_20  and  C_21
REMARK    4  A    between atoms: N_23  and  C_24
REMARK                            x       y       z     vdW  Elec       q    Type
REMARK                         _______ _______ _______ _____ _____    ______ ____
ROOT
ATOM      1  C   UNL     1      -3.926  12.733  22.010  0.00  0.00    +0.000 C 
ATOM      2  O   UNL     1      -4.458  12.413  23.076  0.00  0.00    +0.000 OA
ATOM      3  N   UNL     1      -2.524  12.742  21.908  0.00  0.00    +0.000 N 
ATOM      4  C   UNL     1      -1.686  12.429  23.075  0.00  0.00    +0.000 C 
ATOM      5  C   UNL     1      -0.924  11.103  22.900  0.00  0.00    +0.000 C 
ATOM      6  C   UNL     1      -0.415  10.869  21.486  0.00  0.00    +0.000 A 
ATOM      7  C   UNL     1       0.482   9.826  21.182  0.00  0.00    +0.000 A 
ATOM      8 CL   UNL     1       1.333   8.965  22.414  0.00  0.00    +0.000 Cl
ATOM      9  C   UNL     1       0.731   9.468  19.857  0.00  0.00    +0.000 A 
ATOM     10  C   UNL     1       0.076  10.141  18.837  0.00  0.00    +0.000 A 
ATOM     11  F   UNL     1       0.261   9.758  17.567  0.00  0.00    +0.000 F 
ATOM     12  C   UNL     1      -0.748  11.228  19.103  0.00  0.00    +0.000 A 
ATOM     13  C   UNL     1      -0.972  11.629  20.423  0.00  0.00    +0.000 A 
ATOM     14  C   UNL     1      -1.726  12.909  20.712  0.00  0.00    +0.000 C 
ENDROOT
BRANCH   1  18
ATOM     15  C   UNL     1      -6.966  11.694  18.014  0.00  0.00    +0.000 C 
ATOM     16  C   UNL     1      -6.370  12.626  19.029  0.00  0.00    +0.000 A 
ATOM     17  C   UNL     1      -5.467  12.199  20.013  0.00  0.00    +0.000 A 
ATOM     18  C   UNL     1      -4.862  13.124  20.896  0.00  0.00    +0.000 A 
ATOM     19  C   UNL     1      -5.301  14.478  20.778  0.00  0.00    +0.000 A 
ATOM     20  C   UNL     1      -5.077  15.769  21.349  0.00  0.00    +0.000 A 
ATOM     21  C   UNL     1      -4.116  16.225  22.382  0.00  0.00    +0.000 C 
ATOM     22  N   UNL     1      -5.889  16.716  20.832  0.00  0.00    +0.000 NA
ATOM     23  N   UNL     1      -6.611  16.054  19.918  0.00  0.00    +0.000 N 
ATOM     24  C   UNL     1      -7.635  16.733  19.160  0.00  0.00    +0.000 C 
ATOM     25  C   UNL     1      -6.273  14.737  19.810  0.00  0.00    +0.000 A 
ATOM     26  N   UNL     1      -6.806  13.889  18.914  0.00  0.00    +0.000 NA
ENDBRANCH   1  18
TORSDOF 1
ENDMDL
MODEL 5
REMARK VINA RESULT:      -6.6      8.768     10.763
REMARK  Name = 
REMARK  4 active torsions:
REMARK  status: ('A' for Active; 'I' for Inactive)
REMARK    1  A    between atoms: C_1  and  C_2
REMARK    2  A    between atoms: C_4  and  C_5
REMARK    3  A    between atoms: C_20  and  C_21
REMARK    4  A    between atoms: N_23  and  C_24
REMARK                            x       y       z     vdW  Elec       q    Type
REMARK                         _______ _______ _______ _____ _____    ______ ____
ROOT
ATOM      1  C   UNL     1      -0.089  12.947  21.679  0.00  0.00    +0.000 C 
ATOM      2  O   UNL     1       0.617  11.938  21.596  0.00  0.00    +0.000 OA
ATOM      3  N   UNL     1       0.498  14.218  21.553  0.00  0.00    +0.000 N 
ATOM      4  C   UNL     1       1.951  14.357  21.377  0.00  0.00    +0.000 C 
ATOM      5  C   UNL     1       2.316  14.894  19.982  0.00  0.00    +0.000 C 
ATOM      6  C   UNL     1       1.360  15.958  19.463  0.00  0.00    +0.000 A 
ATOM      7  C   UNL     1       1.646  16.716  18.311  0.00  0.00    +0.000 A 
ATOM      8 CL   UNL     1       3.223  16.751  17.608  0.00  0.00    +0.000 Cl
ATOM      9  C   UNL     1       0.655  17.492  17.708  0.00  0.00    +0.000 A 
ATOM     10  C   UNL     1      -0.622  17.500  18.246  0.00  0.00    +0.000 A 
ATOM     11  F   UNL     1      -1.593  18.190  17.633  0.00  0.00    +0.000 F 
ATOM     12  C   UNL     1      -0.911  16.829  19.428  0.00  0.00    +0.000 A 
ATOM     13  C   UNL     1       0.082  16.084  20.071  0.00  0.00    +0.000 A 
ATOM     14  C   UNL     1      -0.175  15.494  21.440  0.00  0.00    +0.000 C 
ENDROOT
BRANCH   1  18
ATOM     15  C   UNL     1      -4.186  12.643  24.747  0.00  0.00    +0.000 C 
ATOM     16  C   UNL     1      -3.527  12.629  23.399  0.00  0.00    +0.000 A 
ATOM     17  C   UNL     1      -2.148  12.814  23.227  0.00  0.00    +0.000 A 
ATOM     18  C   UNL     1      -1.553  12.709  21.948  0.00  0.00    +0.000 A 
ATOM     19  C   UNL     1      -2.452  12.501  20.858  0.00  0.00    +0.000 A 
ATOM     20  C   UNL     1      -2.451  12.329  19.438  0.00  0.00    +0.000 A 
ATOM     21  C   UNL     1      -1.333  12.231  18.468  0.00  0.00    +0.000 C 
ATOM     22  N   UNL     1      -3.695  12.233  18.924  0.00  0.00    +0.000 NA
ATOM     23  N   UNL     1      -4.492  12.313  19.997  0.00  0.00    +0.000 N 
ATOM     24  C   UNL     1      -5.928  12.283  19.849  0.00  0.00    +0.000 C 
ATOM     25  C   UNL     1      -3.809  12.426  21.173  0.00  0.00    +0.000 A 
ATOM     26  N   UNL     1      -4.387  12.450  22.385  0.00  0.00    +0.000 NA
ENDBRANCH   1  18
TORSDOF 1
ENDMDL
MODEL 6
REMARK VINA RESULT:      -6.6      7.726     10.724
REMARK  Name = 
REMARK  4 active torsions:
REMARK  status: ('A' for Active; 'I' for Inactive)
REMARK    1  A    between atoms: C_1  and  C_2
REMARK    2  A    between atoms: C_4  and  C_5
REMARK    3  A    between atoms: C_20  and  C_21
REMARK    4  A    between atoms: N_23  and  C_24
REMARK                            x       y       z     vdW  Elec       q    Type
REMARK                         _______ _______ _______ _____ _____    ______ ____
ROOT
ATOM      1  C   UNL     1       7.282  16.163  19.881  0.00  0.00    +0.000 C 
ATOM      2  O   UNL     1       7.578  16.841  20.869  0.00  0.00    +0.000 OA
ATOM      3  N   UNL     1       8.301  15.616  19.082  0.00  0.00    +0.000 N 
ATOM      4  C   UNL     1       9.714  15.889  19.381  0.00  0.00    +0.000 C 
ATOM      5  C   UNL     1      10.459  14.628  19.852  0.00  0.00    +0.000 C 
ATOM      6  C   UNL     1      10.045  13.360  19.120  0.00  0.00    +0.000 A 
ATOM      7  C   UNL     1      10.761  12.155  19.259  0.00  0.00    +0.000 A 
ATOM      8 CL   UNL     1      12.332  12.102  19.974  0.00  0.00    +0.000 Cl
ATOM      9  C   UNL     1      10.224  10.954  18.795  0.00  0.00    +0.000 A 
ATOM     10  C   UNL     1       8.970  10.954  18.205  0.00  0.00    +0.000 A 
ATOM     11  F   UNL     1       8.422   9.795  17.818  0.00  0.00    +0.000 F 
ATOM     12  C   UNL     1       8.279  12.138  17.980  0.00  0.00    +0.000 A 
ATOM     13  C   UNL     1       8.823  13.356  18.397  0.00  0.00    +0.000 A 
ATOM     14  C   UNL     1       8.162  14.659  18.006  0.00  0.00    +0.000 C 
ENDROOT
BRANCH   1  18
ATOM     15  C   UNL     1       3.044  16.961  17.106  0.00  0.00    +0.000 C 
ATOM     16  C   UNL     1       3.793  16.332  18.245  0.00  0.00    +0.000 A 
ATOM     17  C   UNL     1       5.159  16.554  18.470  0.00  0.00    +0.000 A 
ATOM     18  C   UNL     1       5.809  16.011  19.603  0.00  0.00    +0.000 A 
ATOM     19  C   UNL     1       5.013  15.160  20.429  0.00  0.00    +0.000 A 
ATOM     20  C   UNL     1       5.100  14.375  21.621  0.00  0.00    +0.000 A 
ATOM     21  C   UNL     1       6.207  14.198  22.593  0.00  0.00    +0.000 C 
ATOM     22  N   UNL     1       3.963  13.698  21.885  0.00  0.00    +0.000 NA
ATOM     23  N   UNL     1       3.138  14.060  20.893  0.00  0.00    +0.000 N 
ATOM     24  C   UNL     1       1.808  13.507  20.807  0.00  0.00    +0.000 C 
ATOM     25  C   UNL     1       3.691  14.959  20.029  0.00  0.00    +0.000 A 
ATOM     26  N   UNL     1       3.035  15.522  19.000  0.00  0.00    +0.000 NA
ENDBRANCH   1  18
TORSDOF 1
ENDMDL
MODEL 7
REMARK VINA RESULT:      -6.5      8.379     10.440
REMARK  Name = 
REMARK  4 active torsions:
REMARK  status: ('A' for Active; 'I' for Inactive)
REMARK    1  A    between atoms: C_1  and  C_2
REMARK    2  A    between atoms: C_4  and  C_5
REMARK    3  A    between atoms: C_20  and  C_21
REMARK    4  A    between atoms: N_23  and  C_24
REMARK                            x       y       z     vdW  Elec       q    Type
REMARK                         _______ _______ _______ _____ _____    ______ ____
ROOT
ATOM      1  C   UNL     1      -1.223  13.106  19.618  0.00  0.00    +0.000 C 
ATOM      2  O   UNL     1      -0.722  14.051  19.002  0.00  0.00    +0.000 OA
ATOM      3  N   UNL     1      -0.865  12.883  20.959  0.00  0.00    +0.000 N 
ATOM      4  C   UNL     1       0.140  13.732  21.617  0.00  0.00    +0.000 C 
ATOM      5  C   UNL     1      -0.476  14.603  22.725  0.00  0.00    +0.000 C 
ATOM      6  C   UNL     1      -1.554  13.897  23.534  0.00  0.00    +0.000 A 
ATOM      7  C   UNL     1      -2.077  14.453  24.719  0.00  0.00    +0.000 A 
ATOM      8 CL   UNL     1      -1.312  15.775  25.524  0.00  0.00    +0.000 Cl
ATOM      9  C   UNL     1      -3.232  13.927  25.298  0.00  0.00    +0.000 A 
ATOM     10  C   UNL     1      -3.872  12.859  24.689  0.00  0.00    +0.000 A 
ATOM     11  F   UNL     1      -5.018  12.394  25.205  0.00  0.00    +0.000 F 
ATOM     12  C   UNL     1      -3.333  12.239  23.569  0.00  0.00    +0.000 A 
ATOM     13  C   UNL     1      -2.151  12.723  23.002  0.00  0.00    +0.000 A 
ATOM     14  C   UNL     1      -1.468  11.956  21.892  0.00  0.00    +0.000 C 
ENDROOT
BRANCH   1  18
ATOM     15  C   UNL     1      -2.320   9.449  16.196  0.00  0.00    +0.000 C 
ATOM     16  C   UNL     1      -2.703  10.444  17.252  0.00  0.00    +0.000 A 
ATOM     17  C   UNL     1      -1.765  11.253  17.909  0.00  0.00    +0.000 A 
ATOM     18  C   UNL     1      -2.175  12.238  18.837  0.00  0.00    +0.000 A 
ATOM     19  C   UNL     1      -3.574  12.282  19.121  0.00  0.00    +0.000 A 
ATOM     20  C   UNL     1      -4.522  13.002  19.913  0.00  0.00    +0.000 A 
ATOM     21  C   UNL     1      -4.357  14.175  20.805  0.00  0.00    +0.000 C 
ATOM     22  N   UNL     1      -5.775  12.512  19.801  0.00  0.00    +0.000 NA
ATOM     23  N   UNL     1      -5.648  11.505  18.927  0.00  0.00    +0.000 N 
ATOM     24  C   UNL     1      -6.788  10.697  18.569  0.00  0.00    +0.000 C 
ATOM     25  C   UNL     1      -4.376  11.353  18.456  0.00  0.00    +0.000 A 
ATOM     26  N   UNL     1      -4.018  10.460  17.518  0.00  0.00    +0.000 NA
ENDBRANCH   1  18
TORSDOF 1
ENDMDL
MODEL 8
REMARK VINA RESULT:      -6.5      8.407     10.288
REMARK  Name = 
REMARK  4 active torsions:
REMARK  status: ('A' for Active; 'I' for Inactive)
REMARK    1  A    between atoms: C_1  and  C_2
REMARK    2  A    between atoms: C_4  and  C_5
REMARK    3  A    between atoms: C_20  and  C_21
REMARK    4  A    between atoms: N_23  and  C_24
REMARK                            x       y       z     vdW  Elec       q    Type
REMARK                         _______ _______ _______ _____ _____    ______ ____
ROOT
ATOM      1  C   UNL     1      -1.212  11.921  19.839  0.00  0.00    +0.000 C 
ATOM      2  O   UNL     1      -0.643  10.879  20.176  0.00  0.00    +0.000 OA
ATOM      3  N   UNL     1      -0.843  13.139  20.437  0.00  0.00    +0.000 N 
ATOM      4  C   UNL     1       0.174  13.174  21.498  0.00  0.00    +0.000 C 
ATOM      5  C   UNL     1       1.458  13.890  21.044  0.00  0.00    +0.000 C 
ATOM      6  C   UNL     1       1.207  15.103  20.160  0.00  0.00    +0.000 A 
ATOM      7  C   UNL     1       2.236  16.005  19.826  0.00  0.00    +0.000 A 
ATOM      8 CL   UNL     1       3.752  16.010  20.653  0.00  0.00    +0.000 Cl
ATOM      9  C   UNL     1       2.049  16.951  18.818  0.00  0.00    +0.000 A 
ATOM     10  C   UNL     1       0.843  16.988  18.135  0.00  0.00    +0.000 A 
ATOM     11  F   UNL     1       0.683  17.850  17.122  0.00  0.00    +0.000 F 
ATOM     12  C   UNL     1      -0.217  16.168  18.500  0.00  0.00    +0.000 A 
ATOM     13  C   UNL     1      -0.063  15.245  19.539  0.00  0.00    +0.000 A 
ATOM     14  C   UNL     1      -1.257  14.472  20.054  0.00  0.00    +0.000 C 
ENDROOT
BRANCH   1  18
ATOM     15  C   UNL     1      -2.967  10.697  15.180  0.00  0.00    +0.000 C 
ATOM     16  C   UNL     1      -3.157  11.127  16.606  0.00  0.00    +0.000 A 
ATOM     17  C   UNL     1      -2.089  11.286  17.499  0.00  0.00    +0.000 A 
ATOM     18  C   UNL     1      -2.302  11.775  18.809  0.00  0.00    +0.000 A 
ATOM     19  C   UNL     1      -3.664  11.998  19.178  0.00  0.00    +0.000 A 
ATOM     20  C   UNL     1      -4.454  12.451  20.280  0.00  0.00    +0.000 A 
ATOM     21  C   UNL     1      -4.061  12.984  21.607  0.00  0.00    +0.000 C 
ATOM     22  N   UNL     1      -5.779  12.375  20.038  0.00  0.00    +0.000 NA
ATOM     23  N   UNL     1      -5.849  11.907  18.785  0.00  0.00    +0.000 N 
ATOM     24  C   UNL     1      -7.129  11.652  18.168  0.00  0.00    +0.000 C 
ATOM     25  C   UNL     1      -4.628  11.710  18.210  0.00  0.00    +0.000 A 
ATOM     26  N   UNL     1      -4.443  11.315  16.939  0.00  0.00    +0.000 NA
ENDBRANCH   1  18
TORSDOF 1
ENDMDL
MODEL 9
REMARK VINA RESULT:      -6.4      8.839     10.988
REMARK  Name = 
REMARK  4 active torsions:
REMARK  status: ('A' for Active; 'I' for Inactive)
REMARK    1  A    between atoms: C_1  and  C_2
REMARK    2  A    between atoms: C_4  and  C_5
REMARK    3  A    between atoms: C_20  and  C_21
REMARK    4  A    between atoms: N_23  and  C_24
REMARK                            x       y       z     vdW  Elec       q    Type
REMARK                         _______ _______ _______ _____ _____    ______ ____
ROOT
ATOM      1  C   UNL     1      -1.016  12.539  20.171  0.00  0.00    +0.000 C 
ATOM      2  O   UNL     1      -0.341  11.511  20.276  0.00  0.00    +0.000 OA
ATOM      3  N   UNL     1      -0.457  13.778  20.530  0.00  0.00    +0.000 N 
ATOM      4  C   UNL     1       0.905  13.852  21.080  0.00  0.00    +0.000 C 
ATOM      5  C   UNL     1       1.878  14.558  20.119  0.00  0.00    +0.000 C 
ATOM      6  C   UNL     1       1.266  15.739  19.382  0.00  0.00    +0.000 A 
ATOM      7  C   UNL     1       2.053  16.633  18.629  0.00  0.00    +0.000 A 
ATOM      8 CL   UNL     1       3.774  16.672  18.763  0.00  0.00    +0.000 Cl
ATOM      9  C   UNL     1       1.454  17.544  17.758  0.00  0.00    +0.000 A 
ATOM     10  C   UNL     1       0.074  17.553  17.629  0.00  0.00    +0.000 A 
ATOM     11  F   UNL     1      -0.502  18.380  16.745  0.00  0.00    +0.000 F 
ATOM     12  C   UNL     1      -0.730  16.742  18.419  0.00  0.00    +0.000 A 
ATOM     13  C   UNL     1      -0.149  15.855  19.330  0.00  0.00    +0.000 A 
ATOM     14  C   UNL     1      -1.014  15.095  20.311  0.00  0.00    +0.000 C 
ENDROOT
BRANCH   1  18
ATOM     15  C   UNL     1      -4.504  11.335  16.611  0.00  0.00    +0.000 C 
ATOM     16  C   UNL     1      -4.099  11.714  18.005  0.00  0.00    +0.000 A 
ATOM     17  C   UNL     1      -2.763  11.914  18.380  0.00  0.00    +0.000 A 
ATOM     18  C   UNL     1      -2.430  12.354  19.682  0.00  0.00    +0.000 A 
ATOM     19  C   UNL     1      -3.521  12.482  20.595  0.00  0.00    +0.000 A 
ATOM     20  C   UNL     1      -3.796  12.855  21.948  0.00  0.00    +0.000 A 
ATOM     21  C   UNL     1      -2.909  13.376  23.016  0.00  0.00    +0.000 C 
ATOM     22  N   UNL     1      -5.097  12.705  22.275  0.00  0.00    +0.000 NA
ATOM     23  N   UNL     1      -5.664  12.267  21.143  0.00  0.00    +0.000 N 
ATOM     24  C   UNL     1      -7.072  11.951  21.103  0.00  0.00    +0.000 C 
ATOM     25  C   UNL     1      -4.787  12.162  20.103  0.00  0.00    +0.000 A 
ATOM     26  N   UNL     1      -5.134  11.814  18.853  0.00  0.00    +0.000 NA
ENDBRANCH   1  18
TORSDOF 1
ENDMDL
