MODEL 1
REMARK VINA RESULT:      -8.3      0.000      0.000
REMARK  Name = 
REMARK  5 active torsions:
REMARK  status: ('A' for Active; 'I' for Inactive)
REMARK    1  A    between atoms: C_1  and  C_2
REMARK    2  A    between atoms: C_2  and  N_3
REMARK    3  A    between atoms: C_7  and  C_8
REMARK    4  A    between atoms: C_12  and  N_13
REMARK    5  A    between atoms: C_21  and  C_22
REMARK                            x       y       z     vdW  Elec       q    Type
REMARK                         _______ _______ _______ _____ _____    ______ ____
ROOT
ATOM      1  N   UNL     1       4.163   3.103  19.207  0.00  0.00    +0.000 N 
ATOM      2  C   UNL     1       5.630   3.346  19.205  0.00  0.00    +0.000 C 
ATOM      3  C   UNL     1       5.784   4.333  18.081  0.00  0.00    +0.000 A 
ATOM      4  C   UNL     1       4.727   4.109  17.189  0.00  0.00    +0.000 A 
ATOM      5  C   UNL     1       4.442   4.953  16.131  0.00  0.00    +0.000 A 
ATOM      6  C   UNL     1       5.267   6.058  15.978  0.00  0.00    +0.000 A 
ATOM      7  F   UNL     1       4.991   6.957  15.024  0.00  0.00    +0.000 F 
ATOM      8  C   UNL     1       6.334   6.308  16.855  0.00  0.00    +0.000 A 
ATOM      9  C   UNL     1       6.614   5.442  17.934  0.00  0.00    +0.000 A 
ATOM     10  C   UNL     1       3.779   3.172  17.839  0.00  0.00    +0.000 C 
ATOM     11  O   UNL     1       2.757   2.766  17.318  0.00  0.00    +0.000 OA
ENDROOT
BRANCH   1  16
ATOM     12  C   UNL     1       2.141   6.041  19.734  0.00  0.00    +0.000 A 
ATOM     13  C   UNL     1       1.045   5.305  20.204  0.00  0.00    +0.000 A 
ATOM     14  C   UNL     1       1.234   4.124  20.905  0.00  0.00    +0.000 A 
ATOM     15  C   UNL     1       2.497   3.557  20.949  0.00  0.00    +0.000 A 
ATOM     16  C   UNL     1       3.478   4.060  20.083  0.00  0.00    +0.000 A 
ATOM     17  C   UNL     1       3.378   5.391  19.659  0.00  0.00    +0.000 A 
BRANCH  12  22
ATOM     18  N   UNL     1       1.547   8.499  20.014  0.00  0.00    +0.000 N 
ATOM     19  C   UNL     1       1.520   9.563  19.169  0.00  0.00    +0.000 A 
ATOM     20  N   UNL     1       1.969   9.199  17.991  0.00  0.00    +0.000 NA
ATOM     21  N   UNL     1       2.271   7.863  18.048  0.00  0.00    +0.000 NA
ATOM     22  C   UNL     1       1.975   7.414  19.261  0.00  0.00    +0.000 A 
BRANCH  18  24
ATOM     23  C   UNL     1      -0.292   8.532  21.738  0.00  0.00    +0.000 C 
ATOM     24  C   UNL     1       1.187   8.491  21.413  0.00  0.00    +0.000 C 
ENDBRANCH  18  24
ENDBRANCH  12  22
ENDBRANCH   1  16
BRANCH   9  25
ATOM     25  C   UNL     1       7.696   5.824  18.911  0.00  0.00    +0.000 C 
ATOM     26  F   UNL     1       7.274   5.917  20.199  0.00  0.00    +0.000 F 
ATOM     27  F   UNL     1       8.719   4.928  18.917  0.00  0.00    +0.000 F 
ATOM     28  F   UNL     1       8.255   7.030  18.611  0.00  0.00    +0.000 F 
ENDBRANCH   9  25
TORSDOF 4
ENDMDL
MODEL 2
REMARK VINA RESULT:      -8.1      1.788      2.701
REMARK  Name = 
REMARK  5 active torsions:
REMARK  status: ('A' for Active; 'I' for Inactive)
REMARK    1  A    between atoms: C_1  and  C_2
REMARK    2  A    between atoms: C_2  and  N_3
REMARK    3  A    between atoms: C_7  and  C_8
REMARK    4  A    between atoms: C_12  and  N_13
REMARK    5  A    between atoms: C_21  and  C_22
REMARK                            x       y       z     vdW  Elec       q    Type
REMARK                         _______ _______ _______ _____ _____    ______ ____
ROOT
ATOM      1  N   UNL     1       3.974   4.639  19.220  0.00  0.00    +0.000 N 
ATOM      2  C   UNL     1       5.312   5.275  19.347  0.00  0.00    +0.000 C 
ATOM      3  C   UNL     1       5.915   5.012  17.995  0.00  0.00    +0.000 A 
ATOM      4  C   UNL     1       5.317   3.847  17.497  0.00  0.00    +0.000 A 
ATOM      5  C   UNL     1       5.494   3.405  16.199  0.00  0.00    +0.000 A 
ATOM      6  C   UNL     1       6.309   4.178  15.385  0.00  0.00    +0.000 A 
ATOM      7  F   UNL     1       6.449   3.849  14.094  0.00  0.00    +0.000 F 
ATOM      8  C   UNL     1       6.921   5.349  15.855  0.00  0.00    +0.000 A 
ATOM      9  C   UNL     1       6.732   5.794  17.181  0.00  0.00    +0.000 A 
ATOM     10  C   UNL     1       4.186   3.502  18.392  0.00  0.00    +0.000 C 
ATOM     11  O   UNL     1       3.468   2.531  18.240  0.00  0.00    +0.000 OA
ENDROOT
BRANCH   1  16
ATOM     12  C   UNL     1       2.138   7.734  19.441  0.00  0.00    +0.000 A 
ATOM     13  C   UNL     1       2.801   8.303  18.345  0.00  0.00    +0.000 A 
ATOM     14  C   UNL     1       3.238   7.512  17.294  0.00  0.00    +0.000 A 
ATOM     15  C   UNL     1       3.215   6.134  17.429  0.00  0.00    +0.000 A 
ATOM     16  C   UNL     1       2.990   5.597  18.704  0.00  0.00    +0.000 A 
ATOM     17  C   UNL     1       2.255   6.352  19.627  0.00  0.00    +0.000 A 
BRANCH  12  22
ATOM     18  N   UNL     1       0.640   9.680  20.106  0.00  0.00    +0.000 N 
ATOM     19  C   UNL     1       0.190  10.158  21.296  0.00  0.00    +0.000 A 
ATOM     20  N   UNL     1       0.591   9.370  22.265  0.00  0.00    +0.000 NA
ATOM     21  N   UNL     1       1.346   8.368  21.710  0.00  0.00    +0.000 NA
ATOM     22  C   UNL     1       1.421   8.571  20.401  0.00  0.00    +0.000 A 
BRANCH  18  24
ATOM     23  C   UNL     1      -1.071  10.228  18.337  0.00  0.00    +0.000 C 
ATOM     24  C   UNL     1       0.374  10.224  18.794  0.00  0.00    +0.000 C 
ENDBRANCH  18  24
ENDBRANCH  12  22
ENDBRANCH   1  16
BRANCH   9  25
ATOM     25  C   UNL     1       7.317   7.119  17.595  0.00  0.00    +0.000 C 
ATOM     26  F   UNL     1       8.028   7.076  18.752  0.00  0.00    +0.000 F 
ATOM     27  F   UNL     1       8.163   7.621  16.656  0.00  0.00    +0.000 F 
ATOM     28  F   UNL     1       6.357   8.069  17.780  0.00  0.00    +0.000 F 
ENDBRANCH   9  25
TORSDOF 4
ENDMDL
MODEL 3
REMARK VINA RESULT:      -7.9      2.534      4.166
REMARK  Name = 
REMARK  5 active torsions:
REMARK  status: ('A' for Active; 'I' for Inactive)
REMARK    1  A    between atoms: C_1  and  C_2
REMARK    2  A    between atoms: C_2  and  N_3
REMARK    3  A    between atoms: C_7  and  C_8
REMARK    4  A    between atoms: C_12  and  N_13
REMARK    5  A    between atoms: C_21  and  C_22
REMARK                            x       y       z     vdW  Elec       q    Type
REMARK                         _______ _______ _______ _____ _____    ______ ____
ROOT
ATOM      1  N   UNL     1       3.223   6.274  20.116  0.00  0.00    +0.000 N 
ATOM      2  C   UNL     1       4.412   6.084  19.244  0.00  0.00    +0.000 C 
ATOM      3  C   UNL     1       4.067   4.815  18.514  0.00  0.00    +0.000 A 
ATOM      4  C   UNL     1       3.211   4.081  19.346  0.00  0.00    +0.000 A 
ATOM      5  C   UNL     1       2.545   2.944  18.927  0.00  0.00    +0.000 A 
ATOM      6  C   UNL     1       2.763   2.543  17.617  0.00  0.00    +0.000 A 
ATOM      7  F   UNL     1       2.081   1.500  17.127  0.00  0.00    +0.000 F 
ATOM      8  C   UNL     1       3.615   3.257  16.760  0.00  0.00    +0.000 A 
ATOM      9  C   UNL     1       4.287   4.419  17.196  0.00  0.00    +0.000 A 
ATOM     10  C   UNL     1       2.818   4.959  20.475  0.00  0.00    +0.000 C 
ATOM     11  O   UNL     1       2.086   4.612  21.384  0.00  0.00    +0.000 OA
ENDROOT
BRANCH   1  16
ATOM     12  C   UNL     1       1.261   9.273  19.720  0.00  0.00    +0.000 A 
ATOM     13  C   UNL     1       1.890   9.626  18.519  0.00  0.00    +0.000 A 
ATOM     14  C   UNL     1       2.349   8.650  17.647  0.00  0.00    +0.000 A 
ATOM     15  C   UNL     1       2.386   7.332  18.066  0.00  0.00    +0.000 A 
ATOM     16  C   UNL     1       2.195   7.064  19.429  0.00  0.00    +0.000 A 
ATOM     17  C   UNL     1       1.438   7.966  20.188  0.00  0.00    +0.000 A 
BRANCH  12  22
ATOM     18  N   UNL     1      -0.701  10.831  20.158  0.00  0.00    +0.000 N 
ATOM     19  C   UNL     1      -1.004  11.709  21.151  0.00  0.00    +0.000 A 
ATOM     20  N   UNL     1      -0.085  11.648  22.085  0.00  0.00    +0.000 NA
ATOM     21  N   UNL     1       0.859  10.734  21.691  0.00  0.00    +0.000 NA
ATOM     22  C   UNL     1       0.519  10.263  20.498  0.00  0.00    +0.000 A 
BRANCH  18  24
ATOM     23  C   UNL     1      -1.558  11.649  17.932  0.00  0.00    +0.000 C 
ATOM     24  C   UNL     1      -1.484  10.553  18.976  0.00  0.00    +0.000 C 
ENDBRANCH  18  24
ENDBRANCH  12  22
ENDBRANCH   1  16
BRANCH   9  25
ATOM     25  C   UNL     1       5.094   5.211  16.199  0.00  0.00    +0.000 C 
ATOM     26  F   UNL     1       4.631   6.469  15.983  0.00  0.00    +0.000 F 
ATOM     27  F   UNL     1       6.390   5.351  16.587  0.00  0.00    +0.000 F 
ATOM     28  F   UNL     1       5.132   4.609  14.978  0.00  0.00    +0.000 F 
ENDBRANCH   9  25
TORSDOF 4
ENDMDL
MODEL 4
REMARK VINA RESULT:      -7.9      3.497      6.558
REMARK  Name = 
REMARK  5 active torsions:
REMARK  status: ('A' for Active; 'I' for Inactive)
REMARK    1  A    between atoms: C_1  and  C_2
REMARK    2  A    between atoms: C_2  and  N_3
REMARK    3  A    between atoms: C_7  and  C_8
REMARK    4  A    between atoms: C_12  and  N_13
REMARK    5  A    between atoms: C_21  and  C_22
REMARK                            x       y       z     vdW  Elec       q    Type
REMARK                         _______ _______ _______ _____ _____    ______ ____
ROOT
ATOM      1  N   UNL     1       3.312   3.133  17.057  0.00  0.00    +0.000 N 
ATOM      2  C   UNL     1       2.514   4.388  17.058  0.00  0.00    +0.000 C 
ATOM      3  C   UNL     1       2.286   4.615  18.526  0.00  0.00    +0.000 A 
ATOM      4  C   UNL     1       2.322   3.359  19.148  0.00  0.00    +0.000 A 
ATOM      5  C   UNL     1       2.333   3.198  20.521  0.00  0.00    +0.000 A 
ATOM      6  C   UNL     1       2.302   4.357  21.283  0.00  0.00    +0.000 A 
ATOM      7  F   UNL     1       2.397   4.269  22.616  0.00  0.00    +0.000 F 
ATOM      8  C   UNL     1       2.265   5.627  20.690  0.00  0.00    +0.000 A 
ATOM      9  C   UNL     1       2.258   5.782  19.287  0.00  0.00    +0.000 A 
ATOM     10  C   UNL     1       2.803   2.375  18.147  0.00  0.00    +0.000 C 
ATOM     11  O   UNL     1       2.936   1.186  18.371  0.00  0.00    +0.000 OA
ENDROOT
BRANCH   1  16
ATOM     12  C   UNL     1       6.302   4.705  15.795  0.00  0.00    +0.000 A 
ATOM     13  C   UNL     1       6.376   5.610  16.862  0.00  0.00    +0.000 A 
ATOM     14  C   UNL     1       5.932   5.253  18.126  0.00  0.00    +0.000 A 
ATOM     15  C   UNL     1       5.213   4.081  18.285  0.00  0.00    +0.000 A 
ATOM     16  C   UNL     1       4.746   3.429  17.134  0.00  0.00    +0.000 A 
ATOM     17  C   UNL     1       5.451   3.602  15.936  0.00  0.00    +0.000 A 
BRANCH  12  22
ATOM     18  N   UNL     1       6.698   4.450  13.296  0.00  0.00    +0.000 N 
ATOM     19  C   UNL     1       7.646   4.916  12.441  0.00  0.00    +0.000 A 
ATOM     20  N   UNL     1       8.465   5.712  13.085  0.00  0.00    +0.000 NA
ATOM     21  N   UNL     1       8.070   5.752  14.398  0.00  0.00    +0.000 NA
ATOM     22  C   UNL     1       7.023   4.953  14.548  0.00  0.00    +0.000 A 
BRANCH  18  24
ATOM     23  C   UNL     1       5.728   2.716  11.744  0.00  0.00    +0.000 C 
ATOM     24  C   UNL     1       5.582   3.592  12.972  0.00  0.00    +0.000 C 
ENDBRANCH  18  24
ENDBRANCH  12  22
ENDBRANCH   1  16
BRANCH   9  25
ATOM     25  C   UNL     1       2.337   7.171  18.707  0.00  0.00    +0.000 C 
ATOM     26  F   UNL     1       3.544   7.479  18.166  0.00  0.00    +0.000 F 
ATOM     27  F   UNL     1       1.425   7.364  17.717  0.00  0.00    +0.000 F 
ATOM     28  F   UNL     1       2.087   8.131  19.640  0.00  0.00    +0.000 F 
ENDBRANCH   9  25
TORSDOF 4
ENDMDL
MODEL 5
REMARK VINA RESULT:      -7.6      3.321      4.897
REMARK  Name = 
REMARK  5 active torsions:
REMARK  status: ('A' for Active; 'I' for Inactive)
REMARK    1  A    between atoms: C_1  and  C_2
REMARK    2  A    between atoms: C_2  and  N_3
REMARK    3  A    between atoms: C_7  and  C_8
REMARK    4  A    between atoms: C_12  and  N_13
REMARK    5  A    between atoms: C_21  and  C_22
REMARK                            x       y       z     vdW  Elec       q    Type
REMARK                         _______ _______ _______ _____ _____    ______ ____
ROOT
ATOM      1  N   UNL     1       2.612   6.396  17.599  0.00  0.00    +0.000 N 
ATOM      2  C   UNL     1       1.634   5.300  17.824  0.00  0.00    +0.000 C 
ATOM      3  C   UNL     1       2.475   4.265  18.519  0.00  0.00    +0.000 A 
ATOM      4  C   UNL     1       3.798   4.462  18.100  0.00  0.00    +0.000 A 
ATOM      5  C   UNL     1       4.875   3.810  18.673  0.00  0.00    +0.000 A 
ATOM      6  C   UNL     1       4.589   2.928  19.705  0.00  0.00    +0.000 A 
ATOM      7  F   UNL     1       5.597   2.332  20.357  0.00  0.00    +0.000 F 
ATOM      8  C   UNL     1       3.275   2.710  20.146  0.00  0.00    +0.000 A 
ATOM      9  C   UNL     1       2.183   3.383  19.556  0.00  0.00    +0.000 A 
ATOM     10  C   UNL     1       3.848   5.739  17.348  0.00  0.00    +0.000 C 
ATOM     11  O   UNL     1       4.857   6.191  16.839  0.00  0.00    +0.000 OA
ENDROOT
BRANCH   1  16
ATOM     12  C   UNL     1       1.264   9.178  19.456  0.00  0.00    +0.000 A 
ATOM     13  C   UNL     1       0.836   8.370  20.518  0.00  0.00    +0.000 A 
ATOM     14  C   UNL     1       1.539   7.227  20.865  0.00  0.00    +0.000 A 
ATOM     15  C   UNL     1       2.536   6.764  20.024  0.00  0.00    +0.000 A 
ATOM     16  C   UNL     1       2.631   7.319  18.740  0.00  0.00    +0.000 A 
ATOM     17  C   UNL     1       2.168   8.626  18.541  0.00  0.00    +0.000 A 
BRANCH  12  22
ATOM     18  N   UNL     1      -0.348  10.868  18.447  0.00  0.00    +0.000 N 
ATOM     19  C   UNL     1      -0.494  12.214  18.562  0.00  0.00    +0.000 A 
ATOM     20  N   UNL     1       0.363  12.675  19.441  0.00  0.00    +0.000 NA
ATOM     21  N   UNL     1       1.110  11.619  19.897  0.00  0.00    +0.000 NA
ATOM     22  C   UNL     1       0.718  10.521  19.266  0.00  0.00    +0.000 A 
BRANCH  18  24
ATOM     23  C   UNL     1      -2.633   9.990  17.844  0.00  0.00    +0.000 C 
ATOM     24  C   UNL     1      -1.134   9.975  17.627  0.00  0.00    +0.000 C 
ENDBRANCH  18  24
ENDBRANCH  12  22
ENDBRANCH   1  16
BRANCH   9  25
ATOM     25  C   UNL     1       0.810   3.199  20.148  0.00  0.00    +0.000 C 
ATOM     26  F   UNL     1       0.156   4.361  20.407  0.00  0.00    +0.000 F 
ATOM     27  F   UNL     1      -0.008   2.484  19.331  0.00  0.00    +0.000 F 
ATOM     28  F   UNL     1       0.847   2.519  21.328  0.00  0.00    +0.000 F 
ENDBRANCH   9  25
TORSDOF 4
ENDMDL
MODEL 6
REMARK VINA RESULT:      -7.5      4.490      7.801
REMARK  Name = 
REMARK  5 active torsions:
REMARK  status: ('A' for Active; 'I' for Inactive)
REMARK    1  A    between atoms: C_1  and  C_2
REMARK    2  A    between atoms: C_2  and  N_3
REMARK    3  A    between atoms: C_7  and  C_8
REMARK    4  A    between atoms: C_12  and  N_13
REMARK    5  A    between atoms: C_21  and  C_22
REMARK                            x       y       z     vdW  Elec       q    Type
REMARK                         _______ _______ _______ _____ _____    ______ ____
ROOT
ATOM      1  N   UNL     1       0.496   8.476  21.212  0.00  0.00    +0.000 N 
ATOM      2  C   UNL     1      -0.725   8.681  20.390  0.00  0.00    +0.000 C 
ATOM      3  C   UNL     1      -0.770  10.178  20.261  0.00  0.00    +0.000 A 
ATOM      4  C   UNL     1      -0.126  10.708  21.388  0.00  0.00    +0.000 A 
ATOM      5  C   UNL     1       0.184  12.049  21.518  0.00  0.00    +0.000 A 
ATOM      6  C   UNL     1      -0.179  12.875  20.464  0.00  0.00    +0.000 A 
ATOM      7  F   UNL     1       0.171  14.168  20.493  0.00  0.00    +0.000 F 
ATOM      8  C   UNL     1      -0.825  12.375  19.324  0.00  0.00    +0.000 A 
ATOM      9  C   UNL     1      -1.133  11.003  19.199  0.00  0.00    +0.000 A 
ATOM     10  C   UNL     1       0.530   9.585  22.101  0.00  0.00    +0.000 C 
ATOM     11  O   UNL     1       1.166   9.712  23.132  0.00  0.00    +0.000 OA
ENDROOT
BRANCH   1  16
ATOM     12  C   UNL     1       2.817   6.491  19.295  0.00  0.00    +0.000 A 
ATOM     13  C   UNL     1       2.380   7.012  18.070  0.00  0.00    +0.000 A 
ATOM     14  C   UNL     1       1.920   8.316  17.979  0.00  0.00    +0.000 A 
ATOM     15  C   UNL     1       1.685   9.033  19.139  0.00  0.00    +0.000 A 
ATOM     16  C   UNL     1       1.681   8.339  20.358  0.00  0.00    +0.000 A 
ATOM     17  C   UNL     1       2.439   7.166  20.461  0.00  0.00    +0.000 A 
BRANCH  12  22
ATOM     18  N   UNL     1       3.035   3.962  19.464  0.00  0.00    +0.000 N 
ATOM     19  C   UNL     1       4.093   3.109  19.505  0.00  0.00    +0.000 A 
ATOM     20  N   UNL     1       5.207   3.784  19.357  0.00  0.00    +0.000 NA
ATOM     21  N   UNL     1       4.885   5.112  19.244  0.00  0.00    +0.000 NA
ATOM     22  C   UNL     1       3.569   5.239  19.353  0.00  0.00    +0.000 A 
BRANCH  18  24
ATOM     23  C   UNL     1       1.106   3.182  20.887  0.00  0.00    +0.000 C 
ATOM     24  C   UNL     1       1.635   3.614  19.535  0.00  0.00    +0.000 C 
ENDBRANCH  18  24
ENDBRANCH  12  22
ENDBRANCH   1  16
BRANCH   9  25
ATOM     25  C   UNL     1      -1.720  10.504  17.903  0.00  0.00    +0.000 C 
ATOM     26  F   UNL     1      -0.896   9.683  17.201  0.00  0.00    +0.000 F 
ATOM     27  F   UNL     1      -2.868   9.803  18.098  0.00  0.00    +0.000 F 
ATOM     28  F   UNL     1      -2.042  11.524  17.060  0.00  0.00    +0.000 F 
ENDBRANCH   9  25
TORSDOF 4
ENDMDL
MODEL 7
REMARK VINA RESULT:      -7.4      6.557      9.510
REMARK  Name = 
REMARK  5 active torsions:
REMARK  status: ('A' for Active; 'I' for Inactive)
REMARK    1  A    between atoms: C_1  and  C_2
REMARK    2  A    between atoms: C_2  and  N_3
REMARK    3  A    between atoms: C_7  and  C_8
REMARK    4  A    between atoms: C_12  and  N_13
REMARK    5  A    between atoms: C_21  and  C_22
REMARK                            x       y       z     vdW  Elec       q    Type
REMARK                         _______ _______ _______ _____ _____    ______ ____
ROOT
ATOM      1  N   UNL     1      -0.786  11.691  18.358  0.00  0.00    +0.000 N 
ATOM      2  C   UNL     1       0.243  10.843  19.016  0.00  0.00    +0.000 C 
ATOM      3  C   UNL     1      -0.115  10.985  20.470  0.00  0.00    +0.000 A 
ATOM      4  C   UNL     1      -0.746  12.228  20.619  0.00  0.00    +0.000 A 
ATOM      5  C   UNL     1      -1.375  12.618  21.786  0.00  0.00    +0.000 A 
ATOM      6  C   UNL     1      -1.357  11.710  22.835  0.00  0.00    +0.000 A 
ATOM      7  F   UNL     1      -2.023  11.996  23.962  0.00  0.00    +0.000 F 
ATOM      8  C   UNL     1      -0.734  10.459  22.716  0.00  0.00    +0.000 A 
ATOM      9  C   UNL     1      -0.097  10.069  21.519  0.00  0.00    +0.000 A 
ATOM     10  C   UNL     1      -1.007  12.766  19.262  0.00  0.00    +0.000 C 
ATOM     11  O   UNL     1      -1.536  13.841  19.046  0.00  0.00    +0.000 OA
ENDROOT
BRANCH   1  16
ATOM     12  C   UNL     1      -4.215  11.422  17.275  0.00  0.00    +0.000 A 
ATOM     13  C   UNL     1      -3.871  10.810  16.062  0.00  0.00    +0.000 A 
ATOM     14  C   UNL     1      -2.763   9.980  15.977  0.00  0.00    +0.000 A 
ATOM     15  C   UNL     1      -1.870   9.933  17.033  0.00  0.00    +0.000 A 
ATOM     16  C   UNL     1      -1.982  10.903  18.039  0.00  0.00    +0.000 A 
ATOM     17  C   UNL     1      -3.236  11.482  18.274  0.00  0.00    +0.000 A 
BRANCH  12  22
ATOM     18  N   UNL     1      -6.572  11.562  18.219  0.00  0.00    +0.000 N 
ATOM     19  C   UNL     1      -7.591  12.452  18.080  0.00  0.00    +0.000 A 
ATOM     20  N   UNL     1      -7.193  13.463  17.346  0.00  0.00    +0.000 NA
ATOM     21  N   UNL     1      -5.896  13.226  16.967  0.00  0.00    +0.000 NA
ATOM     22  C   UNL     1      -5.522  12.051  17.454  0.00  0.00    +0.000 A 
BRANCH  18  24
ATOM     23  C   UNL     1      -7.331  10.378  20.311  0.00  0.00    +0.000 C 
ATOM     24  C   UNL     1      -6.582  10.343  18.994  0.00  0.00    +0.000 C 
ENDBRANCH  18  24
ENDBRANCH  12  22
ENDBRANCH   1  16
BRANCH   9  25
ATOM     25  C   UNL     1       0.452   8.669  21.409  0.00  0.00    +0.000 C 
ATOM     26  F   UNL     1       1.057   8.400  20.223  0.00  0.00    +0.000 F 
ATOM     27  F   UNL     1       1.379   8.407  22.369  0.00  0.00    +0.000 F 
ATOM     28  F   UNL     1      -0.519   7.725  21.559  0.00  0.00    +0.000 F 
ENDBRANCH   9  25
TORSDOF 4
ENDMDL
MODEL 8
REMARK VINA RESULT:      -7.4      6.857      9.477
REMARK  Name = 
REMARK  5 active torsions:
REMARK  status: ('A' for Active; 'I' for Inactive)
REMARK    1  A    between atoms: C_1  and  C_2
REMARK    2  A    between atoms: C_2  and  N_3
REMARK    3  A    between atoms: C_7  and  C_8
REMARK    4  A    between atoms: C_12  and  N_13
REMARK    5  A    between atoms: C_21  and  C_22
REMARK                            x       y       z     vdW  Elec       q    Type
REMARK                         _______ _______ _______ _____ _____    ______ ____
ROOT
ATOM      1  N   UNL     1      -0.370  11.169  18.403  0.00  0.00    +0.000 N 
ATOM      2  C   UNL     1       0.401  10.425  19.434  0.00  0.00    +0.000 C 
ATOM      3  C   UNL     1       0.016  11.146  20.696  0.00  0.00    +0.000 A 
ATOM      4  C   UNL     1      -0.315  12.459  20.336  0.00  0.00    +0.000 A 
ATOM      5  C   UNL     1      -0.892  13.359  21.213  0.00  0.00    +0.000 A 
ATOM      6  C   UNL     1      -1.136  12.902  22.500  0.00  0.00    +0.000 A 
ATOM      7  F   UNL     1      -1.771  13.698  23.370  0.00  0.00    +0.000 F 
ATOM      8  C   UNL     1      -0.815  11.593  22.890  0.00  0.00    +0.000 A 
ATOM      9  C   UNL     1      -0.230  10.681  21.986  0.00  0.00    +0.000 A 
ATOM     10  C   UNL     1      -0.378  12.518  18.855  0.00  0.00    +0.000 C 
ATOM     11  O   UNL     1      -0.632  13.527  18.224  0.00  0.00    +0.000 OA
ENDROOT
BRANCH   1  16
ATOM     12  C   UNL     1      -3.966  11.412  18.291  0.00  0.00    +0.000 A 
ATOM     13  C   UNL     1      -4.021  11.192  16.908  0.00  0.00    +0.000 A 
ATOM     14  C   UNL     1      -3.088  10.379  16.283  0.00  0.00    +0.000 A 
ATOM     15  C   UNL     1      -1.972   9.963  16.989  0.00  0.00    +0.000 A 
ATOM     16  C   UNL     1      -1.700  10.577  18.220  0.00  0.00    +0.000 A 
ATOM     17  C   UNL     1      -2.768  11.112  18.951  0.00  0.00    +0.000 A 
BRANCH  12  22
ATOM     18  N   UNL     1      -6.350  11.453  19.176  0.00  0.00    +0.000 N 
ATOM     19  C   UNL     1      -7.081  12.365  19.870  0.00  0.00    +0.000 A 
ATOM     20  N   UNL     1      -6.325  13.391  20.177  0.00  0.00    +0.000 NA
ATOM     21  N   UNL     1      -5.078  13.169  19.652  0.00  0.00    +0.000 NA
ATOM     22  C   UNL     1      -5.093  12.014  19.001  0.00  0.00    +0.000 A 
BRANCH  18  24
ATOM     23  C   UNL     1      -7.091   9.112  19.751  0.00  0.00    +0.000 C 
ATOM     24  C   UNL     1      -6.795  10.163  18.700  0.00  0.00    +0.000 C 
ENDBRANCH  18  24
ENDBRANCH  12  22
ENDBRANCH   1  16
BRANCH   9  25
ATOM     25  C   UNL     1      -0.016   9.255  22.426  0.00  0.00    +0.000 C 
ATOM     26  F   UNL     1      -0.206   9.050  23.755  0.00  0.00    +0.000 F 
ATOM     27  F   UNL     1      -0.855   8.393  21.792  0.00  0.00    +0.000 F 
ATOM     28  F   UNL     1       1.245   8.818  22.155  0.00  0.00    +0.000 F 
ENDBRANCH   9  25
TORSDOF 4
ENDMDL
MODEL 9
REMARK VINA RESULT:      -7.4      6.030      8.903
REMARK  Name = 
REMARK  5 active torsions:
REMARK  status: ('A' for Active; 'I' for Inactive)
REMARK    1  A    between atoms: C_1  and  C_2
REMARK    2  A    between atoms: C_2  and  N_3
REMARK    3  A    between atoms: C_7  and  C_8
REMARK    4  A    between atoms: C_12  and  N_13
REMARK    5  A    between atoms: C_21  and  C_22
REMARK                            x       y       z     vdW  Elec       q    Type
REMARK                         _______ _______ _______ _____ _____    ______ ____
ROOT
ATOM      1  N   UNL     1      -0.959  12.106  18.763  0.00  0.00    +0.000 N 
ATOM      2  C   UNL     1       0.330  11.445  18.429  0.00  0.00    +0.000 C 
ATOM      3  C   UNL     1       0.614  10.660  19.679  0.00  0.00    +0.000 A 
ATOM      4  C   UNL     1      -0.011  11.332  20.738  0.00  0.00    +0.000 A 
ATOM      5  C   UNL     1      -0.117  10.800  22.010  0.00  0.00    +0.000 A 
ATOM      6  C   UNL     1       0.437   9.543  22.206  0.00  0.00    +0.000 A 
ATOM      7  F   UNL     1       0.291   8.939  23.393  0.00  0.00    +0.000 F 
ATOM      8  C   UNL     1       1.069   8.846  21.165  0.00  0.00    +0.000 A 
ATOM      9  C   UNL     1       1.169   9.396  19.869  0.00  0.00    +0.000 A 
ATOM     10  C   UNL     1      -0.878  12.385  20.155  0.00  0.00    +0.000 C 
ATOM     11  O   UNL     1      -1.551  13.155  20.815  0.00  0.00    +0.000 OA
ENDROOT
BRANCH   1  16
ATOM     12  C   UNL     1      -4.319  11.673  17.527  0.00  0.00    +0.000 A 
ATOM     13  C   UNL     1      -3.890  11.116  16.315  0.00  0.00    +0.000 A 
ATOM     14  C   UNL     1      -2.734  10.354  16.256  0.00  0.00    +0.000 A 
ATOM     15  C   UNL     1      -1.884  10.328  17.348  0.00  0.00    +0.000 A 
ATOM     16  C   UNL     1      -2.093  11.261  18.373  0.00  0.00    +0.000 A 
ATOM     17  C   UNL     1      -3.387  11.760  18.568  0.00  0.00    +0.000 A 
BRANCH  12  22
ATOM     18  N   UNL     1      -6.609  11.857  18.619  0.00  0.00    +0.000 N 
ATOM     19  C   UNL     1      -7.718  12.600  18.362  0.00  0.00    +0.000 A 
ATOM     20  N   UNL     1      -7.473  13.424  17.372  0.00  0.00    +0.000 NA
ATOM     21  N   UNL     1      -6.189  13.204  16.945  0.00  0.00    +0.000 NA
ATOM     22  C   UNL     1      -5.667  12.221  17.667  0.00  0.00    +0.000 A 
BRANCH  18  24
ATOM     23  C   UNL     1      -7.089   9.521  19.437  0.00  0.00    +0.000 C 
ATOM     24  C   UNL     1      -6.445  10.873  19.664  0.00  0.00    +0.000 C 
ENDBRANCH  18  24
ENDBRANCH  12  22
ENDBRANCH   1  16
BRANCH   9  25
ATOM     25  C   UNL     1       1.753   8.554  18.764  0.00  0.00    +0.000 C 
ATOM     26  F   UNL     1       2.888   9.062  18.219  0.00  0.00    +0.000 F 
ATOM     27  F   UNL     1       2.070   7.302  19.188  0.00  0.00    +0.000 F 
ATOM     28  F   UNL     1       0.881   8.390  17.730  0.00  0.00    +0.000 F 
ENDBRANCH   9  25
TORSDOF 4
ENDMDL
