MODEL 1
REMARK VINA RESULT:      -9.0      0.000      0.000
REMARK  Name = 
REMARK  4 active torsions:
REMARK  status: ('A' for Active; 'I' for Inactive)
REMARK    1  A    between atoms: C_2  and  C_3
REMARK    2  A    between atoms: C_3  and  N_4
REMARK    3  A    between atoms: N_16  and  C_17
REMARK    4  A    between atoms: C_22  and  C_23
REMARK                            x       y       z     vdW  Elec       q    Type
REMARK                         _______ _______ _______ _____ _____    ______ ____
ROOT
ATOM      1  O   UNL     1       1.169   4.727  20.220  0.00  0.00    +0.000 OA
ATOM      2  C   UNL     1       2.335   5.119  20.114  0.00  0.00    +0.000 C 
ATOM      3  N   UNL     1       2.753   6.448  20.101  0.00  0.00    +0.000 N 
ATOM      4  H   UNL     1       3.727   6.640  19.878  0.00  0.00    +0.000 HD
ENDROOT
BRANCH   3   5
ATOM      5  C   UNL     1       1.853   7.545  20.156  0.00  0.00    +0.000 A 
ATOM      6  C   UNL     1       1.777   8.448  19.081  0.00  0.00    +0.000 A 
ATOM      7  C   UNL     1       1.066   9.642  19.153  0.00  0.00    +0.000 A 
ATOM      8  C   UNL     1       0.415   9.866  20.346  0.00  0.00    +0.000 A 
ATOM      9  O   UNL     1      -0.277  10.982  20.667  0.00  0.00    +0.000 OA
ATOM     10  C   UNL     1      -0.724  10.753  21.945  0.00  0.00    +0.000 A 
ATOM     11  N   UNL     1      -0.379   9.559  22.427  0.00  0.00    +0.000 NA
ATOM     12  C   UNL     1       0.370   8.988  21.413  0.00  0.00    +0.000 A 
ATOM     13  C   UNL     1       1.075   7.765  21.315  0.00  0.00    +0.000 A 
BRANCH  10  14
ATOM     14  C   UNL     1      -1.495  11.893  22.543  0.00  0.00    +0.000 C 
ATOM     15  F   UNL     1      -2.283  11.494  23.583  0.00  0.00    +0.000 F 
ATOM     16  F   UNL     1      -0.684  12.867  23.039  0.00  0.00    +0.000 F 
ATOM     17  F   UNL     1      -2.330  12.491  21.650  0.00  0.00    +0.000 F 
ENDBRANCH  10  14
ENDBRANCH   3   5
BRANCH   2  18
ATOM     18  C   UNL     1       3.434   4.075  20.013  0.00  0.00    +0.000 C 
BRANCH  18  19
ATOM     19  N   UNL     1       4.362   4.452  18.966  0.00  0.00    +0.000 N 
ATOM     20  C   UNL     1       5.491   5.179  19.259  0.00  0.00    +0.000 A 
ATOM     21  N   UNL     1       6.401   5.497  18.401  0.00  0.00    +0.000 NA
ATOM     22  C   UNL     1       6.231   5.059  17.081  0.00  0.00    +0.000 A 
ATOM     23  C   UNL     1       7.246   5.311  16.147  0.00  0.00    +0.000 A 
ATOM     24  C   UNL     1       7.115   4.867  14.829  0.00  0.00    +0.000 A 
ATOM     25  C   UNL     1       5.964   4.179  14.443  0.00  0.00    +0.000 A 
ATOM     26  F   UNL     1       5.853   3.742  13.182  0.00  0.00    +0.000 F 
ATOM     27  C   UNL     1       4.947   3.929  15.348  0.00  0.00    +0.000 A 
ATOM     28  C   UNL     1       5.092   4.369  16.662  0.00  0.00    +0.000 A 
ATOM     29  C   UNL     1       4.062   4.077  17.672  0.00  0.00    +0.000 A 
ATOM     30  O   UNL     1       3.010   3.527  17.356  0.00  0.00    +0.000 OA
ENDBRANCH  18  19
ENDBRANCH   2  18
TORSDOF 4
ENDMDL
MODEL 2
REMARK VINA RESULT:      -9.0      1.710      2.209
REMARK  Name = 
REMARK  4 active torsions:
REMARK  status: ('A' for Active; 'I' for Inactive)
REMARK    1  A    between atoms: C_2  and  C_3
REMARK    2  A    between atoms: C_3  and  N_4
REMARK    3  A    between atoms: N_16  and  C_17
REMARK    4  A    between atoms: C_22  and  C_23
REMARK                            x       y       z     vdW  Elec       q    Type
REMARK                         _______ _______ _______ _____ _____    ______ ____
ROOT
ATOM      1  O   UNL     1       1.060   4.855  20.358  0.00  0.00    +0.000 OA
ATOM      2  C   UNL     1       2.243   5.138  20.144  0.00  0.00    +0.000 C 
ATOM      3  N   UNL     1       2.770   6.423  20.038  0.00  0.00    +0.000 N 
ATOM      4  H   UNL     1       3.736   6.519  19.732  0.00  0.00    +0.000 HD
ENDROOT
BRANCH   3   5
ATOM      5  C   UNL     1       1.975   7.597  20.112  0.00  0.00    +0.000 A 
ATOM      6  C   UNL     1       1.256   7.887  21.284  0.00  0.00    +0.000 A 
ATOM      7  C   UNL     1       0.313   8.908  21.354  0.00  0.00    +0.000 A 
ATOM      8  C   UNL     1       0.153   9.637  20.196  0.00  0.00    +0.000 A 
ATOM      9  O   UNL     1      -0.749  10.627  20.008  0.00  0.00    +0.000 OA
ATOM     10  C   UNL     1      -0.545  11.036  18.713  0.00  0.00    +0.000 A 
ATOM     11  N   UNL     1       0.441  10.385  18.095  0.00  0.00    +0.000 NA
ATOM     12  C   UNL     1       0.884   9.470  19.034  0.00  0.00    +0.000 A 
ATOM     13  C   UNL     1       1.858   8.446  18.988  0.00  0.00    +0.000 A 
BRANCH  10  14
ATOM     14  C   UNL     1      -1.476  12.118  18.253  0.00  0.00    +0.000 C 
ATOM     15  F   UNL     1      -2.450  12.388  19.170  0.00  0.00    +0.000 F 
ATOM     16  F   UNL     1      -0.835  13.298  18.029  0.00  0.00    +0.000 F 
ATOM     17  F   UNL     1      -2.128  11.798  17.102  0.00  0.00    +0.000 F 
ENDBRANCH  10  14
ENDBRANCH   3   5
BRANCH   2  18
ATOM     18  C   UNL     1       3.236   3.997  20.007  0.00  0.00    +0.000 C 
BRANCH  18  19
ATOM     19  N   UNL     1       4.231   4.341  19.010  0.00  0.00    +0.000 N 
ATOM     20  C   UNL     1       5.416   4.930  19.378  0.00  0.00    +0.000 A 
ATOM     21  N   UNL     1       6.380   5.207  18.566  0.00  0.00    +0.000 NA
ATOM     22  C   UNL     1       6.210   4.869  17.216  0.00  0.00    +0.000 A 
ATOM     23  C   UNL     1       7.273   5.073  16.326  0.00  0.00    +0.000 A 
ATOM     24  C   UNL     1       7.141   4.726  14.980  0.00  0.00    +0.000 A 
ATOM     25  C   UNL     1       5.939   4.184  14.521  0.00  0.00    +0.000 A 
ATOM     26  F   UNL     1       5.826   3.838  13.233  0.00  0.00    +0.000 F 
ATOM     27  C   UNL     1       4.874   3.983  15.382  0.00  0.00    +0.000 A 
ATOM     28  C   UNL     1       5.021   4.326  16.726  0.00  0.00    +0.000 A 
ATOM     29  C   UNL     1       3.936   4.078  17.688  0.00  0.00    +0.000 A 
ATOM     30  O   UNL     1       2.845   3.659  17.311  0.00  0.00    +0.000 OA
ENDBRANCH  18  19
ENDBRANCH   2  18
TORSDOF 4
ENDMDL
MODEL 3
REMARK VINA RESULT:      -8.5      1.769      2.533
REMARK  Name = 
REMARK  4 active torsions:
REMARK  status: ('A' for Active; 'I' for Inactive)
REMARK    1  A    between atoms: C_2  and  C_3
REMARK    2  A    between atoms: C_3  and  N_4
REMARK    3  A    between atoms: N_16  and  C_17
REMARK    4  A    between atoms: C_22  and  C_23
REMARK                            x       y       z     vdW  Elec       q    Type
REMARK                         _______ _______ _______ _____ _____    ______ ____
ROOT
ATOM      1  O   UNL     1       5.170   7.457  17.829  0.00  0.00    +0.000 OA
ATOM      2  C   UNL     1       4.723   6.360  18.180  0.00  0.00    +0.000 C 
ATOM      3  N   UNL     1       3.456   6.124  18.708  0.00  0.00    +0.000 N 
ATOM      4  H   UNL     1       3.257   5.196  19.078  0.00  0.00    +0.000 HD
ENDROOT
BRANCH   3   5
ATOM      5  C   UNL     1       2.517   7.158  18.964  0.00  0.00    +0.000 A 
ATOM      6  C   UNL     1       2.169   8.061  17.945  0.00  0.00    +0.000 A 
ATOM      7  C   UNL     1       1.412   9.204  18.180  0.00  0.00    +0.000 A 
ATOM      8  C   UNL     1       0.999   9.375  19.483  0.00  0.00    +0.000 A 
ATOM      9  O   UNL     1       0.315  10.440  19.958  0.00  0.00    +0.000 OA
ATOM     10  C   UNL     1       0.148  10.173  21.295  0.00  0.00    +0.000 A 
ATOM     11  N   UNL     1       0.659   9.001  21.674  0.00  0.00    +0.000 NA
ATOM     12  C   UNL     1       1.226   8.489  20.520  0.00  0.00    +0.000 A 
ATOM     13  C   UNL     1       1.974   7.317  20.259  0.00  0.00    +0.000 A 
BRANCH  10  14
ATOM     14  C   UNL     1      -0.560  11.253  22.057  0.00  0.00    +0.000 C 
ATOM     15  F   UNL     1       0.179  12.398  22.139  0.00  0.00    +0.000 F 
ATOM     16  F   UNL     1      -1.741  11.610  21.481  0.00  0.00    +0.000 F 
ATOM     17  F   UNL     1      -0.839  10.897  23.340  0.00  0.00    +0.000 F 
ENDBRANCH  10  14
ENDBRANCH   3   5
BRANCH   2  18
ATOM     18  C   UNL     1       5.609   5.138  18.004  0.00  0.00    +0.000 C 
BRANCH  18  19
ATOM     19  N   UNL     1       6.035   5.046  16.622  0.00  0.00    +0.000 N 
ATOM     20  C   UNL     1       7.215   5.619  16.213  0.00  0.00    +0.000 A 
ATOM     21  N   UNL     1       7.700   5.526  15.021  0.00  0.00    +0.000 NA
ATOM     22  C   UNL     1       6.978   4.778  14.081  0.00  0.00    +0.000 A 
ATOM     23  C   UNL     1       7.522   4.584  12.805  0.00  0.00    +0.000 A 
ATOM     24  C   UNL     1       6.836   3.825  11.854  0.00  0.00    +0.000 A 
ATOM     25  C   UNL     1       5.598   3.267  12.179  0.00  0.00    +0.000 A 
ATOM     26  F   UNL     1       4.954   2.527  11.269  0.00  0.00    +0.000 F 
ATOM     27  C   UNL     1       5.039   3.456  13.431  0.00  0.00    +0.000 A 
ATOM     28  C   UNL     1       5.737   4.209  14.374  0.00  0.00    +0.000 A 
ATOM     29  C   UNL     1       5.208   4.388  15.735  0.00  0.00    +0.000 A 
ATOM     30  O   UNL     1       4.096   3.964  16.038  0.00  0.00    +0.000 OA
ENDBRANCH  18  19
ENDBRANCH   2  18
TORSDOF 4
ENDMDL
MODEL 4
REMARK VINA RESULT:      -8.4      2.132      2.897
REMARK  Name = 
REMARK  4 active torsions:
REMARK  status: ('A' for Active; 'I' for Inactive)
REMARK    1  A    between atoms: C_2  and  C_3
REMARK    2  A    between atoms: C_3  and  N_4
REMARK    3  A    between atoms: N_16  and  C_17
REMARK    4  A    between atoms: C_22  and  C_23
REMARK                            x       y       z     vdW  Elec       q    Type
REMARK                         _______ _______ _______ _____ _____    ______ ____
ROOT
ATOM      1  O   UNL     1       0.816   4.977  20.484  0.00  0.00    +0.000 OA
ATOM      2  C   UNL     1       2.022   5.242  20.456  0.00  0.00    +0.000 C 
ATOM      3  N   UNL     1       2.579   6.518  20.445  0.00  0.00    +0.000 N 
ATOM      4  H   UNL     1       3.582   6.601  20.291  0.00  0.00    +0.000 HD
ENDROOT
BRANCH   3   5
ATOM      5  C   UNL     1       1.799   7.705  20.411  0.00  0.00    +0.000 A 
ATOM      6  C   UNL     1       1.038   8.080  21.531  0.00  0.00    +0.000 A 
ATOM      7  C   UNL     1       0.109   9.115  21.496  0.00  0.00    +0.000 A 
ATOM      8  C   UNL     1       0.007   9.770  20.288  0.00  0.00    +0.000 A 
ATOM      9  O   UNL     1      -0.871  10.757  20.000  0.00  0.00    +0.000 OA
ATOM     10  C   UNL     1      -0.609  11.078  18.691  0.00  0.00    +0.000 A 
ATOM     11  N   UNL     1       0.391  10.375  18.157  0.00  0.00    +0.000 NA
ATOM     12  C   UNL     1       0.782   9.518  19.170  0.00  0.00    +0.000 A 
ATOM     13  C   UNL     1       1.741   8.480  19.231  0.00  0.00    +0.000 A 
BRANCH  10  14
ATOM     14  C   UNL     1      -1.504  12.139  18.124  0.00  0.00    +0.000 C 
ATOM     15  F   UNL     1      -2.150  11.723  16.996  0.00  0.00    +0.000 F 
ATOM     16  F   UNL     1      -2.479  12.519  18.995  0.00  0.00    +0.000 F 
ATOM     17  F   UNL     1      -0.828  13.267  17.772  0.00  0.00    +0.000 F 
ENDBRANCH  10  14
ENDBRANCH   3   5
BRANCH   2  18
ATOM     18  C   UNL     1       3.007   4.085  20.459  0.00  0.00    +0.000 C 
BRANCH  18  19
ATOM     19  N   UNL     1       3.621   3.973  19.151  0.00  0.00    +0.000 N 
ATOM     20  C   UNL     1       3.045   3.201  18.171  0.00  0.00    +0.000 A 
ATOM     21  N   UNL     1       3.487   3.100  16.963  0.00  0.00    +0.000 NA
ATOM     22  C   UNL     1       4.627   3.841  16.624  0.00  0.00    +0.000 A 
ATOM     23  C   UNL     1       5.079   3.824  15.297  0.00  0.00    +0.000 A 
ATOM     24  C   UNL     1       6.199   4.569  14.924  0.00  0.00    +0.000 A 
ATOM     25  C   UNL     1       6.876   5.325  15.883  0.00  0.00    +0.000 A 
ATOM     26  F   UNL     1       7.939   6.051  15.516  0.00  0.00    +0.000 F 
ATOM     27  C   UNL     1       6.452   5.348  17.201  0.00  0.00    +0.000 A 
ATOM     28  C   UNL     1       5.327   4.607  17.559  0.00  0.00    +0.000 A 
ATOM     29  C   UNL     1       4.807   4.645  18.935  0.00  0.00    +0.000 A 
ATOM     30  O   UNL     1       5.409   5.250  19.818  0.00  0.00    +0.000 OA
ENDBRANCH  18  19
ENDBRANCH   2  18
TORSDOF 4
ENDMDL
MODEL 5
REMARK VINA RESULT:      -8.4      6.836      8.385
REMARK  Name = 
REMARK  4 active torsions:
REMARK  status: ('A' for Active; 'I' for Inactive)
REMARK    1  A    between atoms: C_2  and  C_3
REMARK    2  A    between atoms: C_3  and  N_4
REMARK    3  A    between atoms: N_16  and  C_17
REMARK    4  A    between atoms: C_22  and  C_23
REMARK                            x       y       z     vdW  Elec       q    Type
REMARK                         _______ _______ _______ _____ _____    ______ ____
ROOT
ATOM      1  O   UNL     1       7.332   8.889  17.273  0.00  0.00    +0.000 OA
ATOM      2  C   UNL     1       8.003   8.183  18.033  0.00  0.00    +0.000 C 
ATOM      3  N   UNL     1       8.916   8.639  18.980  0.00  0.00    +0.000 N 
ATOM      4  H   UNL     1       9.499   7.951  19.453  0.00  0.00    +0.000 HD
ENDROOT
BRANCH   3   5
ATOM      5  C   UNL     1       9.233  10.013  19.155  0.00  0.00    +0.000 A 
ATOM      6  C   UNL     1       9.158  10.595  20.432  0.00  0.00    +0.000 A 
ATOM      7  C   UNL     1       9.264  11.967  20.639  0.00  0.00    +0.000 A 
ATOM      8  C   UNL     1       9.477  12.716  19.503  0.00  0.00    +0.000 A 
ATOM      9  O   UNL     1       9.544  14.066  19.451  0.00  0.00    +0.000 OA
ATOM     10  C   UNL     1       9.750  14.349  18.124  0.00  0.00    +0.000 A 
ATOM     11  N   UNL     1       9.842  13.265  17.353  0.00  0.00    +0.000 NA
ATOM     12  C   UNL     1       9.649  12.210  18.227  0.00  0.00    +0.000 A 
ATOM     13  C   UNL     1       9.566  10.810  18.037  0.00  0.00    +0.000 A 
BRANCH  10  14
ATOM     14  C   UNL     1       9.815  15.814  17.807  0.00  0.00    +0.000 C 
ATOM     15  F   UNL     1      10.563  16.070  16.695  0.00  0.00    +0.000 F 
ATOM     16  F   UNL     1       8.587  16.350  17.565  0.00  0.00    +0.000 F 
ATOM     17  F   UNL     1      10.374  16.545  18.809  0.00  0.00    +0.000 F 
ENDBRANCH  10  14
ENDBRANCH   3   5
BRANCH   2  18
ATOM     18  C   UNL     1       7.814   6.677  17.962  0.00  0.00    +0.000 C 
BRANCH  18  19
ATOM     19  N   UNL     1       6.399   6.366  18.024  0.00  0.00    +0.000 N 
ATOM     20  C   UNL     1       5.522   6.915  17.120  0.00  0.00    +0.000 A 
ATOM     21  N   UNL     1       4.262   6.640  17.062  0.00  0.00    +0.000 NA
ATOM     22  C   UNL     1       3.758   5.705  17.976  0.00  0.00    +0.000 A 
ATOM     23  C   UNL     1       2.415   5.317  17.880  0.00  0.00    +0.000 A 
ATOM     24  C   UNL     1       1.890   4.371  18.763  0.00  0.00    +0.000 A 
ATOM     25  C   UNL     1       2.708   3.819  19.750  0.00  0.00    +0.000 A 
ATOM     26  F   UNL     1       2.202   2.900  20.582  0.00  0.00    +0.000 F 
ATOM     27  C   UNL     1       4.034   4.196  19.868  0.00  0.00    +0.000 A 
ATOM     28  C   UNL     1       4.549   5.135  18.976  0.00  0.00    +0.000 A 
ATOM     29  C   UNL     1       5.968   5.523  19.028  0.00  0.00    +0.000 A 
ATOM     30  O   UNL     1       6.702   5.105  19.919  0.00  0.00    +0.000 OA
ENDBRANCH  18  19
ENDBRANCH   2  18
TORSDOF 4
ENDMDL
MODEL 6
REMARK VINA RESULT:      -8.4      1.193      1.671
REMARK  Name = 
REMARK  4 active torsions:
REMARK  status: ('A' for Active; 'I' for Inactive)
REMARK    1  A    between atoms: C_2  and  C_3
REMARK    2  A    between atoms: C_3  and  N_4
REMARK    3  A    between atoms: N_16  and  C_17
REMARK    4  A    between atoms: C_22  and  C_23
REMARK                            x       y       z     vdW  Elec       q    Type
REMARK                         _______ _______ _______ _____ _____    ______ ____
ROOT
ATOM      1  O   UNL     1       1.154   4.911  20.497  0.00  0.00    +0.000 OA
ATOM      2  C   UNL     1       2.308   5.330  20.369  0.00  0.00    +0.000 C 
ATOM      3  N   UNL     1       2.691   6.668  20.312  0.00  0.00    +0.000 N 
ATOM      4  H   UNL     1       3.659   6.879  20.075  0.00  0.00    +0.000 HD
ENDROOT
BRANCH   3   5
ATOM      5  C   UNL     1       1.763   7.743  20.342  0.00  0.00    +0.000 A 
ATOM      6  C   UNL     1       1.644   8.600  19.234  0.00  0.00    +0.000 A 
ATOM      7  C   UNL     1       0.903   9.777  19.272  0.00  0.00    +0.000 A 
ATOM      8  C   UNL     1       0.268  10.031  20.468  0.00  0.00    +0.000 A 
ATOM      9  O   UNL     1      -0.447  11.141  20.759  0.00  0.00    +0.000 OA
ATOM     10  C   UNL     1      -0.865  10.952  22.053  0.00  0.00    +0.000 A 
ATOM     11  N   UNL     1      -0.479   9.787  22.575  0.00  0.00    +0.000 NA
ATOM     12  C   UNL     1       0.266   9.195  21.570  0.00  0.00    +0.000 A 
ATOM     13  C   UNL     1       1.002   7.989  21.506  0.00  0.00    +0.000 A 
BRANCH  10  14
ATOM     14  C   UNL     1      -1.655  12.093  22.620  0.00  0.00    +0.000 C 
ATOM     15  F   UNL     1      -2.634  11.672  23.472  0.00  0.00    +0.000 F 
ATOM     16  F   UNL     1      -0.882  12.957  23.335  0.00  0.00    +0.000 F 
ATOM     17  F   UNL     1      -2.284  12.827  21.663  0.00  0.00    +0.000 F 
ENDBRANCH  10  14
ENDBRANCH   3   5
BRANCH   2  18
ATOM     18  C   UNL     1       3.433   4.312  20.290  0.00  0.00    +0.000 C 
BRANCH  18  19
ATOM     19  N   UNL     1       3.862   4.173  18.913  0.00  0.00    +0.000 N 
ATOM     20  C   UNL     1       3.000   3.691  17.957  0.00  0.00    +0.000 A 
ATOM     21  N   UNL     1       3.278   3.600  16.700  0.00  0.00    +0.000 NA
ATOM     22  C   UNL     1       4.542   4.036  16.280  0.00  0.00    +0.000 A 
ATOM     23  C   UNL     1       4.841   4.034  14.910  0.00  0.00    +0.000 A 
ATOM     24  C   UNL     1       6.084   4.483  14.460  0.00  0.00    +0.000 A 
ATOM     25  C   UNL     1       7.034   4.925  15.382  0.00  0.00    +0.000 A 
ATOM     26  F   UNL     1       8.218   5.370  14.942  0.00  0.00    +0.000 F 
ATOM     27  C   UNL     1       6.763   4.926  16.739  0.00  0.00    +0.000 A 
ATOM     28  C   UNL     1       5.515   4.483  17.176  0.00  0.00    +0.000 A 
ATOM     29  C   UNL     1       5.162   4.519  18.604  0.00  0.00    +0.000 A 
ATOM     30  O   UNL     1       5.992   4.843  19.449  0.00  0.00    +0.000 OA
ENDBRANCH  18  19
ENDBRANCH   2  18
TORSDOF 4
ENDMDL
MODEL 7
REMARK VINA RESULT:      -8.4      1.155      1.363
REMARK  Name = 
REMARK  4 active torsions:
REMARK  status: ('A' for Active; 'I' for Inactive)
REMARK    1  A    between atoms: C_2  and  C_3
REMARK    2  A    between atoms: C_3  and  N_4
REMARK    3  A    between atoms: N_16  and  C_17
REMARK    4  A    between atoms: C_22  and  C_23
REMARK                            x       y       z     vdW  Elec       q    Type
REMARK                         _______ _______ _______ _____ _____    ______ ____
ROOT
ATOM      1  O   UNL     1       2.642   4.426  20.239  0.00  0.00    +0.000 OA
ATOM      2  C   UNL     1       3.598   4.824  19.566  0.00  0.00    +0.000 C 
ATOM      3  N   UNL     1       3.735   6.094  19.011  0.00  0.00    +0.000 N 
ATOM      4  H   UNL     1       4.510   6.255  18.370  0.00  0.00    +0.000 HD
ENDROOT
BRANCH   3   5
ATOM      5  C   UNL     1       2.736   7.099  19.113  0.00  0.00    +0.000 A 
ATOM      6  C   UNL     1       2.446   7.917  18.007  0.00  0.00    +0.000 A 
ATOM      7  C   UNL     1       1.626   9.037  18.097  0.00  0.00    +0.000 A 
ATOM      8  C   UNL     1       1.090   9.272  19.345  0.00  0.00    +0.000 A 
ATOM      9  O   UNL     1       0.324  10.334  19.684  0.00  0.00    +0.000 OA
ATOM     10  C   UNL     1       0.047  10.145  21.016  0.00  0.00    +0.000 A 
ATOM     11  N   UNL     1       0.568   9.025  21.518  0.00  0.00    +0.000 NA
ATOM     12  C   UNL     1       1.257   8.466  20.455  0.00  0.00    +0.000 A 
ATOM     13  C   UNL     1       2.072   7.315  20.341  0.00  0.00    +0.000 A 
BRANCH  10  14
ATOM     14  C   UNL     1      -0.769  11.239  21.638  0.00  0.00    +0.000 C 
ATOM     15  F   UNL     1      -1.409  10.826  22.771  0.00  0.00    +0.000 F 
ATOM     16  F   UNL     1      -0.012  12.310  22.004  0.00  0.00    +0.000 F 
ATOM     17  F   UNL     1      -1.741  11.708  20.810  0.00  0.00    +0.000 F 
ENDBRANCH  10  14
ENDBRANCH   3   5
BRANCH   2  18
ATOM     18  C   UNL     1       4.753   3.866  19.329  0.00  0.00    +0.000 C 
BRANCH  18  19
ATOM     19  N   UNL     1       5.422   4.214  18.091  0.00  0.00    +0.000 N 
ATOM     20  C   UNL     1       6.639   4.850  18.109  0.00  0.00    +0.000 A 
ATOM     21  N   UNL     1       7.332   5.134  17.058  0.00  0.00    +0.000 NA
ATOM     22  C   UNL     1       6.812   4.754  15.813  0.00  0.00    +0.000 A 
ATOM     23  C   UNL     1       7.582   4.966  14.661  0.00  0.00    +0.000 A 
ATOM     24  C   UNL     1       7.099   4.578  13.410  0.00  0.00    +0.000 A 
ATOM     25  C   UNL     1       5.839   3.984  13.309  0.00  0.00    +0.000 A 
ATOM     26  F   UNL     1       5.390   3.599  12.109  0.00  0.00    +0.000 F 
ATOM     27  C   UNL     1       5.060   3.774  14.433  0.00  0.00    +0.000 A 
ATOM     28  C   UNL     1       5.556   4.159  15.678  0.00  0.00    +0.000 A 
ATOM     29  C   UNL     1       4.786   3.904  16.906  0.00  0.00    +0.000 A 
ATOM     30  O   UNL     1       3.650   3.440  16.852  0.00  0.00    +0.000 OA
ENDBRANCH  18  19
ENDBRANCH   2  18
TORSDOF 4
ENDMDL
MODEL 8
REMARK VINA RESULT:      -8.4      1.011      1.391
REMARK  Name = 
REMARK  4 active torsions:
REMARK  status: ('A' for Active; 'I' for Inactive)
REMARK    1  A    between atoms: C_2  and  C_3
REMARK    2  A    between atoms: C_3  and  N_4
REMARK    3  A    between atoms: N_16  and  C_17
REMARK    4  A    between atoms: C_22  and  C_23
REMARK                            x       y       z     vdW  Elec       q    Type
REMARK                         _______ _______ _______ _____ _____    ______ ____
ROOT
ATOM      1  O   UNL     1       2.026   5.260  18.252  0.00  0.00    +0.000 OA
ATOM      2  C   UNL     1       3.043   5.587  18.873  0.00  0.00    +0.000 C 
ATOM      3  N   UNL     1       3.192   6.731  19.653  0.00  0.00    +0.000 N 
ATOM      4  H   UNL     1       4.121   6.950  20.007  0.00  0.00    +0.000 HD
ENDROOT
BRANCH   3   5
ATOM      5  C   UNL     1       2.178   7.716  19.789  0.00  0.00    +0.000 A 
ATOM      6  C   UNL     1       1.920   8.610  18.736  0.00  0.00    +0.000 A 
ATOM      7  C   UNL     1       1.084   9.713  18.876  0.00  0.00    +0.000 A 
ATOM      8  C   UNL     1       0.499   9.852  20.116  0.00  0.00    +0.000 A 
ATOM      9  O   UNL     1      -0.292  10.878  20.502  0.00  0.00    +0.000 OA
ATOM     10  C   UNL     1      -0.616  10.591  21.805  0.00  0.00    +0.000 A 
ATOM     11  N   UNL     1      -0.101   9.442  22.243  0.00  0.00    +0.000 NA
ATOM     12  C   UNL     1       0.634   8.968  21.170  0.00  0.00    +0.000 A 
ATOM     13  C   UNL     1       1.466   7.836  21.004  0.00  0.00    +0.000 A 
BRANCH  10  14
ATOM     14  C   UNL     1      -1.468  11.628  22.473  0.00  0.00    +0.000 C 
ATOM     15  F   UNL     1      -2.351  12.208  21.610  0.00  0.00    +0.000 F 
ATOM     16  F   UNL     1      -2.218  11.114  23.486  0.00  0.00    +0.000 F 
ATOM     17  F   UNL     1      -0.739  12.649  23.002  0.00  0.00    +0.000 F 
ENDBRANCH  10  14
ENDBRANCH   3   5
BRANCH   2  18
ATOM     18  C   UNL     1       4.244   4.659  18.816  0.00  0.00    +0.000 C 
BRANCH  18  19
ATOM     19  N   UNL     1       4.986   4.906  17.595  0.00  0.00    +0.000 N 
ATOM     20  C   UNL     1       5.961   5.873  17.552  0.00  0.00    +0.000 A 
ATOM     21  N   UNL     1       6.712   6.111  16.530  0.00  0.00    +0.000 NA
ATOM     22  C   UNL     1       6.529   5.318  15.389  0.00  0.00    +0.000 A 
ATOM     23  C   UNL     1       7.389   5.491  14.296  0.00  0.00    +0.000 A 
ATOM     24  C   UNL     1       7.245   4.700  13.154  0.00  0.00    +0.000 A 
ATOM     25  C   UNL     1       6.232   3.741  13.102  0.00  0.00    +0.000 A 
ATOM     26  F   UNL     1       6.110   2.975  12.011  0.00  0.00    +0.000 F 
ATOM     27  C   UNL     1       5.366   3.561  14.167  0.00  0.00    +0.000 A 
ATOM     28  C   UNL     1       5.525   4.351  15.305  0.00  0.00    +0.000 A 
ATOM     29  C   UNL     1       4.664   4.156  16.482  0.00  0.00    +0.000 A 
ATOM     30  O   UNL     1       3.725   3.365  16.451  0.00  0.00    +0.000 OA
ENDBRANCH  18  19
ENDBRANCH   2  18
TORSDOF 4
ENDMDL
MODEL 9
REMARK VINA RESULT:      -8.1      3.669     10.341
REMARK  Name = 
REMARK  4 active torsions:
REMARK  status: ('A' for Active; 'I' for Inactive)
REMARK    1  A    between atoms: C_2  and  C_3
REMARK    2  A    between atoms: C_3  and  N_4
REMARK    3  A    between atoms: N_16  and  C_17
REMARK    4  A    between atoms: C_22  and  C_23
REMARK                            x       y       z     vdW  Elec       q    Type
REMARK                         _______ _______ _______ _____ _____    ______ ____
ROOT
ATOM      1  O   UNL     1      -0.987   9.666  19.334  0.00  0.00    +0.000 OA
ATOM      2  C   UNL     1      -0.046  10.398  19.656  0.00  0.00    +0.000 C 
ATOM      3  N   UNL     1       1.289  10.015  19.760  0.00  0.00    +0.000 N 
ATOM      4  H   UNL     1       1.948  10.681  20.160  0.00  0.00    +0.000 HD
ENDROOT
BRANCH   3   5
ATOM      5  C   UNL     1       1.734   8.682  19.553  0.00  0.00    +0.000 A 
ATOM      6  C   UNL     1       2.210   8.287  18.291  0.00  0.00    +0.000 A 
ATOM      7  C   UNL     1       2.474   6.959  17.970  0.00  0.00    +0.000 A 
ATOM      8  C   UNL     1       2.263   6.057  18.990  0.00  0.00    +0.000 A 
ATOM      9  O   UNL     1       2.388   4.714  18.890  0.00  0.00    +0.000 OA
ATOM     10  C   UNL     1       2.065   4.246  20.139  0.00  0.00    +0.000 A 
ATOM     11  N   UNL     1       1.776   5.210  21.014  0.00  0.00    +0.000 NA
ATOM     12  C   UNL     1       1.882   6.378  20.280  0.00  0.00    +0.000 A 
ATOM     13  C   UNL     1       1.644   7.735  20.598  0.00  0.00    +0.000 A 
BRANCH  10  14
ATOM     14  C   UNL     1       2.089   2.752  20.265  0.00  0.00    +0.000 C 
ATOM     15  F   UNL     1       1.242   2.145  19.384  0.00  0.00    +0.000 F 
ATOM     16  F   UNL     1       3.322   2.228  20.020  0.00  0.00    +0.000 F 
ATOM     17  F   UNL     1       1.716   2.320  21.500  0.00  0.00    +0.000 F 
ENDBRANCH  10  14
ENDBRANCH   3   5
BRANCH   2  18
ATOM     18  C   UNL     1      -0.344  11.859  19.945  0.00  0.00    +0.000 C 
BRANCH  18  19
ATOM     19  N   UNL     1      -1.314  11.950  21.018  0.00  0.00    +0.000 N 
ATOM     20  C   UNL     1      -0.973  11.596  22.301  0.00  0.00    +0.000 A 
ATOM     21  N   UNL     1      -1.751  11.710  23.324  0.00  0.00    +0.000 NA
ATOM     22  C   UNL     1      -3.029  12.245  23.112  0.00  0.00    +0.000 A 
ATOM     23  C   UNL     1      -3.865  12.466  24.216  0.00  0.00    +0.000 A 
ATOM     24  C   UNL     1      -5.135  13.017  24.038  0.00  0.00    +0.000 A 
ATOM     25  C   UNL     1      -5.575  13.339  22.753  0.00  0.00    +0.000 A 
ATOM     26  F   UNL     1      -6.787  13.884  22.591  0.00  0.00    +0.000 F 
ATOM     27  C   UNL     1      -4.769  13.120  21.649  0.00  0.00    +0.000 A 
ATOM     28  C   UNL     1      -3.499  12.577  21.840  0.00  0.00    +0.000 A 
ATOM     29  C   UNL     1      -2.587  12.379  20.702  0.00  0.00    +0.000 A 
ATOM     30  O   UNL     1      -2.960  12.594  19.552  0.00  0.00    +0.000 OA
ENDBRANCH  18  19
ENDBRANCH   2  18
TORSDOF 4
ENDMDL
