MODEL 1
REMARK VINA RESULT:      -9.4      0.000      0.000
REMARK  Name = 
REMARK  7 active torsions:
REMARK  status: ('A' for Active; 'I' for Inactive)
REMARK    1  A    between atoms: C_2  and  C_17
REMARK    2  A    between atoms: N_3  and  C_4
REMARK    3  A    between atoms: N_7  and  C_8
REMARK    4  A    between atoms: C_8  and  C_9
REMARK    5  A    between atoms: C_20  and  C_21
REMARK    6  A    between atoms: C_21  and  N_22
REMARK    7  A    between atoms: C_23  and  C_25
REMARK                            x       y       z     vdW  Elec       q    Type
REMARK                         _______ _______ _______ _____ _____    ______ ____
ROOT
ATOM      1  C   UNL     1       8.280   8.482  18.294  0.00  0.00    +0.000 A 
ATOM      2  C   UNL     1       8.542   7.486  19.239  0.00  0.00    +0.000 A 
ATOM      3  C   UNL     1       8.094   6.178  19.038  0.00  0.00    +0.000 A 
ATOM      4  C   UNL     1       7.402   5.839  17.866  0.00  0.00    +0.000 A 
ATOM      5  C   UNL     1       7.153   6.842  16.916  0.00  0.00    +0.000 A 
ATOM      6  C   UNL     1       7.596   8.156  17.118  0.00  0.00    +0.000 A 
ENDROOT
BRANCH   1   8
ATOM      7  O   UNL     1       8.467  10.788  17.853  0.00  0.00    +0.000 OA
ATOM      8  C   UNL     1       8.770   9.855  18.591  0.00  0.00    +0.000 C 
ATOM      9  N   UNL     1       9.602  10.002  19.678  0.00  0.00    +0.000 N 
ATOM     10  H   UNL     1       9.975   9.187  20.150  0.00  0.00    +0.000 HD
BRANCH   9  11
ATOM     11  C   UNL     1      10.267  11.270  19.927  0.00  0.00    +0.000 C 
ATOM     12  C   UNL     1      10.790  11.938  18.657  0.00  0.00    +0.000 C 
ATOM     13  C   UNL     1      10.680  13.420  18.950  0.00  0.00    +0.000 C 
ATOM     14  N   UNL     1       9.574  13.524  19.862  0.00  0.00    +0.000 N 
ATOM     15  C   UNL     1       9.301  12.319  20.491  0.00  0.00    +0.000 C 
ATOM     16  O   UNL     1       8.456  12.107  21.349  0.00  0.00    +0.000 OA
BRANCH  14  17
ATOM     17  C   UNL     1       8.934  14.801  20.153  0.00  0.00    +0.000 C 
BRANCH  17  18
ATOM     18  C   UNL     1       7.528  14.890  19.601  0.00  0.00    +0.000 A 
ATOM     19  C   UNL     1       6.459  15.246  20.437  0.00  0.00    +0.000 A 
ATOM     20  C   UNL     1       5.149  15.259  19.955  0.00  0.00    +0.000 A 
ATOM     21  C   UNL     1       4.892  14.957  18.620  0.00  0.00    +0.000 A 
ATOM     22  C   UNL     1       5.948  14.658  17.762  0.00  0.00    +0.000 A 
ATOM     23  C   UNL     1       7.259  14.620  18.249  0.00  0.00    +0.000 A 
ENDBRANCH  17  18
ENDBRANCH  14  17
ENDBRANCH   9  11
ENDBRANCH   1   8
BRANCH   4  24
ATOM     24  C   UNL     1       6.953   4.422  17.611  0.00  0.00    +0.000 C 
BRANCH  24  25
ATOM     25  N   UNL     1       5.798   4.053  18.396  0.00  0.00    +0.000 N 
ATOM     26  C   UNL     1       4.524   4.378  17.962  0.00  0.00    +0.000 C 
ATOM     27  O   UNL     1       4.335   5.011  16.934  0.00  0.00    +0.000 OA
ATOM     28  H   UNL     1       5.926   3.424  19.175  0.00  0.00    +0.000 HD
BRANCH  26  29
ATOM     29  C   UNL     1       3.376   3.888  18.866  0.00  0.00    +0.000 C 
ATOM     30  C   UNL     1       3.217   4.807  20.101  0.00  0.00    +0.000 C 
ATOM     31  C   UNL     1       2.071   4.302  21.003  0.00  0.00    +0.000 C 
ATOM     32  C   UNL     1       0.755   4.306  20.213  0.00  0.00    +0.000 C 
ATOM     33  C   UNL     1       0.882   3.393  18.981  0.00  0.00    +0.000 C 
ATOM     34  C   UNL     1       1.195   1.962  19.440  0.00  0.00    +0.000 C 
ATOM     35  C   UNL     1       2.504   1.941  20.241  0.00  0.00    +0.000 C 
ATOM     36  C   UNL     1       2.378   2.868  21.462  0.00  0.00    +0.000 C 
ATOM     37  C   UNL     1       3.649   2.443  19.348  0.00  0.00    +0.000 C 
ATOM     38  C   UNL     1       2.030   3.903  18.091  0.00  0.00    +0.000 C 
ENDBRANCH  26  29
ENDBRANCH  24  25
ENDBRANCH   4  24
TORSDOF 7
ENDMDL
MODEL 2
REMARK VINA RESULT:      -9.3      0.379      1.785
REMARK  Name = 
REMARK  7 active torsions:
REMARK  status: ('A' for Active; 'I' for Inactive)
REMARK    1  A    between atoms: C_2  and  C_17
REMARK    2  A    between atoms: N_3  and  C_4
REMARK    3  A    between atoms: N_7  and  C_8
REMARK    4  A    between atoms: C_8  and  C_9
REMARK    5  A    between atoms: C_20  and  C_21
REMARK    6  A    between atoms: C_21  and  N_22
REMARK    7  A    between atoms: C_23  and  C_25
REMARK                            x       y       z     vdW  Elec       q    Type
REMARK                         _______ _______ _______ _____ _____    ______ ____
ROOT
ATOM      1  C   UNL     1       8.305   8.481  18.254  0.00  0.00    +0.000 A 
ATOM      2  C   UNL     1       7.609   8.147  17.088  0.00  0.00    +0.000 A 
ATOM      3  C   UNL     1       7.188   6.834  16.863  0.00  0.00    +0.000 A 
ATOM      4  C   UNL     1       7.428   5.839  17.821  0.00  0.00    +0.000 A 
ATOM      5  C   UNL     1       8.117   6.184  18.994  0.00  0.00    +0.000 A 
ATOM      6  C   UNL     1       8.547   7.498  19.220  0.00  0.00    +0.000 A 
ENDROOT
BRANCH   1   8
ATOM      7  O   UNL     1       8.247  10.771  17.708  0.00  0.00    +0.000 OA
ATOM      8  C   UNL     1       8.742   9.895  18.411  0.00  0.00    +0.000 C 
ATOM      9  N   UNL     1       9.740  10.145  19.324  0.00  0.00    +0.000 N 
ATOM     10  H   UNL     1      10.248   9.378  19.750  0.00  0.00    +0.000 HD
BRANCH   9  11
ATOM     11  C   UNL     1      10.348  11.463  19.406  0.00  0.00    +0.000 C 
ATOM     12  C   UNL     1      10.609  12.094  18.039  0.00  0.00    +0.000 C 
ATOM     13  C   UNL     1      10.446  13.579  18.283  0.00  0.00    +0.000 C 
ATOM     14  N   UNL     1       9.498  13.664  19.362  0.00  0.00    +0.000 N 
ATOM     15  C   UNL     1       9.415  12.479  20.078  0.00  0.00    +0.000 C 
ATOM     16  O   UNL     1       8.738  12.262  21.072  0.00  0.00    +0.000 OA
BRANCH  14  17
ATOM     17  C   UNL     1       8.827  14.912  19.700  0.00  0.00    +0.000 C 
BRANCH  17  18
ATOM     18  C   UNL     1       7.344  14.879  19.402  0.00  0.00    +0.000 A 
ATOM     19  C   UNL     1       6.888  14.632  18.099  0.00  0.00    +0.000 A 
ATOM     20  C   UNL     1       5.526  14.673  17.798  0.00  0.00    +0.000 A 
ATOM     21  C   UNL     1       4.595  14.921  18.804  0.00  0.00    +0.000 A 
ATOM     22  C   UNL     1       5.027  15.112  20.115  0.00  0.00    +0.000 A 
ATOM     23  C   UNL     1       6.394  15.095  20.413  0.00  0.00    +0.000 A 
ENDBRANCH  17  18
ENDBRANCH  14  17
ENDBRANCH   9  11
ENDBRANCH   1   8
BRANCH   4  24
ATOM     24  C   UNL     1       6.938   4.427  17.614  0.00  0.00    +0.000 C 
BRANCH  24  25
ATOM     25  N   UNL     1       5.796   4.106  18.439  0.00  0.00    +0.000 N 
ATOM     26  C   UNL     1       4.520   4.460  18.034  0.00  0.00    +0.000 C 
ATOM     27  O   UNL     1       4.320   5.078  17.000  0.00  0.00    +0.000 OA
ATOM     28  H   UNL     1       5.929   3.489  19.226  0.00  0.00    +0.000 HD
BRANCH  26  29
ATOM     29  C   UNL     1       3.386   4.020  18.981  0.00  0.00    +0.000 C 
ATOM     30  C   UNL     1       2.110   3.660  18.182  0.00  0.00    +0.000 C 
ATOM     31  C   UNL     1       0.980   3.229  19.140  0.00  0.00    +0.000 C 
ATOM     32  C   UNL     1       1.425   1.996  19.940  0.00  0.00    +0.000 C 
ATOM     33  C   UNL     1       2.689   2.329  20.751  0.00  0.00    +0.000 C 
ATOM     34  C   UNL     1       2.384   3.479  21.720  0.00  0.00    +0.000 C 
ATOM     35  C   UNL     1       1.927   4.718  20.937  0.00  0.00    +0.000 C 
ATOM     36  C   UNL     1       0.673   4.377  20.115  0.00  0.00    +0.000 C 
ATOM     37  C   UNL     1       3.049   5.151  19.981  0.00  0.00    +0.000 C 
ATOM     38  C   UNL     1       3.809   2.760  19.786  0.00  0.00    +0.000 C 
ENDBRANCH  26  29
ENDBRANCH  24  25
ENDBRANCH   4  24
TORSDOF 7
ENDMDL
MODEL 3
REMARK VINA RESULT:      -9.3      8.071     10.050
REMARK  Name = 
REMARK  7 active torsions:
REMARK  status: ('A' for Active; 'I' for Inactive)
REMARK    1  A    between atoms: C_2  and  C_17
REMARK    2  A    between atoms: N_3  and  C_4
REMARK    3  A    between atoms: N_7  and  C_8
REMARK    4  A    between atoms: C_8  and  C_9
REMARK    5  A    between atoms: C_20  and  C_21
REMARK    6  A    between atoms: C_21  and  N_22
REMARK    7  A    between atoms: C_23  and  C_25
REMARK                            x       y       z     vdW  Elec       q    Type
REMARK                         _______ _______ _______ _____ _____    ______ ____
ROOT
ATOM      1  C   UNL     1      -0.761  10.999  21.323  0.00  0.00    +0.000 A 
ATOM      2  C   UNL     1      -0.664  11.211  19.944  0.00  0.00    +0.000 A 
ATOM      3  C   UNL     1       0.238  10.475  19.172  0.00  0.00    +0.000 A 
ATOM      4  C   UNL     1       1.037   9.488  19.766  0.00  0.00    +0.000 A 
ATOM      5  C   UNL     1       0.927   9.272  21.149  0.00  0.00    +0.000 A 
ATOM      6  C   UNL     1       0.028  10.013  21.927  0.00  0.00    +0.000 A 
ENDROOT
BRANCH   1   8
ATOM      7  O   UNL     1      -2.078  11.504  23.208  0.00  0.00    +0.000 OA
ATOM      8  C   UNL     1      -1.728  11.838  22.080  0.00  0.00    +0.000 C 
ATOM      9  N   UNL     1      -2.231  12.947  21.439  0.00  0.00    +0.000 N 
ATOM     10  H   UNL     1      -2.060  13.088  20.450  0.00  0.00    +0.000 HD
BRANCH   9  11
ATOM     11  C   UNL     1      -3.312  13.713  22.037  0.00  0.00    +0.000 C 
ATOM     12  C   UNL     1      -3.225  15.210  21.747  0.00  0.00    +0.000 C 
ATOM     13  C   UNL     1      -4.671  15.660  21.700  0.00  0.00    +0.000 C 
ATOM     14  N   UNL     1      -5.392  14.500  21.249  0.00  0.00    +0.000 N 
ATOM     15  C   UNL     1      -4.676  13.330  21.446  0.00  0.00    +0.000 C 
ATOM     16  O   UNL     1      -5.044  12.188  21.210  0.00  0.00    +0.000 OA
BRANCH  14  17
ATOM     17  C   UNL     1      -6.766  14.588  20.770  0.00  0.00    +0.000 C 
BRANCH  17  18
ATOM     18  C   UNL     1      -6.858  14.633  19.261  0.00  0.00    +0.000 A 
ATOM     19  C   UNL     1      -6.798  15.859  18.582  0.00  0.00    +0.000 A 
ATOM     20  C   UNL     1      -6.956  15.918  17.197  0.00  0.00    +0.000 A 
ATOM     21  C   UNL     1      -7.135  14.749  16.463  0.00  0.00    +0.000 A 
ATOM     22  C   UNL     1      -7.139  13.517  17.113  0.00  0.00    +0.000 A 
ATOM     23  C   UNL     1      -7.005  13.458  18.506  0.00  0.00    +0.000 A 
ENDBRANCH  17  18
ENDBRANCH  14  17
ENDBRANCH   9  11
ENDBRANCH   1   8
BRANCH   4  24
ATOM     24  C   UNL     1       1.982   8.652  18.938  0.00  0.00    +0.000 C 
BRANCH  24  25
ATOM     25  N   UNL     1       1.850   7.237  19.199  0.00  0.00    +0.000 N 
ATOM     26  C   UNL     1       2.758   6.340  18.663  0.00  0.00    +0.000 C 
ATOM     27  O   UNL     1       3.667   6.701  17.931  0.00  0.00    +0.000 OA
ATOM     28  H   UNL     1       1.188   6.936  19.899  0.00  0.00    +0.000 HD
BRANCH  26  29
ATOM     29  C   UNL     1       2.533   4.865  19.054  0.00  0.00    +0.000 C 
ATOM     30  C   UNL     1       1.948   4.063  17.867  0.00  0.00    +0.000 C 
ATOM     31  C   UNL     1       1.719   2.593  18.273  0.00  0.00    +0.000 C 
ATOM     32  C   UNL     1       3.056   1.960  18.684  0.00  0.00    +0.000 C 
ATOM     33  C   UNL     1       3.658   2.733  19.870  0.00  0.00    +0.000 C 
ATOM     34  C   UNL     1       2.685   2.682  21.056  0.00  0.00    +0.000 C 
ATOM     35  C   UNL     1       1.339   3.303  20.658  0.00  0.00    +0.000 C 
ATOM     36  C   UNL     1       0.749   2.536  19.462  0.00  0.00    +0.000 C 
ATOM     37  C   UNL     1       1.560   4.768  20.253  0.00  0.00    +0.000 C 
ATOM     38  C   UNL     1       3.878   4.199  19.456  0.00  0.00    +0.000 C 
ENDBRANCH  26  29
ENDBRANCH  24  25
ENDBRANCH   4  24
TORSDOF 7
ENDMDL
MODEL 4
REMARK VINA RESULT:      -9.2      7.477      9.365
REMARK  Name = 
REMARK  7 active torsions:
REMARK  status: ('A' for Active; 'I' for Inactive)
REMARK    1  A    between atoms: C_2  and  C_17
REMARK    2  A    between atoms: N_3  and  C_4
REMARK    3  A    between atoms: N_7  and  C_8
REMARK    4  A    between atoms: C_8  and  C_9
REMARK    5  A    between atoms: C_20  and  C_21
REMARK    6  A    between atoms: C_21  and  N_22
REMARK    7  A    between atoms: C_23  and  C_25
REMARK                            x       y       z     vdW  Elec       q    Type
REMARK                         _______ _______ _______ _____ _____    ______ ____
ROOT
ATOM      1  C   UNL     1       0.214  10.727  21.132  0.00  0.00    +0.000 A 
ATOM      2  C   UNL     1       0.750   9.470  21.432  0.00  0.00    +0.000 A 
ATOM      3  C   UNL     1       1.302   8.673  20.426  0.00  0.00    +0.000 A 
ATOM      4  C   UNL     1       1.357   9.138  19.104  0.00  0.00    +0.000 A 
ATOM      5  C   UNL     1       0.827  10.405  18.812  0.00  0.00    +0.000 A 
ATOM      6  C   UNL     1       0.267  11.204  19.818  0.00  0.00    +0.000 A 
ENDROOT
BRANCH   1   8
ATOM      7  O   UNL     1      -0.438  11.014  23.376  0.00  0.00    +0.000 OA
ATOM      8  C   UNL     1      -0.377  11.505  22.253  0.00  0.00    +0.000 C 
ATOM      9  N   UNL     1      -0.884  12.749  21.953  0.00  0.00    +0.000 N 
ATOM     10  H   UNL     1      -0.980  13.043  20.988  0.00  0.00    +0.000 HD
BRANCH   9  11
ATOM     11  C   UNL     1      -1.638  13.494  22.948  0.00  0.00    +0.000 C 
ATOM     12  C   UNL     1      -1.777  14.978  22.616  0.00  0.00    +0.000 C 
ATOM     13  C   UNL     1      -3.121  15.361  23.199  0.00  0.00    +0.000 C 
ATOM     14  N   UNL     1      -3.896  14.152  23.137  0.00  0.00    +0.000 N 
ATOM     15  C   UNL     1      -3.097  13.024  23.026  0.00  0.00    +0.000 C 
ATOM     16  O   UNL     1      -3.462  11.858  23.001  0.00  0.00    +0.000 OA
BRANCH  14  17
ATOM     17  C   UNL     1      -5.343  14.156  23.309  0.00  0.00    +0.000 C 
BRANCH  17  18
ATOM     18  C   UNL     1      -6.075  13.560  22.127  0.00  0.00    +0.000 A 
ATOM     19  C   UNL     1      -7.081  12.602  22.324  0.00  0.00    +0.000 A 
ATOM     20  C   UNL     1      -7.710  11.992  21.238  0.00  0.00    +0.000 A 
ATOM     21  C   UNL     1      -7.372  12.358  19.938  0.00  0.00    +0.000 A 
ATOM     22  C   UNL     1      -6.416  13.349  19.724  0.00  0.00    +0.000 A 
ATOM     23  C   UNL     1      -5.767  13.945  20.811  0.00  0.00    +0.000 A 
ENDBRANCH  17  18
ENDBRANCH  14  17
ENDBRANCH   9  11
ENDBRANCH   1   8
BRANCH   4  24
ATOM     24  C   UNL     1       1.992   8.310  18.014  0.00  0.00    +0.000 C 
BRANCH  24  25
ATOM     25  N   UNL     1       1.944   6.893  18.291  0.00  0.00    +0.000 N 
ATOM     26  C   UNL     1       3.110   6.146  18.318  0.00  0.00    +0.000 C 
ATOM     27  O   UNL     1       4.200   6.644  18.077  0.00  0.00    +0.000 OA
ATOM     28  H   UNL     1       1.076   6.495  18.615  0.00  0.00    +0.000 HD
BRANCH  26  29
ATOM     29  C   UNL     1       2.928   4.657  18.669  0.00  0.00    +0.000 C 
ATOM     30  C   UNL     1       4.255   4.042  19.173  0.00  0.00    +0.000 C 
ATOM     31  C   UNL     1       4.062   2.550  19.513  0.00  0.00    +0.000 C 
ATOM     32  C   UNL     1       3.003   2.407  20.615  0.00  0.00    +0.000 C 
ATOM     33  C   UNL     1       1.668   3.003  20.138  0.00  0.00    +0.000 C 
ATOM     34  C   UNL     1       1.198   2.256  18.882  0.00  0.00    +0.000 C 
ATOM     35  C   UNL     1       2.251   2.381  17.772  0.00  0.00    +0.000 C 
ATOM     36  C   UNL     1       3.588   1.798  18.260  0.00  0.00    +0.000 C 
ATOM     37  C   UNL     1       2.448   3.866  17.429  0.00  0.00    +0.000 C 
ATOM     38  C   UNL     1       1.873   4.490  19.798  0.00  0.00    +0.000 C 
ENDBRANCH  26  29
ENDBRANCH  24  25
ENDBRANCH   4  24
TORSDOF 7
ENDMDL
MODEL 5
REMARK VINA RESULT:      -9.2      7.363      9.111
REMARK  Name = 
REMARK  7 active torsions:
REMARK  status: ('A' for Active; 'I' for Inactive)
REMARK    1  A    between atoms: C_2  and  C_17
REMARK    2  A    between atoms: N_3  and  C_4
REMARK    3  A    between atoms: N_7  and  C_8
REMARK    4  A    between atoms: C_8  and  C_9
REMARK    5  A    between atoms: C_20  and  C_21
REMARK    6  A    between atoms: C_21  and  N_22
REMARK    7  A    between atoms: C_23  and  C_25
REMARK                            x       y       z     vdW  Elec       q    Type
REMARK                         _______ _______ _______ _____ _____    ______ ____
ROOT
ATOM      1  C   UNL     1       0.210  11.349  18.579  0.00  0.00    +0.000 A 
ATOM      2  C   UNL     1      -0.174  10.008  18.488  0.00  0.00    +0.000 A 
ATOM      3  C   UNL     1       0.757   9.020  18.157  0.00  0.00    +0.000 A 
ATOM      4  C   UNL     1       2.101   9.358  17.943  0.00  0.00    +0.000 A 
ATOM      5  C   UNL     1       2.483  10.705  18.047  0.00  0.00    +0.000 A 
ATOM      6  C   UNL     1       1.550  11.698  18.373  0.00  0.00    +0.000 A 
ENDROOT
BRANCH   1   8
ATOM      7  O   UNL     1      -0.670  13.531  18.655  0.00  0.00    +0.000 OA
ATOM      8  C   UNL     1      -0.844  12.344  18.913  0.00  0.00    +0.000 C 
ATOM      9  N   UNL     1      -1.966  11.875  19.558  0.00  0.00    +0.000 N 
ATOM     10  H   UNL     1      -1.992  10.927  19.916  0.00  0.00    +0.000 HD
BRANCH   9  11
ATOM     11  C   UNL     1      -2.954  12.804  20.080  0.00  0.00    +0.000 C 
ATOM     12  C   UNL     1      -4.392  12.395  19.769  0.00  0.00    +0.000 C 
ATOM     13  C   UNL     1      -5.185  12.910  20.953  0.00  0.00    +0.000 C 
ATOM     14  N   UNL     1      -4.253  12.880  22.048  0.00  0.00    +0.000 N 
ATOM     15  C   UNL     1      -2.937  12.852  21.614  0.00  0.00    +0.000 C 
ATOM     16  O   UNL     1      -1.929  12.872  22.305  0.00  0.00    +0.000 OA
BRANCH  14  17
ATOM     17  C   UNL     1      -4.691  12.998  23.433  0.00  0.00    +0.000 C 
BRANCH  17  18
ATOM     18  C   UNL     1      -4.698  14.429  23.924  0.00  0.00    +0.000 A 
ATOM     19  C   UNL     1      -3.590  14.950  24.609  0.00  0.00    +0.000 A 
ATOM     20  C   UNL     1      -3.617  16.245  25.130  0.00  0.00    +0.000 A 
ATOM     21  C   UNL     1      -4.734  17.053  24.940  0.00  0.00    +0.000 A 
ATOM     22  C   UNL     1      -5.820  16.572  24.212  0.00  0.00    +0.000 A 
ATOM     23  C   UNL     1      -5.806  15.266  23.709  0.00  0.00    +0.000 A 
ENDBRANCH  17  18
ENDBRANCH  14  17
ENDBRANCH   9  11
ENDBRANCH   1   8
BRANCH   4  24
ATOM     24  C   UNL     1       3.129   8.298  17.631  0.00  0.00    +0.000 C 
BRANCH  24  25
ATOM     25  N   UNL     1       2.752   6.994  18.123  0.00  0.00    +0.000 N 
ATOM     26  C   UNL     1       3.523   5.883  17.823  0.00  0.00    +0.000 C 
ATOM     27  O   UNL     1       4.513   5.960  17.111  0.00  0.00    +0.000 OA
ATOM     28  H   UNL     1       2.016   6.933  18.811  0.00  0.00    +0.000 HD
BRANCH  26  29
ATOM     29  C   UNL     1       3.039   4.559  18.446  0.00  0.00    +0.000 C 
ATOM     30  C   UNL     1       1.803   4.794  19.348  0.00  0.00    +0.000 C 
ATOM     31  C   UNL     1       1.333   3.463  19.972  0.00  0.00    +0.000 C 
ATOM     32  C   UNL     1       0.950   2.480  18.857  0.00  0.00    +0.000 C 
ATOM     33  C   UNL     1       2.164   2.222  17.948  0.00  0.00    +0.000 C 
ATOM     34  C   UNL     1       3.306   1.624  18.782  0.00  0.00    +0.000 C 
ATOM     35  C   UNL     1       3.695   2.592  19.908  0.00  0.00    +0.000 C 
ATOM     36  C   UNL     1       2.474   2.859  20.805  0.00  0.00    +0.000 C 
ATOM     37  C   UNL     1       4.164   3.919  19.293  0.00  0.00    +0.000 C 
ATOM     38  C   UNL     1       2.627   3.555  17.334  0.00  0.00    +0.000 C 
ENDBRANCH  26  29
ENDBRANCH  24  25
ENDBRANCH   4  24
TORSDOF 7
ENDMDL
MODEL 6
REMARK VINA RESULT:      -9.1      8.348     10.647
REMARK  Name = 
REMARK  7 active torsions:
REMARK  status: ('A' for Active; 'I' for Inactive)
REMARK    1  A    between atoms: C_2  and  C_17
REMARK    2  A    between atoms: N_3  and  C_4
REMARK    3  A    between atoms: N_7  and  C_8
REMARK    4  A    between atoms: C_8  and  C_9
REMARK    5  A    between atoms: C_20  and  C_21
REMARK    6  A    between atoms: C_21  and  N_22
REMARK    7  A    between atoms: C_23  and  C_25
REMARK                            x       y       z     vdW  Elec       q    Type
REMARK                         _______ _______ _______ _____ _____    ______ ____
ROOT
ATOM      1  C   UNL     1      -1.399  10.591  18.511  0.00  0.00    +0.000 A 
ATOM      2  C   UNL     1      -1.412  10.460  19.903  0.00  0.00    +0.000 A 
ATOM      3  C   UNL     1      -0.379   9.792  20.565  0.00  0.00    +0.000 A 
ATOM      4  C   UNL     1       0.704   9.271  19.843  0.00  0.00    +0.000 A 
ATOM      5  C   UNL     1       0.716   9.416  18.446  0.00  0.00    +0.000 A 
ATOM      6  C   UNL     1      -0.321  10.080  17.779  0.00  0.00    +0.000 A 
ENDROOT
BRANCH   1   8
ATOM      7  O   UNL     1      -2.424  11.785  16.759  0.00  0.00    +0.000 OA
ATOM      8  C   UNL     1      -2.547  11.295  17.878  0.00  0.00    +0.000 C 
ATOM      9  N   UNL     1      -3.700  11.409  18.621  0.00  0.00    +0.000 N 
ATOM     10  H   UNL     1      -3.703  11.155  19.603  0.00  0.00    +0.000 HD
BRANCH   9  11
ATOM     11  C   UNL     1      -4.798  12.236  18.151  0.00  0.00    +0.000 C 
ATOM     12  C   UNL     1      -5.998  11.428  17.661  0.00  0.00    +0.000 C 
ATOM     13  C   UNL     1      -7.189  12.303  17.989  0.00  0.00    +0.000 C 
ATOM     14  N   UNL     1      -6.776  13.054  19.144  0.00  0.00    +0.000 N 
ATOM     15  C   UNL     1      -5.396  13.085  19.280  0.00  0.00    +0.000 C 
ATOM     16  O   UNL     1      -4.750  13.681  20.130  0.00  0.00    +0.000 OA
BRANCH  14  17
ATOM     17  C   UNL     1      -7.730  13.786  19.967  0.00  0.00    +0.000 C 
BRANCH  17  18
ATOM     18  C   UNL     1      -7.557  13.513  21.445  0.00  0.00    +0.000 A 
ATOM     19  C   UNL     1      -7.784  12.228  21.960  0.00  0.00    +0.000 A 
ATOM     20  C   UNL     1      -7.700  11.983  23.332  0.00  0.00    +0.000 A 
ATOM     21  C   UNL     1      -7.348  13.009  24.206  0.00  0.00    +0.000 A 
ATOM     22  C   UNL     1      -7.063  14.277  23.705  0.00  0.00    +0.000 A 
ATOM     23  C   UNL     1      -7.170  14.531  22.332  0.00  0.00    +0.000 A 
ENDBRANCH  17  18
ENDBRANCH  14  17
ENDBRANCH   9  11
ENDBRANCH   1   8
BRANCH   4  24
ATOM     24  C   UNL     1       1.851   8.588  20.546  0.00  0.00    +0.000 C 
BRANCH  24  25
ATOM     25  N   UNL     1       1.786   7.148  20.451  0.00  0.00    +0.000 N 
ATOM     26  C   UNL     1       2.460   6.483  19.439  0.00  0.00    +0.000 C 
ATOM     27  O   UNL     1       3.092   7.083  18.583  0.00  0.00    +0.000 OA
ATOM     28  H   UNL     1       1.378   6.633  21.216  0.00  0.00    +0.000 HD
BRANCH  26  29
ATOM     29  C   UNL     1       2.348   4.946  19.476  0.00  0.00    +0.000 C 
ATOM     30  C   UNL     1       3.668   4.309  19.971  0.00  0.00    +0.000 C 
ATOM     31  C   UNL     1       3.547   2.771  19.996  0.00  0.00    +0.000 C 
ATOM     32  C   UNL     1       2.413   2.360  20.947  0.00  0.00    +0.000 C 
ATOM     33  C   UNL     1       1.085   2.974  20.472  0.00  0.00    +0.000 C 
ATOM     34  C   UNL     1       0.768   2.471  19.057  0.00  0.00    +0.000 C 
ATOM     35  C   UNL     1       1.897   2.865  18.095  0.00  0.00    +0.000 C 
ATOM     36  C   UNL     1       3.226   2.263  18.582  0.00  0.00    +0.000 C 
ATOM     37  C   UNL     1       2.023   4.396  18.067  0.00  0.00    +0.000 C 
ATOM     38  C   UNL     1       1.218   4.508  20.448  0.00  0.00    +0.000 C 
ENDBRANCH  26  29
ENDBRANCH  24  25
ENDBRANCH   4  24
TORSDOF 7
ENDMDL
MODEL 7
REMARK VINA RESULT:      -9.1      7.514      9.309
REMARK  Name = 
REMARK  7 active torsions:
REMARK  status: ('A' for Active; 'I' for Inactive)
REMARK    1  A    between atoms: C_2  and  C_17
REMARK    2  A    between atoms: N_3  and  C_4
REMARK    3  A    between atoms: N_7  and  C_8
REMARK    4  A    between atoms: C_8  and  C_9
REMARK    5  A    between atoms: C_20  and  C_21
REMARK    6  A    between atoms: C_21  and  N_22
REMARK    7  A    between atoms: C_23  and  C_25
REMARK                            x       y       z     vdW  Elec       q    Type
REMARK                         _______ _______ _______ _____ _____    ______ ____
ROOT
ATOM      1  C   UNL     1      -0.290  11.555  18.751  0.00  0.00    +0.000 A 
ATOM      2  C   UNL     1       1.063  11.905  18.740  0.00  0.00    +0.000 A 
ATOM      3  C   UNL     1       2.040  10.963  18.407  0.00  0.00    +0.000 A 
ATOM      4  C   UNL     1       1.672   9.659  18.046  0.00  0.00    +0.000 A 
ATOM      5  C   UNL     1       0.310   9.317  18.048  0.00  0.00    +0.000 A 
ATOM      6  C   UNL     1      -0.671  10.258  18.388  0.00  0.00    +0.000 A 
ENDROOT
BRANCH   1   8
ATOM      7  O   UNL     1      -0.991  13.791  18.976  0.00  0.00    +0.000 OA
ATOM      8  C   UNL     1      -1.268  12.606  19.140  0.00  0.00    +0.000 C 
ATOM      9  N   UNL     1      -2.441  12.187  19.725  0.00  0.00    +0.000 N 
ATOM     10  H   UNL     1      -2.554  11.220  20.009  0.00  0.00    +0.000 HD
BRANCH   9  11
ATOM     11  C   UNL     1      -3.363  13.154  20.297  0.00  0.00    +0.000 C 
ATOM     12  C   UNL     1      -4.828  12.740  20.171  0.00  0.00    +0.000 C 
ATOM     13  C   UNL     1      -5.483  13.330  21.402  0.00  0.00    +0.000 C 
ATOM     14  N   UNL     1      -4.437  13.356  22.388  0.00  0.00    +0.000 N 
ATOM     15  C   UNL     1      -3.177  13.291  21.813  0.00  0.00    +0.000 C 
ATOM     16  O   UNL     1      -2.098  13.342  22.388  0.00  0.00    +0.000 OA
BRANCH  14  17
ATOM     17  C   UNL     1      -4.718  13.559  23.803  0.00  0.00    +0.000 C 
BRANCH  17  18
ATOM     18  C   UNL     1      -4.581  15.005  24.226  0.00  0.00    +0.000 A 
ATOM     19  C   UNL     1      -3.397  15.459  24.826  0.00  0.00    +0.000 A 
ATOM     20  C   UNL     1      -3.287  16.772  25.286  0.00  0.00    +0.000 A 
ATOM     21  C   UNL     1      -4.343  17.664  25.116  0.00  0.00    +0.000 A 
ATOM     22  C   UNL     1      -5.505  17.246  24.470  0.00  0.00    +0.000 A 
ATOM     23  C   UNL     1      -5.626  15.923  24.030  0.00  0.00    +0.000 A 
ENDBRANCH  17  18
ENDBRANCH  14  17
ENDBRANCH   9  11
ENDBRANCH   1   8
BRANCH   4  24
ATOM     24  C   UNL     1       2.710   8.643  17.638  0.00  0.00    +0.000 C 
BRANCH  24  25
ATOM     25  N   UNL     1       2.396   7.310  18.095  0.00  0.00    +0.000 N 
ATOM     26  C   UNL     1       3.369   6.324  18.096  0.00  0.00    +0.000 C 
ATOM     27  O   UNL     1       4.500   6.533  17.683  0.00  0.00    +0.000 OA
ATOM     28  H   UNL     1       1.512   7.154  18.555  0.00  0.00    +0.000 HD
BRANCH  26  29
ATOM     29  C   UNL     1       2.919   4.958  18.651  0.00  0.00    +0.000 C 
ATOM     30  C   UNL     1       2.514   5.073  20.140  0.00  0.00    +0.000 C 
ATOM     31  C   UNL     1       2.074   3.699  20.685  0.00  0.00    +0.000 C 
ATOM     32  C   UNL     1       0.867   3.191  19.884  0.00  0.00    +0.000 C 
ATOM     33  C   UNL     1       1.243   3.059  18.399  0.00  0.00    +0.000 C 
ATOM     34  C   UNL     1       2.403   2.064  18.255  0.00  0.00    +0.000 C 
ATOM     35  C   UNL     1       3.617   2.552  19.059  0.00  0.00    +0.000 C 
ATOM     36  C   UNL     1       3.231   2.698  20.540  0.00  0.00    +0.000 C 
ATOM     37  C   UNL     1       4.060   3.921  18.520  0.00  0.00    +0.000 C 
ATOM     38  C   UNL     1       1.685   4.434  17.866  0.00  0.00    +0.000 C 
ENDBRANCH  26  29
ENDBRANCH  24  25
ENDBRANCH   4  24
TORSDOF 7
ENDMDL
MODEL 8
REMARK VINA RESULT:      -9.1      1.603      2.818
REMARK  Name = 
REMARK  7 active torsions:
REMARK  status: ('A' for Active; 'I' for Inactive)
REMARK    1  A    between atoms: C_2  and  C_17
REMARK    2  A    between atoms: N_3  and  C_4
REMARK    3  A    between atoms: N_7  and  C_8
REMARK    4  A    between atoms: C_8  and  C_9
REMARK    5  A    between atoms: C_20  and  C_21
REMARK    6  A    between atoms: C_21  and  N_22
REMARK    7  A    between atoms: C_23  and  C_25
REMARK                            x       y       z     vdW  Elec       q    Type
REMARK                         _______ _______ _______ _____ _____    ______ ____
ROOT
ATOM      1  C   UNL     1       8.394   8.501  18.419  0.00  0.00    +0.000 A 
ATOM      2  C   UNL     1       7.717   8.259  17.220  0.00  0.00    +0.000 A 
ATOM      3  C   UNL     1       7.268   6.974  16.902  0.00  0.00    +0.000 A 
ATOM      4  C   UNL     1       7.462   5.914  17.800  0.00  0.00    +0.000 A 
ATOM      5  C   UNL     1       8.133   6.167  19.008  0.00  0.00    +0.000 A 
ATOM      6  C   UNL     1       8.589   7.453  19.326  0.00  0.00    +0.000 A 
ENDROOT
BRANCH   1   8
ATOM      7  O   UNL     1       8.602  10.437  19.743  0.00  0.00    +0.000 OA
ATOM      8  C   UNL     1       8.861   9.890  18.675  0.00  0.00    +0.000 C 
ATOM      9  N   UNL     1       9.531  10.524  17.653  0.00  0.00    +0.000 N 
ATOM     10  H   UNL     1       9.565  10.109  16.729  0.00  0.00    +0.000 HD
BRANCH   9  11
ATOM     11  C   UNL     1       9.858  11.936  17.755  0.00  0.00    +0.000 C 
ATOM     12  C   UNL     1       8.630  12.831  17.914  0.00  0.00    +0.000 C 
ATOM     13  C   UNL     1       9.124  13.986  18.759  0.00  0.00    +0.000 C 
ATOM     14  N   UNL     1      10.174  13.419  19.562  0.00  0.00    +0.000 N 
ATOM     15  C   UNL     1      10.670  12.244  19.019  0.00  0.00    +0.000 C 
ATOM     16  O   UNL     1      11.592  11.564  19.446  0.00  0.00    +0.000 OA
BRANCH  14  17
ATOM     17  C   UNL     1      10.706  14.109  20.731  0.00  0.00    +0.000 C 
BRANCH  17  18
ATOM     18  C   UNL     1       9.804  13.992  21.940  0.00  0.00    +0.000 A 
ATOM     19  C   UNL     1       9.512  15.121  22.719  0.00  0.00    +0.000 A 
ATOM     20  C   UNL     1       8.742  15.010  23.878  0.00  0.00    +0.000 A 
ATOM     21  C   UNL     1       8.217  13.776  24.254  0.00  0.00    +0.000 A 
ATOM     22  C   UNL     1       8.448  12.655  23.460  0.00  0.00    +0.000 A 
ATOM     23  C   UNL     1       9.240  12.760  22.311  0.00  0.00    +0.000 A 
ENDBRANCH  17  18
ENDBRANCH  14  17
ENDBRANCH   9  11
ENDBRANCH   1   8
BRANCH   4  24
ATOM     24  C   UNL     1       6.942   4.532  17.494  0.00  0.00    +0.000 C 
BRANCH  24  25
ATOM     25  N   UNL     1       5.817   4.163  18.320  0.00  0.00    +0.000 N 
ATOM     26  C   UNL     1       4.529   4.506  17.943  0.00  0.00    +0.000 C 
ATOM     27  O   UNL     1       4.306   5.155  16.932  0.00  0.00    +0.000 OA
ATOM     28  H   UNL     1       5.970   3.522  19.085  0.00  0.00    +0.000 HD
BRANCH  26  29
ATOM     29  C   UNL     1       3.415   4.014  18.887  0.00  0.00    +0.000 C 
ATOM     30  C   UNL     1       3.797   2.662  19.534  0.00  0.00    +0.000 C 
ATOM     31  C   UNL     1       2.671   2.176  20.470  0.00  0.00    +0.000 C 
ATOM     32  C   UNL     1       2.445   3.210  21.583  0.00  0.00    +0.000 C 
ATOM     33  C   UNL     1       2.055   4.564  20.967  0.00  0.00    +0.000 C 
ATOM     34  C   UNL     1       0.762   4.400  20.156  0.00  0.00    +0.000 C 
ATOM     35  C   UNL     1       0.967   3.362  19.044  0.00  0.00    +0.000 C 
ATOM     36  C   UNL     1       1.373   2.014  19.664  0.00  0.00    +0.000 C 
ATOM     37  C   UNL     1       2.088   3.840  18.109  0.00  0.00    +0.000 C 
ATOM     38  C   UNL     1       3.183   5.038  20.032  0.00  0.00    +0.000 C 
ENDBRANCH  26  29
ENDBRANCH  24  25
ENDBRANCH   4  24
TORSDOF 7
ENDMDL
MODEL 9
REMARK VINA RESULT:      -9.1      6.771      8.566
REMARK  Name = 
REMARK  7 active torsions:
REMARK  status: ('A' for Active; 'I' for Inactive)
REMARK    1  A    between atoms: C_2  and  C_17
REMARK    2  A    between atoms: N_3  and  C_4
REMARK    3  A    between atoms: N_7  and  C_8
REMARK    4  A    between atoms: C_8  and  C_9
REMARK    5  A    between atoms: C_20  and  C_21
REMARK    6  A    between atoms: C_21  and  N_22
REMARK    7  A    between atoms: C_23  and  C_25
REMARK                            x       y       z     vdW  Elec       q    Type
REMARK                         _______ _______ _______ _____ _____    ______ ____
ROOT
ATOM      1  C   UNL     1       0.171  11.646  18.972  0.00  0.00    +0.000 A 
ATOM      2  C   UNL     1       1.492  11.898  18.588  0.00  0.00    +0.000 A 
ATOM      3  C   UNL     1       2.314  10.860  18.143  0.00  0.00    +0.000 A 
ATOM      4  C   UNL     1       1.814   9.553  18.043  0.00  0.00    +0.000 A 
ATOM      5  C   UNL     1       0.483   9.310  18.420  0.00  0.00    +0.000 A 
ATOM      6  C   UNL     1      -0.341  10.348  18.873  0.00  0.00    +0.000 A 
ENDROOT
BRANCH   1   8
ATOM      7  O   UNL     1      -0.698  13.827  18.789  0.00  0.00    +0.000 OA
ATOM      8  C   UNL     1      -0.633  12.799  19.457  0.00  0.00    +0.000 C 
ATOM      9  N   UNL     1      -1.237  12.670  20.688  0.00  0.00    +0.000 N 
ATOM     10  H   UNL     1      -1.011  11.884  21.287  0.00  0.00    +0.000 HD
BRANCH   9  11
ATOM     11  C   UNL     1      -1.885  13.811  21.312  0.00  0.00    +0.000 C 
ATOM     12  C   UNL     1      -3.405  13.802  21.160  0.00  0.00    +0.000 C 
ATOM     13  C   UNL     1      -3.904  14.474  22.421  0.00  0.00    +0.000 C 
ATOM     14  N   UNL     1      -2.904  14.172  23.409  0.00  0.00    +0.000 N 
ATOM     15  C   UNL     1      -1.695  13.812  22.834  0.00  0.00    +0.000 C 
ATOM     16  O   UNL     1      -0.650  13.549  23.412  0.00  0.00    +0.000 OA
BRANCH  14  17
ATOM     17  C   UNL     1      -3.146  14.365  24.833  0.00  0.00    +0.000 C 
BRANCH  17  18
ATOM     18  C   UNL     1      -2.586  15.671  25.351  0.00  0.00    +0.000 A 
ATOM     19  C   UNL     1      -3.233  16.883  25.065  0.00  0.00    +0.000 A 
ATOM     20  C   UNL     1      -2.684  18.099  25.474  0.00  0.00    +0.000 A 
ATOM     21  C   UNL     1      -1.503  18.121  26.211  0.00  0.00    +0.000 A 
ATOM     22  C   UNL     1      -0.878  16.924  26.554  0.00  0.00    +0.000 A 
ATOM     23  C   UNL     1      -1.414  15.705  26.123  0.00  0.00    +0.000 A 
ENDBRANCH  17  18
ENDBRANCH  14  17
ENDBRANCH   9  11
ENDBRANCH   1   8
BRANCH   4  24
ATOM     24  C   UNL     1       2.674   8.430  17.520  0.00  0.00    +0.000 C 
BRANCH  24  25
ATOM     25  N   UNL     1       2.302   7.144  18.062  0.00  0.00    +0.000 N 
ATOM     26  C   UNL     1       3.272   6.194  18.337  0.00  0.00    +0.000 C 
ATOM     27  O   UNL     1       4.455   6.393  18.100  0.00  0.00    +0.000 OA
ATOM     28  H   UNL     1       1.354   7.011  18.381  0.00  0.00    +0.000 HD
BRANCH  26  29
ATOM     29  C   UNL     1       2.751   4.882  18.955  0.00  0.00    +0.000 C 
ATOM     30  C   UNL     1       2.063   5.149  20.316  0.00  0.00    +0.000 C 
ATOM     31  C   UNL     1       1.553   3.828  20.928  0.00  0.00    +0.000 C 
ATOM     32  C   UNL     1       0.534   3.181  19.979  0.00  0.00    +0.000 C 
ATOM     33  C   UNL     1       1.194   2.897  18.619  0.00  0.00    +0.000 C 
ATOM     34  C   UNL     1       2.379   1.942  18.818  0.00  0.00    +0.000 C 
ATOM     35  C   UNL     1       3.404   2.570  19.773  0.00  0.00    +0.000 C 
ATOM     36  C   UNL     1       2.736   2.867  21.126  0.00  0.00    +0.000 C 
ATOM     37  C   UNL     1       3.916   3.886  19.168  0.00  0.00    +0.000 C 
ATOM     38  C   UNL     1       1.703   4.220  18.019  0.00  0.00    +0.000 C 
ENDBRANCH  26  29
ENDBRANCH  24  25
ENDBRANCH   4  24
TORSDOF 7
ENDMDL
