MODEL 1
REMARK VINA RESULT:      -8.5      0.000      0.000
REMARK  Name = 
REMARK  6 active torsions:
REMARK  status: ('A' for Active; 'I' for Inactive)
REMARK    1  A    between atoms: C_2  and  C_10
REMARK    2  A    between atoms: N_3  and  C_4
REMARK    3  A    between atoms: C_14  and  C_15
REMARK    4  A    between atoms: C_15  and  N_16
REMARK    5  A    between atoms: C_17  and  C_19
REMARK    6  A    between atoms: C_24  and  N_25
REMARK                            x       y       z     vdW  Elec       q    Type
REMARK                         _______ _______ _______ _____ _____    ______ ____
ROOT
ATOM      1  C   UNL     1       0.290  10.241  21.177  0.00  0.00    +0.000 A 
ATOM      2  C   UNL     1       0.389  10.966  19.985  0.00  0.00    +0.000 A 
ATOM      3  C   UNL     1       0.972  10.389  18.858  0.00  0.00    +0.000 A 
ATOM      4  C   UNL     1       1.459   9.082  18.916  0.00  0.00    +0.000 A 
ATOM      5  C   UNL     1       1.373   8.343  20.105  0.00  0.00    +0.000 A 
ATOM      6  C   UNL     1       0.772   8.929  21.231  0.00  0.00    +0.000 A 
ENDROOT
BRANCH   1   8
ATOM      7  O   UNL     1      -0.182  10.378  23.445  0.00  0.00    +0.000 OA
ATOM      8  C   UNL     1      -0.362  10.887  22.348  0.00  0.00    +0.000 C 
ATOM      9  N   UNL     1      -1.166  11.972  22.059  0.00  0.00    +0.000 N 
ATOM     10  H   UNL     1      -1.342  12.171  21.083  0.00  0.00    +0.000 HD
BRANCH   9  11
ATOM     11  C   UNL     1      -1.895  12.750  22.984  0.00  0.00    +0.000 A 
ATOM     12  C   UNL     1      -1.446  13.982  23.472  0.00  0.00    +0.000 A 
ATOM     13  C   UNL     1      -2.203  14.690  24.407  0.00  0.00    +0.000 A 
ATOM     14  C   UNL     1      -3.414  14.178  24.862  0.00  0.00    +0.000 A 
ATOM     15  C   UNL     1      -3.879  12.960  24.369  0.00  0.00    +0.000 A 
ATOM     16  C   UNL     1      -3.129  12.255  23.426  0.00  0.00    +0.000 A 
ENDBRANCH   9  11
ENDBRANCH   1   8
BRANCH   5  17
ATOM     17  C   UNL     1       1.900   6.934  20.183  0.00  0.00    +0.000 C 
BRANCH  17  18
ATOM     18  N   UNL     1       2.996   6.697  19.273  0.00  0.00    +0.000 N 
ATOM     19  C   UNL     1       2.884   5.827  18.205  0.00  0.00    +0.000 C 
ATOM     20  O   UNL     1       1.824   5.334  17.840  0.00  0.00    +0.000 OA
ATOM     21  H   UNL     1       3.883   7.126  19.493  0.00  0.00    +0.000 HD
BRANCH  19  22
ATOM     22  C   UNL     1       4.137   5.569  17.453  0.00  0.00    +0.000 A 
ATOM     23  C   UNL     1       4.597   6.573  16.583  0.00  0.00    +0.000 A 
ATOM     24  C   UNL     1       5.708   6.353  15.776  0.00  0.00    +0.000 A 
ATOM     25  C   UNL     1       6.314   5.113  15.825  0.00  0.00    +0.000 A 
ATOM     26  N   UNL     1       5.874   4.102  16.604  0.00  0.00    +0.000 NA
ATOM     27  C   UNL     1       4.802   4.340  17.429  0.00  0.00    +0.000 A 
BRANCH  27  28
ATOM     28  N   UNL     1       4.426   3.254  18.265  0.00  0.00    +0.000 N 
ATOM     29  C   UNL     1       3.654   2.180  17.887  0.00  0.00    +0.000 A 
ATOM     30  N   UNL     1       3.451   1.379  18.908  0.00  0.00    +0.000 NA
ATOM     31  C   UNL     1       4.180   1.972  19.893  0.00  0.00    +0.000 A 
ATOM     32  N   UNL     1       4.860   3.063  19.535  0.00  0.00    +0.000 NA
ENDBRANCH  27  28
ENDBRANCH  19  22
ENDBRANCH  17  18
ENDBRANCH   5  17
TORSDOF 6
ENDMDL
MODEL 2
REMARK VINA RESULT:      -8.3      1.581      2.633
REMARK  Name = 
REMARK  6 active torsions:
REMARK  status: ('A' for Active; 'I' for Inactive)
REMARK    1  A    between atoms: C_2  and  C_10
REMARK    2  A    between atoms: N_3  and  C_4
REMARK    3  A    between atoms: C_14  and  C_15
REMARK    4  A    between atoms: C_15  and  N_16
REMARK    5  A    between atoms: C_17  and  C_19
REMARK    6  A    between atoms: C_24  and  N_25
REMARK                            x       y       z     vdW  Elec       q    Type
REMARK                         _______ _______ _______ _____ _____    ______ ____
ROOT
ATOM      1  C   UNL     1      -0.215  10.571  20.040  0.00  0.00    +0.000 A 
ATOM      2  C   UNL     1      -1.241  10.562  19.089  0.00  0.00    +0.000 A 
ATOM      3  C   UNL     1      -1.038   9.972  17.842  0.00  0.00    +0.000 A 
ATOM      4  C   UNL     1       0.192   9.386  17.539  0.00  0.00    +0.000 A 
ATOM      5  C   UNL     1       1.233   9.391  18.479  0.00  0.00    +0.000 A 
ATOM      6  C   UNL     1       1.014   9.976  19.737  0.00  0.00    +0.000 A 
ENDROOT
BRANCH   1   8
ATOM      7  O   UNL     1       0.178  10.794  22.316  0.00  0.00    +0.000 OA
ATOM      8  C   UNL     1      -0.483  11.190  21.366  0.00  0.00    +0.000 C 
ATOM      9  N   UNL     1      -1.510  12.112  21.397  0.00  0.00    +0.000 N 
ATOM     10  H   UNL     1      -2.069  12.211  20.559  0.00  0.00    +0.000 HD
BRANCH   9  11
ATOM     11  C   UNL     1      -1.962  12.831  22.524  0.00  0.00    +0.000 A 
ATOM     12  C   UNL     1      -1.257  13.899  23.087  0.00  0.00    +0.000 A 
ATOM     13  C   UNL     1      -1.746  14.553  24.219  0.00  0.00    +0.000 A 
ATOM     14  C   UNL     1      -2.944  14.148  24.800  0.00  0.00    +0.000 A 
ATOM     15  C   UNL     1      -3.665  13.096  24.236  0.00  0.00    +0.000 A 
ATOM     16  C   UNL     1      -3.182  12.448  23.097  0.00  0.00    +0.000 A 
ENDBRANCH   9  11
ENDBRANCH   1   8
BRANCH   5  17
ATOM     17  C   UNL     1       2.567   8.766  18.163  0.00  0.00    +0.000 C 
BRANCH  17  18
ATOM     18  N   UNL     1       2.591   7.344  18.414  0.00  0.00    +0.000 N 
ATOM     19  C   UNL     1       3.447   6.497  17.736  0.00  0.00    +0.000 C 
ATOM     20  O   UNL     1       4.357   6.886  17.016  0.00  0.00    +0.000 OA
ATOM     21  H   UNL     1       1.896   6.973  19.045  0.00  0.00    +0.000 HD
BRANCH  19  22
ATOM     22  C   UNL     1       3.249   5.048  17.988  0.00  0.00    +0.000 A 
ATOM     23  C   UNL     1       1.941   4.540  17.893  0.00  0.00    +0.000 A 
ATOM     24  C   UNL     1       1.675   3.213  18.215  0.00  0.00    +0.000 A 
ATOM     25  C   UNL     1       2.718   2.430  18.668  0.00  0.00    +0.000 A 
ATOM     26  N   UNL     1       3.977   2.890  18.827  0.00  0.00    +0.000 NA
ATOM     27  C   UNL     1       4.242   4.189  18.467  0.00  0.00    +0.000 A 
BRANCH  27  28
ATOM     28  N   UNL     1       5.597   4.593  18.604  0.00  0.00    +0.000 N 
ATOM     29  C   UNL     1       6.584   4.427  17.660  0.00  0.00    +0.000 A 
ATOM     30  N   UNL     1       7.736   4.864  18.118  0.00  0.00    +0.000 NA
ATOM     31  C   UNL     1       7.395   5.358  19.340  0.00  0.00    +0.000 A 
ATOM     32  N   UNL     1       6.098   5.297  19.649  0.00  0.00    +0.000 NA
ENDBRANCH  27  28
ENDBRANCH  19  22
ENDBRANCH  17  18
ENDBRANCH   5  17
TORSDOF 6
ENDMDL
MODEL 3
REMARK VINA RESULT:      -8.2      1.536      2.842
REMARK  Name = 
REMARK  6 active torsions:
REMARK  status: ('A' for Active; 'I' for Inactive)
REMARK    1  A    between atoms: C_2  and  C_10
REMARK    2  A    between atoms: N_3  and  C_4
REMARK    3  A    between atoms: C_14  and  C_15
REMARK    4  A    between atoms: C_15  and  N_16
REMARK    5  A    between atoms: C_17  and  C_19
REMARK    6  A    between atoms: C_24  and  N_25
REMARK                            x       y       z     vdW  Elec       q    Type
REMARK                         _______ _______ _______ _____ _____    ______ ____
ROOT
ATOM      1  C   UNL     1      -0.365  10.711  20.046  0.00  0.00    +0.000 A 
ATOM      2  C   UNL     1      -1.387  10.696  19.090  0.00  0.00    +0.000 A 
ATOM      3  C   UNL     1      -1.180  10.095  17.850  0.00  0.00    +0.000 A 
ATOM      4  C   UNL     1       0.050   9.502  17.558  0.00  0.00    +0.000 A 
ATOM      5  C   UNL     1       1.086   9.512  18.503  0.00  0.00    +0.000 A 
ATOM      6  C   UNL     1       0.864  10.109  19.754  0.00  0.00    +0.000 A 
ENDROOT
BRANCH   1   8
ATOM      7  O   UNL     1       0.164  11.134  22.266  0.00  0.00    +0.000 OA
ATOM      8  C   UNL     1      -0.637  11.342  21.365  0.00  0.00    +0.000 C 
ATOM      9  N   UNL     1      -1.817  12.054  21.454  0.00  0.00    +0.000 N 
ATOM     10  H   UNL     1      -2.452  11.997  20.668  0.00  0.00    +0.000 HD
BRANCH   9  11
ATOM     11  C   UNL     1      -2.305  12.738  22.588  0.00  0.00    +0.000 A 
ATOM     12  C   UNL     1      -3.348  12.256  23.385  0.00  0.00    +0.000 A 
ATOM     13  C   UNL     1      -3.802  12.995  24.479  0.00  0.00    +0.000 A 
ATOM     14  C   UNL     1      -3.220  14.221  24.788  0.00  0.00    +0.000 A 
ATOM     15  C   UNL     1      -2.168  14.702  24.011  0.00  0.00    +0.000 A 
ATOM     16  C   UNL     1      -1.705  13.959  22.922  0.00  0.00    +0.000 A 
ENDBRANCH   9  11
ENDBRANCH   1   8
BRANCH   5  17
ATOM     17  C   UNL     1       2.420   8.881  18.198  0.00  0.00    +0.000 C 
BRANCH  17  18
ATOM     18  N   UNL     1       2.419   7.451  18.396  0.00  0.00    +0.000 N 
ATOM     19  C   UNL     1       3.295   6.620  17.724  0.00  0.00    +0.000 C 
ATOM     20  O   UNL     1       4.239   7.025  17.059  0.00  0.00    +0.000 OA
ATOM     21  H   UNL     1       1.694   7.065  18.983  0.00  0.00    +0.000 HD
BRANCH  19  22
ATOM     22  C   UNL     1       3.072   5.164  17.913  0.00  0.00    +0.000 A 
ATOM     23  C   UNL     1       1.743   4.703  17.927  0.00  0.00    +0.000 A 
ATOM     24  C   UNL     1       1.464   3.368  18.200  0.00  0.00    +0.000 A 
ATOM     25  C   UNL     1       2.519   2.528  18.495  0.00  0.00    +0.000 A 
ATOM     26  N   UNL     1       3.803   2.939  18.547  0.00  0.00    +0.000 NA
ATOM     27  C   UNL     1       4.077   4.248  18.235  0.00  0.00    +0.000 A 
BRANCH  27  28
ATOM     28  N   UNL     1       5.453   4.602  18.251  0.00  0.00    +0.000 N 
ATOM     29  C   UNL     1       6.134   5.129  19.324  0.00  0.00    +0.000 A 
ATOM     30  N   UNL     1       7.379   5.389  18.995  0.00  0.00    +0.000 NA
ATOM     31  C   UNL     1       7.441   4.941  17.711  0.00  0.00    +0.000 A 
ATOM     32  N   UNL     1       6.327   4.377  17.239  0.00  0.00    +0.000 NA
ENDBRANCH  27  28
ENDBRANCH  19  22
ENDBRANCH  17  18
ENDBRANCH   5  17
TORSDOF 6
ENDMDL
MODEL 4
REMARK VINA RESULT:      -8.2      3.386     10.380
REMARK  Name = 
REMARK  6 active torsions:
REMARK  status: ('A' for Active; 'I' for Inactive)
REMARK    1  A    between atoms: C_2  and  C_10
REMARK    2  A    between atoms: N_3  and  C_4
REMARK    3  A    between atoms: C_14  and  C_15
REMARK    4  A    between atoms: C_15  and  N_16
REMARK    5  A    between atoms: C_17  and  C_19
REMARK    6  A    between atoms: C_24  and  N_25
REMARK                            x       y       z     vdW  Elec       q    Type
REMARK                         _______ _______ _______ _____ _____    ______ ____
ROOT
ATOM      1  C   UNL     1       2.370   7.167  19.065  0.00  0.00    +0.000 A 
ATOM      2  C   UNL     1       2.039   6.768  20.364  0.00  0.00    +0.000 A 
ATOM      3  C   UNL     1       1.308   7.616  21.195  0.00  0.00    +0.000 A 
ATOM      4  C   UNL     1       0.902   8.868  20.730  0.00  0.00    +0.000 A 
ATOM      5  C   UNL     1       1.230   9.286  19.432  0.00  0.00    +0.000 A 
ATOM      6  C   UNL     1       1.955   8.419  18.598  0.00  0.00    +0.000 A 
ENDROOT
BRANCH   1   8
ATOM      7  O   UNL     1       2.597   5.155  17.930  0.00  0.00    +0.000 OA
ATOM      8  C   UNL     1       3.130   6.221  18.204  0.00  0.00    +0.000 C 
ATOM      9  N   UNL     1       4.404   6.625  17.855  0.00  0.00    +0.000 N 
ATOM     10  H   UNL     1       4.762   7.462  18.296  0.00  0.00    +0.000 HD
BRANCH   9  11
ATOM     11  C   UNL     1       5.324   5.912  17.056  0.00  0.00    +0.000 A 
ATOM     12  C   UNL     1       6.424   5.225  17.579  0.00  0.00    +0.000 A 
ATOM     13  C   UNL     1       7.312   4.561  16.731  0.00  0.00    +0.000 A 
ATOM     14  C   UNL     1       7.111   4.576  15.354  0.00  0.00    +0.000 A 
ATOM     15  C   UNL     1       6.008   5.243  14.824  0.00  0.00    +0.000 A 
ATOM     16  C   UNL     1       5.113   5.898  15.671  0.00  0.00    +0.000 A 
ENDBRANCH   9  11
ENDBRANCH   1   8
BRANCH   5  17
ATOM     17  C   UNL     1       0.802  10.637  18.921  0.00  0.00    +0.000 C 
BRANCH  17  18
ATOM     18  N   UNL     1      -0.614  10.872  19.080  0.00  0.00    +0.000 N 
ATOM     19  C   UNL     1      -1.204  12.061  18.698  0.00  0.00    +0.000 C 
ATOM     20  O   UNL     1      -0.631  12.925  18.047  0.00  0.00    +0.000 OA
ATOM     21  H   UNL     1      -1.150  10.164  19.562  0.00  0.00    +0.000 HD
BRANCH  19  22
ATOM     22  C   UNL     1      -2.634  12.214  19.065  0.00  0.00    +0.000 A 
ATOM     23  C   UNL     1      -2.933  12.854  20.281  0.00  0.00    +0.000 A 
ATOM     24  C   UNL     1      -4.247  12.940  20.729  0.00  0.00    +0.000 A 
ATOM     25  C   UNL     1      -5.235  12.344  19.970  0.00  0.00    +0.000 A 
ATOM     26  N   UNL     1      -4.988  11.673  18.826  0.00  0.00    +0.000 NA
ATOM     27  C   UNL     1      -3.694  11.629  18.367  0.00  0.00    +0.000 A 
BRANCH  27  28
ATOM     28  N   UNL     1      -3.511  10.957  17.128  0.00  0.00    +0.000 N 
ATOM     29  C   UNL     1      -3.967  11.390  15.905  0.00  0.00    +0.000 A 
ATOM     30  N   UNL     1      -3.673  10.515  14.970  0.00  0.00    +0.000 NA
ATOM     31  C   UNL     1      -2.969   9.576  15.660  0.00  0.00    +0.000 A 
ATOM     32  N   UNL     1      -2.767   9.836  16.953  0.00  0.00    +0.000 NA
ENDBRANCH  27  28
ENDBRANCH  19  22
ENDBRANCH  17  18
ENDBRANCH   5  17
TORSDOF 6
ENDMDL
MODEL 5
REMARK VINA RESULT:      -8.1      3.354     10.408
REMARK  Name = 
REMARK  6 active torsions:
REMARK  status: ('A' for Active; 'I' for Inactive)
REMARK    1  A    between atoms: C_2  and  C_10
REMARK    2  A    between atoms: N_3  and  C_4
REMARK    3  A    between atoms: C_14  and  C_15
REMARK    4  A    between atoms: C_15  and  N_16
REMARK    5  A    between atoms: C_17  and  C_19
REMARK    6  A    between atoms: C_24  and  N_25
REMARK                            x       y       z     vdW  Elec       q    Type
REMARK                         _______ _______ _______ _____ _____    ______ ____
ROOT
ATOM      1  C   UNL     1       2.426   7.210  18.970  0.00  0.00    +0.000 A 
ATOM      2  C   UNL     1       2.095   6.842  20.279  0.00  0.00    +0.000 A 
ATOM      3  C   UNL     1       1.357   7.707  21.086  0.00  0.00    +0.000 A 
ATOM      4  C   UNL     1       0.945   8.945  20.589  0.00  0.00    +0.000 A 
ATOM      5  C   UNL     1       1.274   9.331  19.282  0.00  0.00    +0.000 A 
ATOM      6  C   UNL     1       2.006   8.448  18.472  0.00  0.00    +0.000 A 
ENDROOT
BRANCH   1   8
ATOM      7  O   UNL     1       2.735   5.120  18.010  0.00  0.00    +0.000 OA
ATOM      8  C   UNL     1       3.193   6.247  18.136  0.00  0.00    +0.000 C 
ATOM      9  N   UNL     1       4.394   6.714  17.638  0.00  0.00    +0.000 N 
ATOM     10  H   UNL     1       4.712   7.617  17.966  0.00  0.00    +0.000 HD
BRANCH   9  11
ATOM     11  C   UNL     1       5.304   6.001  16.828  0.00  0.00    +0.000 A 
ATOM     12  C   UNL     1       5.215   5.950  15.434  0.00  0.00    +0.000 A 
ATOM     13  C   UNL     1       6.132   5.204  14.692  0.00  0.00    +0.000 A 
ATOM     14  C   UNL     1       7.149   4.503  15.335  0.00  0.00    +0.000 A 
ATOM     15  C   UNL     1       7.258   4.562  16.723  0.00  0.00    +0.000 A 
ATOM     16  C   UNL     1       6.347   5.316  17.465  0.00  0.00    +0.000 A 
ENDBRANCH   9  11
ENDBRANCH   1   8
BRANCH   5  17
ATOM     17  C   UNL     1       0.841  10.667  18.736  0.00  0.00    +0.000 C 
BRANCH  17  18
ATOM     18  N   UNL     1      -0.569  10.917  18.925  0.00  0.00    +0.000 N 
ATOM     19  C   UNL     1      -1.131  12.155  18.679  0.00  0.00    +0.000 C 
ATOM     20  O   UNL     1      -0.537  13.071  18.124  0.00  0.00    +0.000 OA
ATOM     21  H   UNL     1      -1.121  10.174  19.328  0.00  0.00    +0.000 HD
BRANCH  19  22
ATOM     22  C   UNL     1      -2.556  12.301  19.066  0.00  0.00    +0.000 A 
ATOM     23  C   UNL     1      -2.840  12.937  20.287  0.00  0.00    +0.000 A 
ATOM     24  C   UNL     1      -4.149  13.016  20.753  0.00  0.00    +0.000 A 
ATOM     25  C   UNL     1      -5.144  12.418  20.007  0.00  0.00    +0.000 A 
ATOM     26  N   UNL     1      -4.911  11.751  18.857  0.00  0.00    +0.000 NA
ATOM     27  C   UNL     1      -3.623  11.713  18.381  0.00  0.00    +0.000 A 
BRANCH  27  28
ATOM     28  N   UNL     1      -3.454  11.045  17.138  0.00  0.00    +0.000 N 
ATOM     29  C   UNL     1      -3.047   9.741  16.976  0.00  0.00    +0.000 A 
ATOM     30  N   UNL     1      -2.945   9.447  15.700  0.00  0.00    +0.000 NA
ATOM     31  C   UNL     1      -3.367  10.594  15.102  0.00  0.00    +0.000 A 
ATOM     32  N   UNL     1      -3.769  11.564  15.925  0.00  0.00    +0.000 NA
ENDBRANCH  27  28
ENDBRANCH  19  22
ENDBRANCH  17  18
ENDBRANCH   5  17
TORSDOF 6
ENDMDL
MODEL 6
REMARK VINA RESULT:      -8.1      3.653      4.884
REMARK  Name = 
REMARK  6 active torsions:
REMARK  status: ('A' for Active; 'I' for Inactive)
REMARK    1  A    between atoms: C_2  and  C_10
REMARK    2  A    between atoms: N_3  and  C_4
REMARK    3  A    between atoms: C_14  and  C_15
REMARK    4  A    between atoms: C_15  and  N_16
REMARK    5  A    between atoms: C_17  and  C_19
REMARK    6  A    between atoms: C_24  and  N_25
REMARK                            x       y       z     vdW  Elec       q    Type
REMARK                         _______ _______ _______ _____ _____    ______ ____
ROOT
ATOM      1  C   UNL     1       2.074   7.414  18.941  0.00  0.00    +0.000 A 
ATOM      2  C   UNL     1       1.757   7.218  20.290  0.00  0.00    +0.000 A 
ATOM      3  C   UNL     1       1.960   5.973  20.885  0.00  0.00    +0.000 A 
ATOM      4  C   UNL     1       2.481   4.918  20.135  0.00  0.00    +0.000 A 
ATOM      5  C   UNL     1       2.798   5.096  18.781  0.00  0.00    +0.000 A 
ATOM      6  C   UNL     1       2.604   6.356  18.194  0.00  0.00    +0.000 A 
ENDROOT
BRANCH   1   8
ATOM      7  O   UNL     1       2.328   8.972  17.240  0.00  0.00    +0.000 OA
ATOM      8  C   UNL     1       1.865   8.764  18.353  0.00  0.00    +0.000 C 
ATOM      9  N   UNL     1       1.218   9.674  19.165  0.00  0.00    +0.000 N 
ATOM     10  H   UNL     1       1.041   9.398  20.122  0.00  0.00    +0.000 HD
BRANCH   9  11
ATOM     11  C   UNL     1       0.905  11.014  18.846  0.00  0.00    +0.000 A 
ATOM     12  C   UNL     1       1.869  12.018  18.719  0.00  0.00    +0.000 A 
ATOM     13  C   UNL     1       1.491  13.330  18.428  0.00  0.00    +0.000 A 
ATOM     14  C   UNL     1       0.147  13.651  18.261  0.00  0.00    +0.000 A 
ATOM     15  C   UNL     1      -0.821  12.654  18.368  0.00  0.00    +0.000 A 
ATOM     16  C   UNL     1      -0.443  11.340  18.648  0.00  0.00    +0.000 A 
ENDBRANCH   9  11
ENDBRANCH   1   8
BRANCH   5  17
ATOM     17  C   UNL     1       3.357   3.962  17.960  0.00  0.00    +0.000 C 
BRANCH  17  18
ATOM     18  N   UNL     1       4.152   4.421  16.844  0.00  0.00    +0.000 N 
ATOM     19  C   UNL     1       5.048   3.591  16.197  0.00  0.00    +0.000 C 
ATOM     20  O   UNL     1       5.115   2.384  16.388  0.00  0.00    +0.000 OA
ATOM     21  H   UNL     1       4.094   5.399  16.605  0.00  0.00    +0.000 HD
BRANCH  19  22
ATOM     22  C   UNL     1       5.903   4.245  15.175  0.00  0.00    +0.000 A 
ATOM     23  C   UNL     1       5.696   3.895  13.829  0.00  0.00    +0.000 A 
ATOM     24  C   UNL     1       6.530   4.396  12.834  0.00  0.00    +0.000 A 
ATOM     25  C   UNL     1       7.583   5.204  13.211  0.00  0.00    +0.000 A 
ATOM     26  N   UNL     1       7.853   5.521  14.495  0.00  0.00    +0.000 NA
ATOM     27  C   UNL     1       7.000   5.058  15.469  0.00  0.00    +0.000 A 
BRANCH  27  28
ATOM     28  N   UNL     1       7.307   5.475  16.792  0.00  0.00    +0.000 N 
ATOM     29  C   UNL     1       7.644   4.647  17.837  0.00  0.00    +0.000 A 
ATOM     30  N   UNL     1       7.818   5.343  18.938  0.00  0.00    +0.000 NA
ATOM     31  C   UNL     1       7.639   6.621  18.505  0.00  0.00    +0.000 A 
ATOM     32  N   UNL     1       7.413   6.765  17.198  0.00  0.00    +0.000 NA
ENDBRANCH  27  28
ENDBRANCH  19  22
ENDBRANCH  17  18
ENDBRANCH   5  17
TORSDOF 6
ENDMDL
MODEL 7
REMARK VINA RESULT:      -8.1      2.138      3.201
REMARK  Name = 
REMARK  6 active torsions:
REMARK  status: ('A' for Active; 'I' for Inactive)
REMARK    1  A    between atoms: C_2  and  C_10
REMARK    2  A    between atoms: N_3  and  C_4
REMARK    3  A    between atoms: C_14  and  C_15
REMARK    4  A    between atoms: C_15  and  N_16
REMARK    5  A    between atoms: C_17  and  C_19
REMARK    6  A    between atoms: C_24  and  N_25
REMARK                            x       y       z     vdW  Elec       q    Type
REMARK                         _______ _______ _______ _____ _____    ______ ____
ROOT
ATOM      1  C   UNL     1       0.712   9.592  20.039  0.00  0.00    +0.000 A 
ATOM      2  C   UNL     1       0.781  10.249  18.805  0.00  0.00    +0.000 A 
ATOM      3  C   UNL     1       1.528   9.706  17.761  0.00  0.00    +0.000 A 
ATOM      4  C   UNL     1       2.209   8.502  17.943  0.00  0.00    +0.000 A 
ATOM      5  C   UNL     1       2.156   7.833  19.174  0.00  0.00    +0.000 A 
ATOM      6  C   UNL     1       1.390   8.381  20.216  0.00  0.00    +0.000 A 
ENDROOT
BRANCH   1   8
ATOM      7  O   UNL     1      -0.377   9.493  22.086  0.00  0.00    +0.000 OA
ATOM      8  C   UNL     1      -0.116  10.194  21.118  0.00  0.00    +0.000 C 
ATOM      9  N   UNL     1      -0.565  11.477  20.879  0.00  0.00    +0.000 N 
ATOM     10  H   UNL     1      -0.399  11.862  19.958  0.00  0.00    +0.000 HD
BRANCH   9  11
ATOM     11  C   UNL     1      -1.366  12.263  21.736  0.00  0.00    +0.000 A 
ATOM     12  C   UNL     1      -0.858  12.958  22.838  0.00  0.00    +0.000 A 
ATOM     13  C   UNL     1      -1.708  13.696  23.662  0.00  0.00    +0.000 A 
ATOM     14  C   UNL     1      -3.073  13.749  23.395  0.00  0.00    +0.000 A 
ATOM     15  C   UNL     1      -3.587  13.075  22.289  0.00  0.00    +0.000 A 
ATOM     16  C   UNL     1      -2.736  12.345  21.457  0.00  0.00    +0.000 A 
ENDBRANCH   9  11
ENDBRANCH   1   8
BRANCH   5  17
ATOM     17  C   UNL     1       2.892   6.535  19.385  0.00  0.00    +0.000 C 
BRANCH  17  18
ATOM     18  N   UNL     1       3.612   6.105  18.209  0.00  0.00    +0.000 N 
ATOM     19  C   UNL     1       4.819   5.437  18.296  0.00  0.00    +0.000 C 
ATOM     20  O   UNL     1       5.283   5.006  19.344  0.00  0.00    +0.000 OA
ATOM     21  H   UNL     1       3.244   6.384  17.312  0.00  0.00    +0.000 HD
BRANCH  19  22
ATOM     22  C   UNL     1       5.514   5.198  17.006  0.00  0.00    +0.000 A 
ATOM     23  C   UNL     1       4.978   4.223  16.146  0.00  0.00    +0.000 A 
ATOM     24  C   UNL     1       5.638   3.882  14.970  0.00  0.00    +0.000 A 
ATOM     25  C   UNL     1       6.845   4.493  14.698  0.00  0.00    +0.000 A 
ATOM     26  N   UNL     1       7.424   5.393  15.521  0.00  0.00    +0.000 NA
ATOM     27  C   UNL     1       6.746   5.757  16.660  0.00  0.00    +0.000 A 
BRANCH  27  28
ATOM     28  N   UNL     1       7.382   6.751  17.453  0.00  0.00    +0.000 N 
ATOM     29  C   UNL     1       7.342   8.107  17.225  0.00  0.00    +0.000 A 
ATOM     30  N   UNL     1       8.072   8.743  18.113  0.00  0.00    +0.000 NA
ATOM     31  C   UNL     1       8.498   7.732  18.919  0.00  0.00    +0.000 A 
ATOM     32  N   UNL     1       8.039   6.516  18.615  0.00  0.00    +0.000 NA
ENDBRANCH  27  28
ENDBRANCH  19  22
ENDBRANCH  17  18
ENDBRANCH   5  17
TORSDOF 6
ENDMDL
MODEL 8
REMARK VINA RESULT:      -8.0      2.361     10.511
REMARK  Name = 
REMARK  6 active torsions:
REMARK  status: ('A' for Active; 'I' for Inactive)
REMARK    1  A    between atoms: C_2  and  C_10
REMARK    2  A    between atoms: N_3  and  C_4
REMARK    3  A    between atoms: C_14  and  C_15
REMARK    4  A    between atoms: C_15  and  N_16
REMARK    5  A    between atoms: C_17  and  C_19
REMARK    6  A    between atoms: C_24  and  N_25
REMARK                            x       y       z     vdW  Elec       q    Type
REMARK                         _______ _______ _______ _____ _____    ______ ____
ROOT
ATOM      1  C   UNL     1       2.461   7.621  18.732  0.00  0.00    +0.000 A 
ATOM      2  C   UNL     1       2.112   8.520  17.719  0.00  0.00    +0.000 A 
ATOM      3  C   UNL     1       1.238   9.574  17.985  0.00  0.00    +0.000 A 
ATOM      4  C   UNL     1       0.710   9.735  19.267  0.00  0.00    +0.000 A 
ATOM      5  C   UNL     1       1.045   8.840  20.292  0.00  0.00    +0.000 A 
ATOM      6  C   UNL     1       1.937   7.790  20.018  0.00  0.00    +0.000 A 
ENDROOT
BRANCH   1   8
ATOM      7  O   UNL     1       3.389   5.529  19.118  0.00  0.00    +0.000 OA
ATOM      8  C   UNL     1       3.416   6.526  18.411  0.00  0.00    +0.000 C 
ATOM      9  N   UNL     1       4.290   6.783  17.373  0.00  0.00    +0.000 N 
ATOM     10  H   UNL     1       4.294   7.721  16.992  0.00  0.00    +0.000 HD
BRANCH   9  11
ATOM     11  C   UNL     1       5.288   5.916  16.878  0.00  0.00    +0.000 A 
ATOM     12  C   UNL     1       5.255   5.360  15.596  0.00  0.00    +0.000 A 
ATOM     13  C   UNL     1       6.262   4.488  15.177  0.00  0.00    +0.000 A 
ATOM     14  C   UNL     1       7.310   4.164  16.033  0.00  0.00    +0.000 A 
ATOM     15  C   UNL     1       7.362   4.727  17.306  0.00  0.00    +0.000 A 
ATOM     16  C   UNL     1       6.362   5.608  17.723  0.00  0.00    +0.000 A 
ENDBRANCH   9  11
ENDBRANCH   1   8
BRANCH   5  17
ATOM     17  C   UNL     1       0.477   9.000  21.679  0.00  0.00    +0.000 C 
BRANCH  17  18
ATOM     18  N   UNL     1      -0.676   9.868  21.712  0.00  0.00    +0.000 N 
ATOM     19  C   UNL     1      -0.574  11.207  22.037  0.00  0.00    +0.000 C 
ATOM     20  O   UNL     1       0.492  11.799  22.145  0.00  0.00    +0.000 OA
ATOM     21  H   UNL     1      -1.581   9.442  21.573  0.00  0.00    +0.000 HD
BRANCH  19  22
ATOM     22  C   UNL     1      -1.860  11.933  22.182  0.00  0.00    +0.000 A 
ATOM     23  C   UNL     1      -2.413  12.035  23.470  0.00  0.00    +0.000 A 
ATOM     24  C   UNL     1      -3.664  12.614  23.658  0.00  0.00    +0.000 A 
ATOM     25  C   UNL     1      -4.357  13.043  22.544  0.00  0.00    +0.000 A 
ATOM     26  N   UNL     1      -3.890  12.916  21.284  0.00  0.00    +0.000 NA
ATOM     27  C   UNL     1      -2.636  12.382  21.109  0.00  0.00    +0.000 A 
BRANCH  27  28
ATOM     28  N   UNL     1      -2.180  12.330  19.765  0.00  0.00    +0.000 N 
ATOM     29  C   UNL     1      -1.144  13.067  19.238  0.00  0.00    +0.000 A 
ATOM     30  N   UNL     1      -1.010  12.819  17.955  0.00  0.00    +0.000 NA
ATOM     31  C   UNL     1      -1.954  11.862  17.743  0.00  0.00    +0.000 A 
ATOM     32  N   UNL     1      -2.632  11.466  18.822  0.00  0.00    +0.000 NA
ENDBRANCH  27  28
ENDBRANCH  19  22
ENDBRANCH  17  18
ENDBRANCH   5  17
TORSDOF 6
ENDMDL
MODEL 9
REMARK VINA RESULT:      -8.0      1.550      2.857
REMARK  Name = 
REMARK  6 active torsions:
REMARK  status: ('A' for Active; 'I' for Inactive)
REMARK    1  A    between atoms: C_2  and  C_10
REMARK    2  A    between atoms: N_3  and  C_4
REMARK    3  A    between atoms: C_14  and  C_15
REMARK    4  A    between atoms: C_15  and  N_16
REMARK    5  A    between atoms: C_17  and  C_19
REMARK    6  A    between atoms: C_24  and  N_25
REMARK                            x       y       z     vdW  Elec       q    Type
REMARK                         _______ _______ _______ _____ _____    ______ ____
ROOT
ATOM      1  C   UNL     1      -0.439  10.741  19.967  0.00  0.00    +0.000 A 
ATOM      2  C   UNL     1      -1.489  10.656  19.046  0.00  0.00    +0.000 A 
ATOM      3  C   UNL     1      -1.290  10.046  17.808  0.00  0.00    +0.000 A 
ATOM      4  C   UNL     1      -0.039   9.517  17.484  0.00  0.00    +0.000 A 
ATOM      5  C   UNL     1       1.025   9.600  18.393  0.00  0.00    +0.000 A 
ATOM      6  C   UNL     1       0.811  10.204  19.643  0.00  0.00    +0.000 A 
ENDROOT
BRANCH   1   8
ATOM      7  O   UNL     1       0.053  11.100  22.206  0.00  0.00    +0.000 OA
ATOM      8  C   UNL     1      -0.702  11.378  21.285  0.00  0.00    +0.000 C 
ATOM      9  N   UNL     1      -1.827  12.176  21.348  0.00  0.00    +0.000 N 
ATOM     10  H   UNL     1      -2.441  12.177  20.543  0.00  0.00    +0.000 HD
BRANCH   9  11
ATOM     11  C   UNL     1      -2.297  12.884  22.476  0.00  0.00    +0.000 A 
ATOM     12  C   UNL     1      -1.786  14.124  22.870  0.00  0.00    +0.000 A 
ATOM     13  C   UNL     1      -2.277  14.760  24.012  0.00  0.00    +0.000 A 
ATOM     14  C   UNL     1      -3.281  14.165  24.770  0.00  0.00    +0.000 A 
ATOM     15  C   UNL     1      -3.809  12.938  24.375  0.00  0.00    +0.000 A 
ATOM     16  C   UNL     1      -3.327  12.305  23.227  0.00  0.00    +0.000 A 
ENDBRANCH   9  11
ENDBRANCH   1   8
BRANCH   5  17
ATOM     17  C   UNL     1       2.382   9.038  18.053  0.00  0.00    +0.000 C 
BRANCH  17  18
ATOM     18  N   UNL     1       2.345   7.621  17.778  0.00  0.00    +0.000 N 
ATOM     19  C   UNL     1       2.584   6.680  18.761  0.00  0.00    +0.000 C 
ATOM     20  O   UNL     1       2.667   6.949  19.952  0.00  0.00    +0.000 OA
ATOM     21  H   UNL     1       2.223   7.338  16.817  0.00  0.00    +0.000 HD
BRANCH  19  22
ATOM     22  C   UNL     1       2.667   5.272  18.296  0.00  0.00    +0.000 A 
ATOM     23  C   UNL     1       1.501   4.489  18.372  0.00  0.00    +0.000 A 
ATOM     24  C   UNL     1       1.538   3.137  18.047  0.00  0.00    +0.000 A 
ATOM     25  C   UNL     1       2.752   2.585  17.691  0.00  0.00    +0.000 A 
ATOM     26  N   UNL     1       3.906   3.285  17.658  0.00  0.00    +0.000 NA
ATOM     27  C   UNL     1       3.855   4.629  17.939  0.00  0.00    +0.000 A 
BRANCH  27  28
ATOM     28  N   UNL     1       5.092   5.320  17.829  0.00  0.00    +0.000 N 
ATOM     29  C   UNL     1       6.070   5.373  18.795  0.00  0.00    +0.000 A 
ATOM     30  N   UNL     1       7.065   6.134  18.399  0.00  0.00    +0.000 NA
ATOM     31  C   UNL     1       6.683   6.481  17.140  0.00  0.00    +0.000 A 
ATOM     32  N   UNL     1       5.538   5.946  16.712  0.00  0.00    +0.000 NA
ENDBRANCH  27  28
ENDBRANCH  19  22
ENDBRANCH  17  18
ENDBRANCH   5  17
TORSDOF 6
ENDMDL
