MODEL 1
REMARK VINA RESULT:      -8.2      0.000      0.000
REMARK  Name = 
REMARK  5 active torsions:
REMARK  status: ('A' for Active; 'I' for Inactive)
REMARK    1  A    between atoms: S_2  and  N_4
REMARK    2  A    between atoms: S_2  and  C_16
REMARK    3  A    between atoms: N_4  and  C_5
REMARK    4  A    between atoms: C_7  and  C_8
REMARK    5  A    between atoms: C_19  and  C_20
REMARK                            x       y       z     vdW  Elec       q    Type
REMARK                         _______ _______ _______ _____ _____    ______ ____
ROOT
ATOM      1  O   UNL     1       6.080   4.032  18.735  0.00  0.00    +0.000 OA
ATOM      2  S   UNL     1       6.132   4.774  17.493  0.00  0.00    +0.000 S 
ATOM      3  O   UNL     1       6.766   4.217  16.316  0.00  0.00    +0.000 OA
ENDROOT
BRANCH   2   4
ATOM      4  C   UNL     1       6.986   6.299  17.854  0.00  0.00    +0.000 A 
ATOM      5  C   UNL     1       7.903   6.325  18.902  0.00  0.00    +0.000 A 
ATOM      6  C   UNL     1       8.583   7.511  19.194  0.00  0.00    +0.000 A 
ATOM      7  C   UNL     1       8.383   8.689  18.444  0.00  0.00    +0.000 A 
ATOM      8  C   UNL     1       7.462   8.621  17.380  0.00  0.00    +0.000 A 
ATOM      9  C   UNL     1       6.758   7.447  17.084  0.00  0.00    +0.000 A 
BRANCH   7  10
ATOM     10  C   UNL     1       9.113   9.941  18.774  0.00  0.00    +0.000 A 
ATOM     11  C   UNL     1       9.654  10.765  17.766  0.00  0.00    +0.000 A 
ATOM     12  C   UNL     1      10.388  11.916  18.071  0.00  0.00    +0.000 A 
ATOM     13  C   UNL     1      10.582  12.289  19.395  0.00  0.00    +0.000 A 
ATOM     14  C   UNL     1      10.038  11.512  20.413  0.00  0.00    +0.000 A 
ATOM     15  C   UNL     1       9.316  10.352  20.105  0.00  0.00    +0.000 A 
ENDBRANCH   7  10
ENDBRANCH   2   4
BRANCH   2  16
ATOM     16  N   UNL     1       4.632   5.301  17.068  0.00  0.00    +0.000 N 
ATOM     17  H   UNL     1       4.217   4.738  16.341  0.00  0.00    +0.000 HD
BRANCH  16  18
ATOM     18  C   UNL     1       3.788   5.751  18.069  0.00  0.00    +0.000 A 
ATOM     19  C   UNL     1       3.271   7.021  18.158  0.00  0.00    +0.000 A 
ATOM     20  C   UNL     1       2.457   7.027  19.329  0.00  0.00    +0.000 A 
ATOM     21  N   UNL     1       2.519   5.828  19.937  0.00  0.00    +0.000 NA
ATOM     22  N   UNL     1       3.286   5.067  19.138  0.00  0.00    +0.000 N 
ATOM     23  H   UNL     1       3.464   4.108  19.418  0.00  0.00    +0.000 HD
BRANCH  20  24
ATOM     24  C   UNL     1       1.639   8.124  19.862  0.00  0.00    +0.000 A 
ATOM     25  C   UNL     1       1.153   8.107  21.175  0.00  0.00    +0.000 A 
ATOM     26  C   UNL     1       0.376   9.167  21.649  0.00  0.00    +0.000 A 
ATOM     27  C   UNL     1       0.102  10.218  20.793  0.00  0.00    +0.000 A 
ATOM     28  N   UNL     1       0.546  10.277  19.521  0.00  0.00    +0.000 NA
ATOM     29  C   UNL     1       1.297   9.231  19.089  0.00  0.00    +0.000 A 
ENDBRANCH  20  24
ENDBRANCH  16  18
ENDBRANCH   2  16
TORSDOF 5
ENDMDL
MODEL 2
REMARK VINA RESULT:      -8.1      0.148      1.318
REMARK  Name = 
REMARK  5 active torsions:
REMARK  status: ('A' for Active; 'I' for Inactive)
REMARK    1  A    between atoms: S_2  and  N_4
REMARK    2  A    between atoms: S_2  and  C_16
REMARK    3  A    between atoms: N_4  and  C_5
REMARK    4  A    between atoms: C_7  and  C_8
REMARK    5  A    between atoms: C_19  and  C_20
REMARK                            x       y       z     vdW  Elec       q    Type
REMARK                         _______ _______ _______ _____ _____    ______ ____
ROOT
ATOM      1  O   UNL     1       6.141   4.009  18.600  0.00  0.00    +0.000 OA
ATOM      2  S   UNL     1       6.233   4.790  17.384  0.00  0.00    +0.000 S 
ATOM      3  O   UNL     1       6.892   4.264  16.206  0.00  0.00    +0.000 OA
ENDROOT
BRANCH   2   4
ATOM      4  C   UNL     1       7.091   6.293  17.816  0.00  0.00    +0.000 A 
ATOM      5  C   UNL     1       6.871   7.437  17.052  0.00  0.00    +0.000 A 
ATOM      6  C   UNL     1       7.534   8.624  17.381  0.00  0.00    +0.000 A 
ATOM      7  C   UNL     1       8.412   8.706  18.482  0.00  0.00    +0.000 A 
ATOM      8  C   UNL     1       8.597   7.535  19.242  0.00  0.00    +0.000 A 
ATOM      9  C   UNL     1       7.957   6.332  18.917  0.00  0.00    +0.000 A 
BRANCH   7  10
ATOM     10  C   UNL     1       9.109   9.977  18.812  0.00  0.00    +0.000 A 
ATOM     11  C   UNL     1       9.349  10.359  20.147  0.00  0.00    +0.000 A 
ATOM     12  C   UNL     1       9.957  11.579  20.466  0.00  0.00    +0.000 A 
ATOM     13  C   UNL     1      10.364  12.440  19.455  0.00  0.00    +0.000 A 
ATOM     14  C   UNL     1      10.167  12.081  18.126  0.00  0.00    +0.000 A 
ATOM     15  C   UNL     1       9.543  10.866  17.810  0.00  0.00    +0.000 A 
ENDBRANCH   7  10
ENDBRANCH   2   4
BRANCH   2  16
ATOM     16  N   UNL     1       4.750   5.345  16.936  0.00  0.00    +0.000 N 
ATOM     17  H   UNL     1       4.356   4.820  16.171  0.00  0.00    +0.000 HD
BRANCH  16  18
ATOM     18  C   UNL     1       3.876   5.755  17.929  0.00  0.00    +0.000 A 
ATOM     19  C   UNL     1       3.389   7.030  18.080  0.00  0.00    +0.000 A 
ATOM     20  C   UNL     1       2.527   6.985  19.215  0.00  0.00    +0.000 A 
ATOM     21  N   UNL     1       2.533   5.748  19.746  0.00  0.00    +0.000 NA
ATOM     22  N   UNL     1       3.313   5.018  18.931  0.00  0.00    +0.000 N 
ATOM     23  H   UNL     1       3.454   4.038  19.155  0.00  0.00    +0.000 HD
BRANCH  20  24
ATOM     24  C   UNL     1       1.716   8.068  19.786  0.00  0.00    +0.000 A 
ATOM     25  C   UNL     1       1.257   8.025  21.107  0.00  0.00    +0.000 A 
ATOM     26  C   UNL     1       0.487   9.072  21.617  0.00  0.00    +0.000 A 
ATOM     27  C   UNL     1       0.190  10.138  20.787  0.00  0.00    +0.000 A 
ATOM     28  N   UNL     1       0.607  10.221  19.507  0.00  0.00    +0.000 NA
ATOM     29  C   UNL     1       1.354   9.187  19.040  0.00  0.00    +0.000 A 
ENDBRANCH  20  24
ENDBRANCH  16  18
ENDBRANCH   2  16
TORSDOF 5
ENDMDL
MODEL 3
REMARK VINA RESULT:      -8.1      0.720      1.448
REMARK  Name = 
REMARK  5 active torsions:
REMARK  status: ('A' for Active; 'I' for Inactive)
REMARK    1  A    between atoms: S_2  and  N_4
REMARK    2  A    between atoms: S_2  and  C_16
REMARK    3  A    between atoms: N_4  and  C_5
REMARK    4  A    between atoms: C_7  and  C_8
REMARK    5  A    between atoms: C_19  and  C_20
REMARK                            x       y       z     vdW  Elec       q    Type
REMARK                         _______ _______ _______ _____ _____    ______ ____
ROOT
ATOM      1  O   UNL     1       6.438   4.167  18.476  0.00  0.00    +0.000 OA
ATOM      2  S   UNL     1       6.594   4.962  17.276  0.00  0.00    +0.000 S 
ATOM      3  O   UNL     1       7.352   4.468  16.145  0.00  0.00    +0.000 OA
ENDROOT
BRANCH   2   4
ATOM      4  C   UNL     1       7.371   6.486  17.780  0.00  0.00    +0.000 A 
ATOM      5  C   UNL     1       7.176   7.629  17.008  0.00  0.00    +0.000 A 
ATOM      6  C   UNL     1       7.776   8.832  17.393  0.00  0.00    +0.000 A 
ATOM      7  C   UNL     1       8.564   8.932  18.558  0.00  0.00    +0.000 A 
ATOM      8  C   UNL     1       8.725   7.761  19.325  0.00  0.00    +0.000 A 
ATOM      9  C   UNL     1       8.147   6.543  18.945  0.00  0.00    +0.000 A 
BRANCH   7  10
ATOM     10  C   UNL     1       9.196  10.220  18.948  0.00  0.00    +0.000 A 
ATOM     11  C   UNL     1       9.689  11.120  17.981  0.00  0.00    +0.000 A 
ATOM     12  C   UNL     1      10.333  12.309  18.342  0.00  0.00    +0.000 A 
ATOM     13  C   UNL     1      10.480  12.642  19.683  0.00  0.00    +0.000 A 
ATOM     14  C   UNL     1       9.981  11.789  20.661  0.00  0.00    +0.000 A 
ATOM     15  C   UNL     1       9.351  10.592  20.297  0.00  0.00    +0.000 A 
ENDBRANCH   7  10
ENDBRANCH   2   4
BRANCH   2  16
ATOM     16  N   UNL     1       5.130   5.476  16.726  0.00  0.00    +0.000 N 
ATOM     17  H   UNL     1       4.762   4.885  15.997  0.00  0.00    +0.000 HD
BRANCH  16  18
ATOM     18  C   UNL     1       4.222   5.972  17.646  0.00  0.00    +0.000 A 
ATOM     19  C   UNL     1       3.576   7.181  17.549  0.00  0.00    +0.000 A 
ATOM     20  C   UNL     1       2.740   7.267  18.702  0.00  0.00    +0.000 A 
ATOM     21  N   UNL     1       2.912   6.180  19.475  0.00  0.00    +0.000 NA
ATOM     22  N   UNL     1       3.770   5.397  18.799  0.00  0.00    +0.000 N 
ATOM     23  H   UNL     1       4.039   4.511  19.214  0.00  0.00    +0.000 HD
BRANCH  20  24
ATOM     24  C   UNL     1       1.802   8.336  19.067  0.00  0.00    +0.000 A 
ATOM     25  C   UNL     1       1.329   9.254  18.122  0.00  0.00    +0.000 A 
ATOM     26  C   UNL     1       0.438  10.260  18.505  0.00  0.00    +0.000 A 
ATOM     27  C   UNL     1       0.046  10.324  19.830  0.00  0.00    +0.000 A 
ATOM     28  N   UNL     1       0.478   9.465  20.775  0.00  0.00    +0.000 NA
ATOM     29  C   UNL     1       1.343   8.499  20.372  0.00  0.00    +0.000 A 
ENDBRANCH  20  24
ENDBRANCH  16  18
ENDBRANCH   2  16
TORSDOF 5
ENDMDL
MODEL 4
REMARK VINA RESULT:      -8.1      0.829      1.500
REMARK  Name = 
REMARK  5 active torsions:
REMARK  status: ('A' for Active; 'I' for Inactive)
REMARK    1  A    between atoms: S_2  and  N_4
REMARK    2  A    between atoms: S_2  and  C_16
REMARK    3  A    between atoms: N_4  and  C_5
REMARK    4  A    between atoms: C_7  and  C_8
REMARK    5  A    between atoms: C_19  and  C_20
REMARK                            x       y       z     vdW  Elec       q    Type
REMARK                         _______ _______ _______ _____ _____    ______ ____
ROOT
ATOM      1  O   UNL     1       6.273   4.217  18.600  0.00  0.00    +0.000 OA
ATOM      2  S   UNL     1       6.607   4.883  17.359  0.00  0.00    +0.000 S 
ATOM      3  O   UNL     1       7.499   4.268  16.397  0.00  0.00    +0.000 OA
ENDROOT
BRANCH   2   4
ATOM      4  C   UNL     1       7.345   6.443  17.809  0.00  0.00    +0.000 A 
ATOM      5  C   UNL     1       8.127   6.511  18.960  0.00  0.00    +0.000 A 
ATOM      6  C   UNL     1       8.716   7.726  19.323  0.00  0.00    +0.000 A 
ATOM      7  C   UNL     1       8.558   8.893  18.546  0.00  0.00    +0.000 A 
ATOM      8  C   UNL     1       7.776   8.783  17.379  0.00  0.00    +0.000 A 
ATOM      9  C   UNL     1       7.163   7.579  17.009  0.00  0.00    +0.000 A 
BRANCH   7  10
ATOM     10  C   UNL     1       9.189  10.176  18.952  0.00  0.00    +0.000 A 
ATOM     11  C   UNL     1       9.351  10.519  20.309  0.00  0.00    +0.000 A 
ATOM     12  C   UNL     1       9.896  11.748  20.699  0.00  0.00    +0.000 A 
ATOM     13  C   UNL     1      10.316  12.659  19.738  0.00  0.00    +0.000 A 
ATOM     14  C   UNL     1      10.195  12.341  18.389  0.00  0.00    +0.000 A 
ATOM     15  C   UNL     1       9.635  11.116  18.003  0.00  0.00    +0.000 A 
ENDBRANCH   7  10
ENDBRANCH   2   4
BRANCH   2  16
ATOM     16  N   UNL     1       5.243   5.352  16.567  0.00  0.00    +0.000 N 
ATOM     17  H   UNL     1       5.038   4.769  15.770  0.00  0.00    +0.000 HD
BRANCH  16  18
ATOM     18  C   UNL     1       4.163   5.783  17.319  0.00  0.00    +0.000 A 
ATOM     19  C   UNL     1       3.842   7.096  17.564  0.00  0.00    +0.000 A 
ATOM     20  C   UNL     1       2.662   7.063  18.365  0.00  0.00    +0.000 A 
ATOM     21  N   UNL     1       2.319   5.788  18.625  0.00  0.00    +0.000 NA
ATOM     22  N   UNL     1       3.208   5.039  17.949  0.00  0.00    +0.000 N 
ATOM     23  H   UNL     1       3.127   4.030  18.010  0.00  0.00    +0.000 HD
BRANCH  20  24
ATOM     24  C   UNL     1       1.874   8.194  18.871  0.00  0.00    +0.000 A 
ATOM     25  C   UNL     1       1.429   9.217  18.025  0.00  0.00    +0.000 A 
ATOM     26  C   UNL     1       0.683  10.280  18.540  0.00  0.00    +0.000 A 
ATOM     27  C   UNL     1       0.403  10.293  19.895  0.00  0.00    +0.000 A 
ATOM     28  N   UNL     1       0.812   9.332  20.748  0.00  0.00    +0.000 NA
ATOM     29  C   UNL     1       1.536   8.313  20.217  0.00  0.00    +0.000 A 
ENDBRANCH  20  24
ENDBRANCH  16  18
ENDBRANCH   2  16
TORSDOF 5
ENDMDL
MODEL 5
REMARK VINA RESULT:      -8.0      2.213      6.998
REMARK  Name = 
REMARK  5 active torsions:
REMARK  status: ('A' for Active; 'I' for Inactive)
REMARK    1  A    between atoms: S_2  and  N_4
REMARK    2  A    between atoms: S_2  and  C_16
REMARK    3  A    between atoms: N_4  and  C_5
REMARK    4  A    between atoms: C_7  and  C_8
REMARK    5  A    between atoms: C_19  and  C_20
REMARK                            x       y       z     vdW  Elec       q    Type
REMARK                         _______ _______ _______ _____ _____    ______ ____
ROOT
ATOM      1  O   UNL     1       4.716   4.041  16.201  0.00  0.00    +0.000 OA
ATOM      2  S   UNL     1       5.445   4.774  17.215  0.00  0.00    +0.000 S 
ATOM      3  O   UNL     1       6.142   4.083  18.281  0.00  0.00    +0.000 OA
ENDROOT
BRANCH   2   4
ATOM      4  C   UNL     1       4.263   5.855  18.000  0.00  0.00    +0.000 A 
ATOM      5  C   UNL     1       3.869   7.016  17.339  0.00  0.00    +0.000 A 
ATOM      6  C   UNL     1       2.940   7.870  17.940  0.00  0.00    +0.000 A 
ATOM      7  C   UNL     1       2.369   7.585  19.198  0.00  0.00    +0.000 A 
ATOM      8  C   UNL     1       2.777   6.393  19.830  0.00  0.00    +0.000 A 
ATOM      9  C   UNL     1       3.721   5.534  19.252  0.00  0.00    +0.000 A 
BRANCH   7  10
ATOM     10  C   UNL     1       1.386   8.509  19.821  0.00  0.00    +0.000 A 
ATOM     11  C   UNL     1       0.904   9.642  19.135  0.00  0.00    +0.000 A 
ATOM     12  C   UNL     1       0.020  10.546  19.736  0.00  0.00    +0.000 A 
ATOM     13  C   UNL     1      -0.425  10.327  21.033  0.00  0.00    +0.000 A 
ATOM     14  C   UNL     1       0.011   9.204  21.729  0.00  0.00    +0.000 A 
ATOM     15  C   UNL     1       0.908   8.310  21.130  0.00  0.00    +0.000 A 
ENDBRANCH   7  10
ENDBRANCH   2   4
BRANCH   2  16
ATOM     16  N   UNL     1       6.492   5.838  16.522  0.00  0.00    +0.000 N 
ATOM     17  H   UNL     1       6.121   6.252  15.681  0.00  0.00    +0.000 HD
BRANCH  16  18
ATOM     18  C   UNL     1       7.232   6.664  17.351  0.00  0.00    +0.000 A 
ATOM     19  C   UNL     1       7.451   8.004  17.144  0.00  0.00    +0.000 A 
ATOM     20  C   UNL     1       8.248   8.441  18.243  0.00  0.00    +0.000 A 
ATOM     21  N   UNL     1       8.529   7.400  19.048  0.00  0.00    +0.000 NA
ATOM     22  N   UNL     1       7.870   6.355  18.518  0.00  0.00    +0.000 N 
ATOM     23  H   UNL     1       7.950   5.455  18.980  0.00  0.00    +0.000 HD
BRANCH  20  24
ATOM     24  C   UNL     1       8.730   9.797  18.535  0.00  0.00    +0.000 A 
ATOM     25  C   UNL     1       9.403  10.098  19.724  0.00  0.00    +0.000 A 
ATOM     26  C   UNL     1       9.847  11.399  19.970  0.00  0.00    +0.000 A 
ATOM     27  C   UNL     1       9.600  12.371  19.017  0.00  0.00    +0.000 A 
ATOM     28  N   UNL     1       8.953  12.129  17.859  0.00  0.00    +0.000 NA
ATOM     29  C   UNL     1       8.534  10.854  17.649  0.00  0.00    +0.000 A 
ENDBRANCH  20  24
ENDBRANCH  16  18
ENDBRANCH   2  16
TORSDOF 5
ENDMDL
MODEL 6
REMARK VINA RESULT:      -8.0      4.554      7.814
REMARK  Name = 
REMARK  5 active torsions:
REMARK  status: ('A' for Active; 'I' for Inactive)
REMARK    1  A    between atoms: S_2  and  N_4
REMARK    2  A    between atoms: S_2  and  C_16
REMARK    3  A    between atoms: N_4  and  C_5
REMARK    4  A    between atoms: C_7  and  C_8
REMARK    5  A    between atoms: C_19  and  C_20
REMARK                            x       y       z     vdW  Elec       q    Type
REMARK                         _______ _______ _______ _____ _____    ______ ____
ROOT
ATOM      1  O   UNL     1       2.027   4.624  18.473  0.00  0.00    +0.000 OA
ATOM      2  S   UNL     1       2.769   5.398  19.446  0.00  0.00    +0.000 S 
ATOM      3  O   UNL     1       2.731   5.061  20.855  0.00  0.00    +0.000 OA
ENDROOT
BRANCH   2   4
ATOM      4  C   UNL     1       2.177   7.075  19.311  0.00  0.00    +0.000 A 
ATOM      5  C   UNL     1       2.228   7.709  18.071  0.00  0.00    +0.000 A 
ATOM      6  C   UNL     1       1.764   9.023  17.949  0.00  0.00    +0.000 A 
ATOM      7  C   UNL     1       1.224   9.727  19.045  0.00  0.00    +0.000 A 
ATOM      8  C   UNL     1       1.171   9.049  20.279  0.00  0.00    +0.000 A 
ATOM      9  C   UNL     1       1.649   7.741  20.425  0.00  0.00    +0.000 A 
BRANCH   7  10
ATOM     10  C   UNL     1       0.739  11.125  18.894  0.00  0.00    +0.000 A 
ATOM     11  C   UNL     1      -0.593  11.407  18.532  0.00  0.00    +0.000 A 
ATOM     12  C   UNL     1      -1.041  12.718  18.335  0.00  0.00    +0.000 A 
ATOM     13  C   UNL     1      -0.173  13.786  18.521  0.00  0.00    +0.000 A 
ATOM     14  C   UNL     1       1.142  13.544  18.905  0.00  0.00    +0.000 A 
ATOM     15  C   UNL     1       1.592  12.229  19.085  0.00  0.00    +0.000 A 
ENDBRANCH   7  10
ENDBRANCH   2   4
BRANCH   2  16
ATOM     16  N   UNL     1       4.344   5.541  18.995  0.00  0.00    +0.000 N 
ATOM     17  H   UNL     1       4.973   5.552  19.784  0.00  0.00    +0.000 HD
BRANCH  16  18
ATOM     18  C   UNL     1       4.768   4.857  17.869  0.00  0.00    +0.000 A 
ATOM     19  C   UNL     1       5.293   5.438  16.740  0.00  0.00    +0.000 A 
ATOM     20  C   UNL     1       5.595   4.361  15.854  0.00  0.00    +0.000 A 
ATOM     21  N   UNL     1       5.226   3.193  16.411  0.00  0.00    +0.000 NA
ATOM     22  N   UNL     1       4.776   3.512  17.636  0.00  0.00    +0.000 N 
ATOM     23  H   UNL     1       4.443   2.763  18.233  0.00  0.00    +0.000 HD
BRANCH  20  24
ATOM     24  C   UNL     1       6.216   4.423  14.525  0.00  0.00    +0.000 A 
ATOM     25  C   UNL     1       5.795   3.596  13.477  0.00  0.00    +0.000 A 
ATOM     26  C   UNL     1       6.409   3.681  12.226  0.00  0.00    +0.000 A 
ATOM     27  C   UNL     1       7.436   4.592  12.055  0.00  0.00    +0.000 A 
ATOM     28  N   UNL     1       7.876   5.407  13.035  0.00  0.00    +0.000 NA
ATOM     29  C   UNL     1       7.260   5.300  14.240  0.00  0.00    +0.000 A 
ENDBRANCH  20  24
ENDBRANCH  16  18
ENDBRANCH   2  16
TORSDOF 5
ENDMDL
MODEL 7
REMARK VINA RESULT:      -8.0      5.571      7.948
REMARK  Name = 
REMARK  5 active torsions:
REMARK  status: ('A' for Active; 'I' for Inactive)
REMARK    1  A    between atoms: S_2  and  N_4
REMARK    2  A    between atoms: S_2  and  C_16
REMARK    3  A    between atoms: N_4  and  C_5
REMARK    4  A    between atoms: C_7  and  C_8
REMARK    5  A    between atoms: C_19  and  C_20
REMARK                            x       y       z     vdW  Elec       q    Type
REMARK                         _______ _______ _______ _____ _____    ______ ____
ROOT
ATOM      1  O   UNL     1       1.242  10.993  21.505  0.00  0.00    +0.000 OA
ATOM      2  S   UNL     1       0.328  10.326  20.602  0.00  0.00    +0.000 S 
ATOM      3  O   UNL     1      -0.825   9.606  21.102  0.00  0.00    +0.000 OA
ENDROOT
BRANCH   2   4
ATOM      4  C   UNL     1       1.301   9.146  19.682  0.00  0.00    +0.000 A 
ATOM      5  C   UNL     1       1.678   7.956  20.301  0.00  0.00    +0.000 A 
ATOM      6  C   UNL     1       2.437   7.021  19.592  0.00  0.00    +0.000 A 
ATOM      7  C   UNL     1       2.823   7.236  18.252  0.00  0.00    +0.000 A 
ATOM      8  C   UNL     1       2.409   8.442  17.653  0.00  0.00    +0.000 A 
ATOM      9  C   UNL     1       1.664   9.399  18.353  0.00  0.00    +0.000 A 
BRANCH   7  10
ATOM     10  C   UNL     1       3.634   6.230  17.517  0.00  0.00    +0.000 A 
ATOM     11  C   UNL     1       3.409   4.847  17.673  0.00  0.00    +0.000 A 
ATOM     12  C   UNL     1       4.203   3.894  17.026  0.00  0.00    +0.000 A 
ATOM     13  C   UNL     1       5.232   4.299  16.185  0.00  0.00    +0.000 A 
ATOM     14  C   UNL     1       5.463   5.657  15.988  0.00  0.00    +0.000 A 
ATOM     15  C   UNL     1       4.676   6.608  16.650  0.00  0.00    +0.000 A 
ENDBRANCH   7  10
ENDBRANCH   2   4
BRANCH   2  16
ATOM     16  N   UNL     1      -0.182  11.357  19.425  0.00  0.00    +0.000 N 
ATOM     17  H   UNL     1       0.540  11.564  18.753  0.00  0.00    +0.000 HD
BRANCH  16  18
ATOM     18  C   UNL     1      -1.468  11.207  18.934  0.00  0.00    +0.000 A 
ATOM     19  C   UNL     1      -2.531  12.024  19.233  0.00  0.00    +0.000 A 
ATOM     20  C   UNL     1      -3.639  11.502  18.502  0.00  0.00    +0.000 A 
ATOM     21  N   UNL     1      -3.267  10.396  17.833  0.00  0.00    +0.000 NA
ATOM     22  N   UNL     1      -1.950  10.266  18.071  0.00  0.00    +0.000 N 
ATOM     23  H   UNL     1      -1.464   9.480  17.651  0.00  0.00    +0.000 HD
BRANCH  20  24
ATOM     24  C   UNL     1      -5.009  12.026  18.430  0.00  0.00    +0.000 A 
ATOM     25  C   UNL     1      -5.634  12.282  17.204  0.00  0.00    +0.000 A 
ATOM     26  C   UNL     1      -6.938  12.782  17.172  0.00  0.00    +0.000 A 
ATOM     27  C   UNL     1      -7.584  13.017  18.372  0.00  0.00    +0.000 A 
ATOM     28  N   UNL     1      -7.022  12.788  19.576  0.00  0.00    +0.000 NA
ATOM     29  C   UNL     1      -5.753  12.303  19.574  0.00  0.00    +0.000 A 
ENDBRANCH  20  24
ENDBRANCH  16  18
ENDBRANCH   2  16
TORSDOF 5
ENDMDL
MODEL 8
REMARK VINA RESULT:      -7.9      4.451      5.758
REMARK  Name = 
REMARK  5 active torsions:
REMARK  status: ('A' for Active; 'I' for Inactive)
REMARK    1  A    between atoms: S_2  and  N_4
REMARK    2  A    between atoms: S_2  and  C_16
REMARK    3  A    between atoms: N_4  and  C_5
REMARK    4  A    between atoms: C_7  and  C_8
REMARK    5  A    between atoms: C_19  and  C_20
REMARK                            x       y       z     vdW  Elec       q    Type
REMARK                         _______ _______ _______ _____ _____    ______ ____
ROOT
ATOM      1  O   UNL     1       3.052   3.759  20.312  0.00  0.00    +0.000 OA
ATOM      2  S   UNL     1       2.641   4.866  19.474  0.00  0.00    +0.000 S 
ATOM      3  O   UNL     1       1.264   5.009  19.047  0.00  0.00    +0.000 OA
ENDROOT
BRANCH   2   4
ATOM      4  C   UNL     1       3.624   4.762  17.989  0.00  0.00    +0.000 A 
ATOM      5  C   UNL     1       3.640   3.567  17.273  0.00  0.00    +0.000 A 
ATOM      6  C   UNL     1       4.402   3.472  16.105  0.00  0.00    +0.000 A 
ATOM      7  C   UNL     1       5.149   4.563  15.612  0.00  0.00    +0.000 A 
ATOM      8  C   UNL     1       5.095   5.761  16.351  0.00  0.00    +0.000 A 
ATOM      9  C   UNL     1       4.352   5.869  17.534  0.00  0.00    +0.000 A 
BRANCH   7  10
ATOM     10  C   UNL     1       5.956   4.440  14.370  0.00  0.00    +0.000 A 
ATOM     11  C   UNL     1       7.140   5.181  14.185  0.00  0.00    +0.000 A 
ATOM     12  C   UNL     1       7.876   5.111  12.997  0.00  0.00    +0.000 A 
ATOM     13  C   UNL     1       7.460   4.276  11.968  0.00  0.00    +0.000 A 
ATOM     14  C   UNL     1       6.310   3.509  12.129  0.00  0.00    +0.000 A 
ATOM     15  C   UNL     1       5.567   3.594  13.314  0.00  0.00    +0.000 A 
ENDBRANCH   7  10
ENDBRANCH   2   4
BRANCH   2  16
ATOM     16  N   UNL     1       3.129   6.297  20.122  0.00  0.00    +0.000 N 
ATOM     17  H   UNL     1       4.113   6.468  19.985  0.00  0.00    +0.000 HD
BRANCH  16  18
ATOM     18  C   UNL     1       2.284   7.389  20.012  0.00  0.00    +0.000 A 
ATOM     19  C   UNL     1       1.549   7.929  21.039  0.00  0.00    +0.000 A 
ATOM     20  C   UNL     1       0.843   9.031  20.472  0.00  0.00    +0.000 A 
ATOM     21  N   UNL     1       1.109   9.118  19.155  0.00  0.00    +0.000 NA
ATOM     22  N   UNL     1       2.011   8.151  18.913  0.00  0.00    +0.000 N 
ATOM     23  H   UNL     1       2.351   8.042  17.963  0.00  0.00    +0.000 HD
BRANCH  20  24
ATOM     24  C   UNL     1      -0.053   9.980  21.144  0.00  0.00    +0.000 A 
ATOM     25  C   UNL     1      -0.316   9.898  22.517  0.00  0.00    +0.000 A 
ATOM     26  C   UNL     1      -1.175  10.816  23.124  0.00  0.00    +0.000 A 
ATOM     27  C   UNL     1      -1.756  11.795  22.338  0.00  0.00    +0.000 A 
ATOM     28  N   UNL     1      -1.536  11.912  21.012  0.00  0.00    +0.000 NA
ATOM     29  C   UNL     1      -0.696  11.004  20.451  0.00  0.00    +0.000 A 
ENDBRANCH  20  24
ENDBRANCH  16  18
ENDBRANCH   2  16
TORSDOF 5
ENDMDL
MODEL 9
REMARK VINA RESULT:      -7.8      4.794      7.860
REMARK  Name = 
REMARK  5 active torsions:
REMARK  status: ('A' for Active; 'I' for Inactive)
REMARK    1  A    between atoms: S_2  and  N_4
REMARK    2  A    between atoms: S_2  and  C_16
REMARK    3  A    between atoms: N_4  and  C_5
REMARK    4  A    between atoms: C_7  and  C_8
REMARK    5  A    between atoms: C_19  and  C_20
REMARK                            x       y       z     vdW  Elec       q    Type
REMARK                         _______ _______ _______ _____ _____    ______ ____
ROOT
ATOM      1  O   UNL     1       2.713   4.503  20.728  0.00  0.00    +0.000 OA
ATOM      2  S   UNL     1       3.480   5.168  19.695  0.00  0.00    +0.000 S 
ATOM      3  O   UNL     1       4.879   5.487  19.892  0.00  0.00    +0.000 OA
ENDROOT
BRANCH   2   4
ATOM      4  C   UNL     1       2.649   6.713  19.371  0.00  0.00    +0.000 A 
ATOM      5  C   UNL     1       1.956   7.336  20.407  0.00  0.00    +0.000 A 
ATOM      6  C   UNL     1       1.303   8.549  20.168  0.00  0.00    +0.000 A 
ATOM      7  C   UNL     1       1.339   9.180  18.907  0.00  0.00    +0.000 A 
ATOM      8  C   UNL     1       2.064   8.531  17.888  0.00  0.00    +0.000 A 
ATOM      9  C   UNL     1       2.708   7.306  18.103  0.00  0.00    +0.000 A 
BRANCH   7  10
ATOM     10  C   UNL     1       0.635  10.468  18.674  0.00  0.00    +0.000 A 
ATOM     11  C   UNL     1       1.308  11.702  18.771  0.00  0.00    +0.000 A 
ATOM     12  C   UNL     1       0.639  12.921  18.606  0.00  0.00    +0.000 A 
ATOM     13  C   UNL     1      -0.719  12.936  18.314  0.00  0.00    +0.000 A 
ATOM     14  C   UNL     1      -1.407  11.734  18.185  0.00  0.00    +0.000 A 
ATOM     15  C   UNL     1      -0.738  10.517  18.367  0.00  0.00    +0.000 A 
ENDBRANCH   7  10
ENDBRANCH   2   4
BRANCH   2  16
ATOM     16  N   UNL     1       3.330   4.378  18.260  0.00  0.00    +0.000 N 
ATOM     17  H   UNL     1       2.451   4.569  17.804  0.00  0.00    +0.000 HD
BRANCH  16  18
ATOM     18  C   UNL     1       4.447   4.276  17.448  0.00  0.00    +0.000 A 
ATOM     19  C   UNL     1       4.445   4.394  16.079  0.00  0.00    +0.000 A 
ATOM     20  C   UNL     1       5.803   4.231  15.674  0.00  0.00    +0.000 A 
ATOM     21  N   UNL     1       6.575   3.982  16.748  0.00  0.00    +0.000 NA
ATOM     22  N   UNL     1       5.747   4.061  17.804  0.00  0.00    +0.000 N 
ATOM     23  H   UNL     1       6.134   3.902  18.728  0.00  0.00    +0.000 HD
BRANCH  20  24
ATOM     24  C   UNL     1       6.363   4.309  14.319  0.00  0.00    +0.000 A 
ATOM     25  C   UNL     1       7.385   5.209  13.997  0.00  0.00    +0.000 A 
ATOM     26  C   UNL     1       7.894   5.258  12.698  0.00  0.00    +0.000 A 
ATOM     27  C   UNL     1       7.362   4.404  11.748  0.00  0.00    +0.000 A 
ATOM     28  N   UNL     1       6.376   3.522  12.011  0.00  0.00    +0.000 NA
ATOM     29  C   UNL     1       5.901   3.499  13.283  0.00  0.00    +0.000 A 
ENDBRANCH  20  24
ENDBRANCH  16  18
ENDBRANCH   2  16
TORSDOF 5
ENDMDL
