MODEL 1
REMARK VINA RESULT:      -8.9      0.000      0.000
REMARK  Name = 
REMARK  6 active torsions:
REMARK  status: ('A' for Active; 'I' for Inactive)
REMARK    1  A    between atoms: C_1  and  N_2
REMARK    2  A    between atoms: C_6  and  C_7
REMARK    3  A    between atoms: C_7  and  C_8
REMARK    4  A    between atoms: C_12  and  N_13
REMARK    5  A    between atoms: C_18  and  N_19
REMARK    6  A    between atoms: C_25  and  C_26
REMARK                            x       y       z     vdW  Elec       q    Type
REMARK                         _______ _______ _______ _____ _____    ______ ____
ROOT
ATOM      1  N   UNL     1       3.899   4.687  19.184  0.00  0.00    +0.000 N 
ATOM      2  C   UNL     1       5.262   5.266  19.299  0.00  0.00    +0.000 C 
ATOM      3  C   UNL     1       5.791   5.103  17.904  0.00  0.00    +0.000 A 
ATOM      4  C   UNL     1       5.142   4.006  17.342  0.00  0.00    +0.000 A 
ATOM      5  C   UNL     1       5.272   3.655  16.008  0.00  0.00    +0.000 A 
ATOM      6  C   UNL     1       6.073   4.443  15.165  0.00  0.00    +0.000 A 
ATOM      7  C   UNL     1       6.730   5.557  15.750  0.00  0.00    +0.000 A 
ATOM      8  C   UNL     1       6.590   5.920  17.114  0.00  0.00    +0.000 A 
ATOM      9  C   UNL     1       4.011   3.627  18.237  0.00  0.00    +0.000 C 
ATOM     10  O   UNL     1       3.243   2.703  18.024  0.00  0.00    +0.000 OA
ENDROOT
BRANCH   1  15
ATOM     11  C   UNL     1       1.862   7.610  19.946  0.00  0.00    +0.000 A 
ATOM     12  C   UNL     1       2.410   8.453  18.966  0.00  0.00    +0.000 A 
ATOM     13  C   UNL     1       3.023   7.918  17.836  0.00  0.00    +0.000 A 
ATOM     14  C   UNL     1       3.206   6.547  17.730  0.00  0.00    +0.000 A 
ATOM     15  C   UNL     1       2.941   5.736  18.842  0.00  0.00    +0.000 A 
ATOM     16  C   UNL     1       2.112   6.233  19.858  0.00  0.00    +0.000 A 
BRANCH  11  17
ATOM     17  C   UNL     1       0.994   8.204  21.032  0.00  0.00    +0.000 C 
BRANCH  17  23
ATOM     18  C   UNL     1      -0.917   9.934  19.217  0.00  0.00    +0.000 C 
ATOM     19  N   UNL     1      -0.011  10.412  20.229  0.00  0.00    +0.000 N 
ATOM     20  C   UNL     1       0.128  11.710  20.615  0.00  0.00    +0.000 A 
ATOM     21  N   UNL     1       1.029  11.795  21.563  0.00  0.00    +0.000 NA
ATOM     22  N   UNL     1       1.490  10.525  21.806  0.00  0.00    +0.000 NA
ATOM     23  C   UNL     1       0.853   9.687  21.012  0.00  0.00    +0.000 A 
ENDBRANCH  17  23
ENDBRANCH  11  17
ENDBRANCH   1  15
BRANCH   6  24
ATOM     24  N   UNL     1       6.149   4.181  13.791  0.00  0.00    +0.000 N 
ATOM     25  C   UNL     1       7.216   4.421  12.955  0.00  0.00    +0.000 C 
ATOM     26  C   UNL     1       7.113   3.771  11.792  0.00  0.00    +0.000 C 
ATOM     27  C   UNL     1       5.863   2.943  11.785  0.00  0.00    +0.000 C 
ATOM     28  C   UNL     1       5.136   3.377  13.082  0.00  0.00    +0.000 C 
ENDBRANCH   6  24
BRANCH   8  29
ATOM     29  C   UNL     1       7.197   7.213  17.589  0.00  0.00    +0.000 C 
ATOM     30  F   UNL     1       8.080   7.779  16.722  0.00  0.00    +0.000 F 
ATOM     31  F   UNL     1       6.258   8.168  17.833  0.00  0.00    +0.000 F 
ATOM     32  F   UNL     1       7.887   7.066  18.757  0.00  0.00    +0.000 F 
ENDBRANCH   8  29
TORSDOF 5
ENDMDL
MODEL 2
REMARK VINA RESULT:      -8.9      0.349      1.018
REMARK  Name = 
REMARK  6 active torsions:
REMARK  status: ('A' for Active; 'I' for Inactive)
REMARK    1  A    between atoms: C_1  and  N_2
REMARK    2  A    between atoms: C_6  and  C_7
REMARK    3  A    between atoms: C_7  and  C_8
REMARK    4  A    between atoms: C_12  and  N_13
REMARK    5  A    between atoms: C_18  and  N_19
REMARK    6  A    between atoms: C_25  and  C_26
REMARK                            x       y       z     vdW  Elec       q    Type
REMARK                         _______ _______ _______ _____ _____    ______ ____
ROOT
ATOM      1  N   UNL     1       4.065   4.725  19.225  0.00  0.00    +0.000 N 
ATOM      2  C   UNL     1       5.398   5.359  19.396  0.00  0.00    +0.000 C 
ATOM      3  C   UNL     1       6.012   5.171  18.039  0.00  0.00    +0.000 A 
ATOM      4  C   UNL     1       5.437   4.033  17.480  0.00  0.00    +0.000 A 
ATOM      5  C   UNL     1       5.656   3.643  16.169  0.00  0.00    +0.000 A 
ATOM      6  C   UNL     1       6.475   4.433  15.346  0.00  0.00    +0.000 A 
ATOM      7  C   UNL     1       7.056   5.590  15.927  0.00  0.00    +0.000 A 
ATOM      8  C   UNL     1       6.825   5.992  17.267  0.00  0.00    +0.000 A 
ATOM      9  C   UNL     1       4.270   3.640  18.323  0.00  0.00    +0.000 C 
ATOM     10  O   UNL     1       3.550   2.681  18.099  0.00  0.00    +0.000 OA
ENDROOT
BRANCH   1  15
ATOM     11  C   UNL     1       1.886   7.594  19.767  0.00  0.00    +0.000 A 
ATOM     12  C   UNL     1       2.457   8.422  18.788  0.00  0.00    +0.000 A 
ATOM     13  C   UNL     1       3.151   7.873  17.714  0.00  0.00    +0.000 A 
ATOM     14  C   UNL     1       3.388   6.507  17.668  0.00  0.00    +0.000 A 
ATOM     15  C   UNL     1       3.091   5.724  18.792  0.00  0.00    +0.000 A 
ATOM     16  C   UNL     1       2.189   6.224  19.744  0.00  0.00    +0.000 A 
BRANCH  11  17
ATOM     17  C   UNL     1       0.937   8.191  20.781  0.00  0.00    +0.000 C 
BRANCH  17  23
ATOM     18  C   UNL     1      -0.833  10.035  18.936  0.00  0.00    +0.000 C 
ATOM     19  N   UNL     1       0.048  10.454  19.995  0.00  0.00    +0.000 N 
ATOM     20  C   UNL     1       0.219  11.737  20.419  0.00  0.00    +0.000 A 
ATOM     21  N   UNL     1       1.083  11.766  21.403  0.00  0.00    +0.000 NA
ATOM     22  N   UNL     1       1.487  10.473  21.633  0.00  0.00    +0.000 NA
ATOM     23  C   UNL     1       0.853   9.679  20.794  0.00  0.00    +0.000 A 
ENDBRANCH  17  23
ENDBRANCH  11  17
ENDBRANCH   1  15
BRANCH   6  24
ATOM     24  N   UNL     1       6.639   4.129  13.987  0.00  0.00    +0.000 N 
ATOM     25  C   UNL     1       5.810   3.364  13.200  0.00  0.00    +0.000 C 
ATOM     26  C   UNL     1       6.046   3.528  11.895  0.00  0.00    +0.000 C 
ATOM     27  C   UNL     1       7.135   4.542  11.703  0.00  0.00    +0.000 C 
ATOM     28  C   UNL     1       7.642   4.803  13.142  0.00  0.00    +0.000 C 
ENDBRANCH   6  24
BRANCH   8  29
ATOM     29  C   UNL     1       7.355   7.322  17.731  0.00  0.00    +0.000 C 
ATOM     30  F   UNL     1       6.401   8.264  17.965  0.00  0.00    +0.000 F 
ATOM     31  F   UNL     1       8.065   7.224  18.887  0.00  0.00    +0.000 F 
ATOM     32  F   UNL     1       8.202   7.889  16.823  0.00  0.00    +0.000 F 
ENDBRANCH   8  29
TORSDOF 5
ENDMDL
MODEL 3
REMARK VINA RESULT:      -8.8      0.687      1.221
REMARK  Name = 
REMARK  6 active torsions:
REMARK  status: ('A' for Active; 'I' for Inactive)
REMARK    1  A    between atoms: C_1  and  N_2
REMARK    2  A    between atoms: C_6  and  C_7
REMARK    3  A    between atoms: C_7  and  C_8
REMARK    4  A    between atoms: C_12  and  N_13
REMARK    5  A    between atoms: C_18  and  N_19
REMARK    6  A    between atoms: C_25  and  C_26
REMARK                            x       y       z     vdW  Elec       q    Type
REMARK                         _______ _______ _______ _____ _____    ______ ____
ROOT
ATOM      1  N   UNL     1       3.964   4.538  19.197  0.00  0.00    +0.000 N 
ATOM      2  C   UNL     1       5.322   5.129  19.300  0.00  0.00    +0.000 C 
ATOM      3  C   UNL     1       5.832   4.995  17.895  0.00  0.00    +0.000 A 
ATOM      4  C   UNL     1       5.186   3.901  17.325  0.00  0.00    +0.000 A 
ATOM      5  C   UNL     1       5.299   3.573  15.983  0.00  0.00    +0.000 A 
ATOM      6  C   UNL     1       6.079   4.383  15.142  0.00  0.00    +0.000 A 
ATOM      7  C   UNL     1       6.733   5.494  15.735  0.00  0.00    +0.000 A 
ATOM      8  C   UNL     1       6.610   5.833  17.106  0.00  0.00    +0.000 A 
ATOM      9  C   UNL     1       4.072   3.495  18.230  0.00  0.00    +0.000 C 
ATOM     10  O   UNL     1       3.310   2.567  18.013  0.00  0.00    +0.000 OA
ENDROOT
BRANCH   1  15
ATOM     11  C   UNL     1       2.016   7.514  19.990  0.00  0.00    +0.000 A 
ATOM     12  C   UNL     1       2.492   8.307  18.935  0.00  0.00    +0.000 A 
ATOM     13  C   UNL     1       3.009   7.719  17.785  0.00  0.00    +0.000 A 
ATOM     14  C   UNL     1       3.172   6.343  17.723  0.00  0.00    +0.000 A 
ATOM     15  C   UNL     1       2.990   5.582  18.886  0.00  0.00    +0.000 A 
ATOM     16  C   UNL     1       2.248   6.130  19.943  0.00  0.00    +0.000 A 
BRANCH  11  17
ATOM     17  C   UNL     1       1.241   8.162  21.115  0.00  0.00    +0.000 C 
BRANCH  17  23
ATOM     18  C   UNL     1      -0.421  10.044  23.020  0.00  0.00    +0.000 C 
ATOM     19  N   UNL     1      -0.300  10.144  21.588  0.00  0.00    +0.000 N 
ATOM     20  C   UNL     1      -0.848  11.122  20.816  0.00  0.00    +0.000 A 
ATOM     21  N   UNL     1      -0.537  10.919  19.559  0.00  0.00    +0.000 NA
ATOM     22  N   UNL     1       0.235   9.784  19.506  0.00  0.00    +0.000 NA
ATOM     23  C   UNL     1       0.390   9.323  20.731  0.00  0.00    +0.000 A 
ENDBRANCH  17  23
ENDBRANCH  11  17
ENDBRANCH   1  15
BRANCH   6  24
ATOM     24  N   UNL     1       6.136   4.145  13.762  0.00  0.00    +0.000 N 
ATOM     25  C   UNL     1       7.213   4.342  12.928  0.00  0.00    +0.000 C 
ATOM     26  C   UNL     1       7.071   3.721  11.753  0.00  0.00    +0.000 C 
ATOM     27  C   UNL     1       5.777   2.965  11.734  0.00  0.00    +0.000 C 
ATOM     28  C   UNL     1       5.079   3.413  13.041  0.00  0.00    +0.000 C 
ENDBRANCH   6  24
BRANCH   8  29
ATOM     29  C   UNL     1       7.210   7.125  17.594  0.00  0.00    +0.000 C 
ATOM     30  F   UNL     1       7.907   7.024  18.759  0.00  0.00    +0.000 F 
ATOM     31  F   UNL     1       8.075   7.668  16.695  0.00  0.00    +0.000 F 
ATOM     32  F   UNL     1       6.266   8.083  17.825  0.00  0.00    +0.000 F 
ENDBRANCH   8  29
TORSDOF 5
ENDMDL
MODEL 4
REMARK VINA RESULT:      -8.6      7.463     10.839
REMARK  Name = 
REMARK  6 active torsions:
REMARK  status: ('A' for Active; 'I' for Inactive)
REMARK    1  A    between atoms: C_1  and  N_2
REMARK    2  A    between atoms: C_6  and  C_7
REMARK    3  A    between atoms: C_7  and  C_8
REMARK    4  A    between atoms: C_12  and  N_13
REMARK    5  A    between atoms: C_18  and  N_19
REMARK    6  A    between atoms: C_25  and  C_26
REMARK                            x       y       z     vdW  Elec       q    Type
REMARK                         _______ _______ _______ _____ _____    ______ ____
ROOT
ATOM      1  N   UNL     1      -0.307  11.365  18.419  0.00  0.00    +0.000 N 
ATOM      2  C   UNL     1       0.432  10.593  19.451  0.00  0.00    +0.000 C 
ATOM      3  C   UNL     1       0.003  11.271  20.719  0.00  0.00    +0.000 A 
ATOM      4  C   UNL     1      -0.311  12.589  20.396  0.00  0.00    +0.000 A 
ATOM      5  C   UNL     1      -0.890  13.469  21.296  0.00  0.00    +0.000 A 
ATOM      6  C   UNL     1      -1.201  13.021  22.590  0.00  0.00    +0.000 A 
ATOM      7  C   UNL     1      -0.874  11.677  22.908  0.00  0.00    +0.000 A 
ATOM      8  C   UNL     1      -0.289  10.775  21.983  0.00  0.00    +0.000 A 
ATOM      9  C   UNL     1      -0.363  12.703  18.909  0.00  0.00    +0.000 C 
ATOM     10  O   UNL     1      -0.618  13.732  18.305  0.00  0.00    +0.000 OA
ENDROOT
BRANCH   1  15
ATOM     11  C   UNL     1      -3.869  11.446  17.655  0.00  0.00    +0.000 A 
ATOM     12  C   UNL     1      -3.801  10.686  16.476  0.00  0.00    +0.000 A 
ATOM     13  C   UNL     1      -2.744   9.807  16.261  0.00  0.00    +0.000 A 
ATOM     14  C   UNL     1      -1.685   9.764  17.156  0.00  0.00    +0.000 A 
ATOM     15  C   UNL     1      -1.601  10.738  18.161  0.00  0.00    +0.000 A 
ATOM     16  C   UNL     1      -2.761  11.443  18.516  0.00  0.00    +0.000 A 
BRANCH  11  17
ATOM     17  C   UNL     1      -5.136  12.204  17.976  0.00  0.00    +0.000 C 
BRANCH  17  23
ATOM     18  C   UNL     1      -4.697  13.953  20.561  0.00  0.00    +0.000 C 
ATOM     19  N   UNL     1      -5.515  12.774  20.438  0.00  0.00    +0.000 N 
ATOM     20  C   UNL     1      -6.293  12.247  21.423  0.00  0.00    +0.000 A 
ATOM     21  N   UNL     1      -6.911  11.182  20.975  0.00  0.00    +0.000 NA
ATOM     22  N   UNL     1      -6.533  11.008  19.666  0.00  0.00    +0.000 NA
ATOM     23  C   UNL     1      -5.701  11.977  19.336  0.00  0.00    +0.000 A 
ENDBRANCH  17  23
ENDBRANCH  11  17
ENDBRANCH   1  15
BRANCH   6  24
ATOM     24  N   UNL     1      -1.878  13.848  23.496  0.00  0.00    +0.000 N 
ATOM     25  C   UNL     1      -3.145  13.666  24.002  0.00  0.00    +0.000 C 
ATOM     26  C   UNL     1      -3.383  14.424  25.076  0.00  0.00    +0.000 C 
ATOM     27  C   UNL     1      -2.156  15.218  25.415  0.00  0.00    +0.000 C 
ATOM     28  C   UNL     1      -1.208  14.942  24.223  0.00  0.00    +0.000 C 
ENDBRANCH   6  24
BRANCH   8  29
ATOM     29  C   UNL     1      -0.138   9.329  22.372  0.00  0.00    +0.000 C 
ATOM     30  F   UNL     1      -0.912   8.465  21.659  0.00  0.00    +0.000 F 
ATOM     31  F   UNL     1       1.139   8.882  22.227  0.00  0.00    +0.000 F 
ATOM     32  F   UNL     1      -0.463   9.105  23.678  0.00  0.00    +0.000 F 
ENDBRANCH   8  29
TORSDOF 5
ENDMDL
MODEL 5
REMARK VINA RESULT:      -8.5      7.426     10.822
REMARK  Name = 
REMARK  6 active torsions:
REMARK  status: ('A' for Active; 'I' for Inactive)
REMARK    1  A    between atoms: C_1  and  N_2
REMARK    2  A    between atoms: C_6  and  C_7
REMARK    3  A    between atoms: C_7  and  C_8
REMARK    4  A    between atoms: C_12  and  N_13
REMARK    5  A    between atoms: C_18  and  N_19
REMARK    6  A    between atoms: C_25  and  C_26
REMARK                            x       y       z     vdW  Elec       q    Type
REMARK                         _______ _______ _______ _____ _____    ______ ____
ROOT
ATOM      1  N   UNL     1      -0.320  11.392  18.402  0.00  0.00    +0.000 N 
ATOM      2  C   UNL     1       0.446  10.588  19.388  0.00  0.00    +0.000 C 
ATOM      3  C   UNL     1       0.019  11.197  20.691  0.00  0.00    +0.000 A 
ATOM      4  C   UNL     1      -0.327  12.521  20.434  0.00  0.00    +0.000 A 
ATOM      5  C   UNL     1      -0.913  13.346  21.381  0.00  0.00    +0.000 A 
ATOM      6  C   UNL     1      -1.199  12.831  22.656  0.00  0.00    +0.000 A 
ATOM      7  C   UNL     1      -0.842  11.481  22.906  0.00  0.00    +0.000 A 
ATOM      8  C   UNL     1      -0.249  10.636  21.934  0.00  0.00    +0.000 A 
ATOM      9  C   UNL     1      -0.397  12.704  18.955  0.00  0.00    +0.000 C 
ATOM     10  O   UNL     1      -0.680  13.755  18.403  0.00  0.00    +0.000 OA
ENDROOT
BRANCH   1  15
ATOM     11  C   UNL     1      -3.863  11.433  17.553  0.00  0.00    +0.000 A 
ATOM     12  C   UNL     1      -3.764  10.647  16.394  0.00  0.00    +0.000 A 
ATOM     13  C   UNL     1      -2.697   9.770  16.224  0.00  0.00    +0.000 A 
ATOM     14  C   UNL     1      -1.658   9.755  17.143  0.00  0.00    +0.000 A 
ATOM     15  C   UNL     1      -1.604  10.751  18.127  0.00  0.00    +0.000 A 
ATOM     16  C   UNL     1      -2.776  11.456  18.440  0.00  0.00    +0.000 A 
BRANCH  11  17
ATOM     17  C   UNL     1      -5.142  12.190  17.828  0.00  0.00    +0.000 C 
BRANCH  17  23
ATOM     18  C   UNL     1      -5.292  13.364  20.749  0.00  0.00    +0.000 C 
ATOM     19  N   UNL     1      -6.026  12.242  20.225  0.00  0.00    +0.000 N 
ATOM     20  C   UNL     1      -6.967  11.528  20.902  0.00  0.00    +0.000 A 
ATOM     21  N   UNL     1      -7.445  10.582  20.130  0.00  0.00    +0.000 NA
ATOM     22  N   UNL     1      -6.806  10.681  18.918  0.00  0.00    +0.000 NA
ATOM     23  C   UNL     1      -5.960  11.690  18.969  0.00  0.00    +0.000 A 
ENDBRANCH  17  23
ENDBRANCH  11  17
ENDBRANCH   1  15
BRANCH   6  24
ATOM     24  N   UNL     1      -1.883  13.601  23.607  0.00  0.00    +0.000 N 
ATOM     25  C   UNL     1      -1.433  14.737  24.237  0.00  0.00    +0.000 C 
ATOM     26  C   UNL     1      -2.417  15.421  24.828  0.00  0.00    +0.000 C 
ATOM     27  C   UNL     1      -3.728  14.736  24.578  0.00  0.00    +0.000 C 
ATOM     28  C   UNL     1      -3.316  13.408  23.897  0.00  0.00    +0.000 C 
ENDBRANCH   6  24
BRANCH   8  29
ATOM     29  C   UNL     1      -0.064   9.176  22.252  0.00  0.00    +0.000 C 
ATOM     30  F   UNL     1      -0.317   8.840  23.547  0.00  0.00    +0.000 F 
ATOM     31  F   UNL     1      -0.869   8.375  21.502  0.00  0.00    +0.000 F 
ATOM     32  F   UNL     1       1.209   8.749  22.014  0.00  0.00    +0.000 F 
ENDBRANCH   8  29
TORSDOF 5
ENDMDL
MODEL 6
REMARK VINA RESULT:      -8.4      0.800      1.591
REMARK  Name = 
REMARK  6 active torsions:
REMARK  status: ('A' for Active; 'I' for Inactive)
REMARK    1  A    between atoms: C_1  and  N_2
REMARK    2  A    between atoms: C_6  and  C_7
REMARK    3  A    between atoms: C_7  and  C_8
REMARK    4  A    between atoms: C_12  and  N_13
REMARK    5  A    between atoms: C_18  and  N_19
REMARK    6  A    between atoms: C_25  and  C_26
REMARK                            x       y       z     vdW  Elec       q    Type
REMARK                         _______ _______ _______ _____ _____    ______ ____
ROOT
ATOM      1  N   UNL     1       3.786   5.002  19.126  0.00  0.00    +0.000 N 
ATOM      2  C   UNL     1       5.151   5.540  19.354  0.00  0.00    +0.000 C 
ATOM      3  C   UNL     1       5.819   5.276  18.036  0.00  0.00    +0.000 A 
ATOM      4  C   UNL     1       5.190   4.170  17.470  0.00  0.00    +0.000 A 
ATOM      5  C   UNL     1       5.446   3.734  16.180  0.00  0.00    +0.000 A 
ATOM      6  C   UNL     1       6.363   4.442  15.386  0.00  0.00    +0.000 A 
ATOM      7  C   UNL     1       6.998   5.567  15.974  0.00  0.00    +0.000 A 
ATOM      8  C   UNL     1       6.729   6.016  17.292  0.00  0.00    +0.000 A 
ATOM      9  C   UNL     1       3.956   3.883  18.258  0.00  0.00    +0.000 C 
ATOM     10  O   UNL     1       3.178   2.974  18.015  0.00  0.00    +0.000 OA
ENDROOT
BRANCH   1  15
ATOM     11  C   UNL     1       1.966   8.143  19.435  0.00  0.00    +0.000 A 
ATOM     12  C   UNL     1       2.585   8.798  18.359  0.00  0.00    +0.000 A 
ATOM     13  C   UNL     1       3.167   8.069  17.327  0.00  0.00    +0.000 A 
ATOM     14  C   UNL     1       3.247   6.686  17.415  0.00  0.00    +0.000 A 
ATOM     15  C   UNL     1       2.912   6.059  18.622  0.00  0.00    +0.000 A 
ATOM     16  C   UNL     1       2.113   6.752  19.544  0.00  0.00    +0.000 A 
BRANCH  11  17
ATOM     17  C   UNL     1       1.134   8.943  20.411  0.00  0.00    +0.000 C 
BRANCH  17  23
ATOM     18  C   UNL     1       1.482  12.071  20.590  0.00  0.00    +0.000 C 
ATOM     19  N   UNL     1       0.456  11.350  19.883  0.00  0.00    +0.000 N 
ATOM     20  C   UNL     1      -0.516  11.911  19.114  0.00  0.00    +0.000 A 
ATOM     21  N   UNL     1      -1.278  10.972  18.609  0.00  0.00    +0.000 NA
ATOM     22  N   UNL     1      -0.793   9.767  19.055  0.00  0.00    +0.000 NA
ATOM     23  C   UNL     1       0.262   9.992  19.813  0.00  0.00    +0.000 A 
ENDBRANCH  17  23
ENDBRANCH  11  17
ENDBRANCH   1  15
BRANCH   6  24
ATOM     24  N   UNL     1       6.574   4.095  14.045  0.00  0.00    +0.000 N 
ATOM     25  C   UNL     1       5.781   3.291  13.259  0.00  0.00    +0.000 C 
ATOM     26  C   UNL     1       6.055   3.415  11.957  0.00  0.00    +0.000 C 
ATOM     27  C   UNL     1       7.135   4.437  11.763  0.00  0.00    +0.000 C 
ATOM     28  C   UNL     1       7.593   4.754  13.208  0.00  0.00    +0.000 C 
ENDBRANCH   6  24
BRANCH   8  29
ATOM     29  C   UNL     1       7.332   7.315  17.757  0.00  0.00    +0.000 C 
ATOM     30  F   UNL     1       6.431   8.304  18.004  0.00  0.00    +0.000 F 
ATOM     31  F   UNL     1       8.046   7.174  18.907  0.00  0.00    +0.000 F 
ATOM     32  F   UNL     1       8.200   7.841  16.844  0.00  0.00    +0.000 F 
ENDBRANCH   8  29
TORSDOF 5
ENDMDL
MODEL 7
REMARK VINA RESULT:      -8.4      1.159      1.670
REMARK  Name = 
REMARK  6 active torsions:
REMARK  status: ('A' for Active; 'I' for Inactive)
REMARK    1  A    between atoms: C_1  and  N_2
REMARK    2  A    between atoms: C_6  and  C_7
REMARK    3  A    between atoms: C_7  and  C_8
REMARK    4  A    between atoms: C_12  and  N_13
REMARK    5  A    between atoms: C_18  and  N_19
REMARK    6  A    between atoms: C_25  and  C_26
REMARK                            x       y       z     vdW  Elec       q    Type
REMARK                         _______ _______ _______ _____ _____    ______ ____
ROOT
ATOM      1  N   UNL     1       2.990   3.875  18.829  0.00  0.00    +0.000 N 
ATOM      2  C   UNL     1       4.373   4.010  19.354  0.00  0.00    +0.000 C 
ATOM      3  C   UNL     1       5.181   4.103  18.093  0.00  0.00    +0.000 A 
ATOM      4  C   UNL     1       4.479   3.423  17.101  0.00  0.00    +0.000 A 
ATOM      5  C   UNL     1       4.855   3.433  15.768  0.00  0.00    +0.000 A 
ATOM      6  C   UNL     1       5.981   4.178  15.378  0.00  0.00    +0.000 A 
ATOM      7  C   UNL     1       6.689   4.866  16.398  0.00  0.00    +0.000 A 
ATOM      8  C   UNL     1       6.298   4.861  17.761  0.00  0.00    +0.000 A 
ATOM      9  C   UNL     1       3.111   3.130  17.619  0.00  0.00    +0.000 C 
ATOM     10  O   UNL     1       2.246   2.544  16.988  0.00  0.00    +0.000 OA
ENDROOT
BRANCH   1  15
ATOM     11  C   UNL     1       2.036   7.163  20.075  0.00  0.00    +0.000 A 
ATOM     12  C   UNL     1       2.731   7.912  19.113  0.00  0.00    +0.000 A 
ATOM     13  C   UNL     1       3.048   7.356  17.877  0.00  0.00    +0.000 A 
ATOM     14  C   UNL     1       2.786   6.016  17.632  0.00  0.00    +0.000 A 
ATOM     15  C   UNL     1       2.379   5.195  18.693  0.00  0.00    +0.000 A 
ATOM     16  C   UNL     1       1.837   5.794  19.840  0.00  0.00    +0.000 A 
BRANCH  11  17
ATOM     17  C   UNL     1       1.492   7.856  21.303  0.00  0.00    +0.000 C 
BRANCH  17  23
ATOM     18  C   UNL     1      -0.071   9.589  23.422  0.00  0.00    +0.000 C 
ATOM     19  N   UNL     1      -0.019   9.796  21.998  0.00  0.00    +0.000 N 
ATOM     20  C   UNL     1      -0.601  10.828  21.329  0.00  0.00    +0.000 A 
ATOM     21  N   UNL     1      -0.352  10.720  20.047  0.00  0.00    +0.000 NA
ATOM     22  N   UNL     1       0.413   9.593  19.871  0.00  0.00    +0.000 NA
ATOM     23  C   UNL     1       0.627   9.042  21.049  0.00  0.00    +0.000 A 
ENDBRANCH  17  23
ENDBRANCH  11  17
ENDBRANCH   1  15
BRANCH   6  24
ATOM     24  N   UNL     1       6.334   4.297  14.027  0.00  0.00    +0.000 N 
ATOM     25  C   UNL     1       7.352   5.056  13.497  0.00  0.00    +0.000 C 
ATOM     26  C   UNL     1       7.648   4.711  12.240  0.00  0.00    +0.000 C 
ATOM     27  C   UNL     1       6.784   3.561  11.815  0.00  0.00    +0.000 C 
ATOM     28  C   UNL     1       5.779   3.415  12.984  0.00  0.00    +0.000 C 
ENDBRANCH   6  24
BRANCH   8  29
ATOM     29  C   UNL     1       7.021   5.758  18.730  0.00  0.00    +0.000 C 
ATOM     30  F   UNL     1       6.389   5.934  19.922  0.00  0.00    +0.000 F 
ATOM     31  F   UNL     1       8.263   5.295  19.038  0.00  0.00    +0.000 F 
ATOM     32  F   UNL     1       7.207   7.016  18.234  0.00  0.00    +0.000 F 
ENDBRANCH   8  29
TORSDOF 5
ENDMDL
MODEL 8
REMARK VINA RESULT:      -8.3      7.472     10.824
REMARK  Name = 
REMARK  6 active torsions:
REMARK  status: ('A' for Active; 'I' for Inactive)
REMARK    1  A    between atoms: C_1  and  N_2
REMARK    2  A    between atoms: C_6  and  C_7
REMARK    3  A    between atoms: C_7  and  C_8
REMARK    4  A    between atoms: C_12  and  N_13
REMARK    5  A    between atoms: C_18  and  N_19
REMARK    6  A    between atoms: C_25  and  C_26
REMARK                            x       y       z     vdW  Elec       q    Type
REMARK                         _______ _______ _______ _____ _____    ______ ____
ROOT
ATOM      1  N   UNL     1      -0.337  11.387  18.359  0.00  0.00    +0.000 N 
ATOM      2  C   UNL     1       0.400  10.603  19.383  0.00  0.00    +0.000 C 
ATOM      3  C   UNL     1      -0.027  11.269  20.657  0.00  0.00    +0.000 A 
ATOM      4  C   UNL     1      -0.339  12.591  20.347  0.00  0.00    +0.000 A 
ATOM      5  C   UNL     1      -0.916  13.463  21.256  0.00  0.00    +0.000 A 
ATOM      6  C   UNL     1      -1.228  13.003  22.546  0.00  0.00    +0.000 A 
ATOM      7  C   UNL     1      -0.905  11.655  22.850  0.00  0.00    +0.000 A 
ATOM      8  C   UNL     1      -0.321  10.761  21.917  0.00  0.00    +0.000 A 
ATOM      9  C   UNL     1      -0.389  12.720  18.862  0.00  0.00    +0.000 C 
ATOM     10  O   UNL     1      -0.642  13.756  18.268  0.00  0.00    +0.000 OA
ENDROOT
BRANCH   1  15
ATOM     11  C   UNL     1      -3.862  11.473  17.441  0.00  0.00    +0.000 A 
ATOM     12  C   UNL     1      -3.762  10.626  16.327  0.00  0.00    +0.000 A 
ATOM     13  C   UNL     1      -2.716   9.714  16.222  0.00  0.00    +0.000 A 
ATOM     14  C   UNL     1      -1.695   9.720  17.161  0.00  0.00    +0.000 A 
ATOM     15  C   UNL     1      -1.632  10.765  18.093  0.00  0.00    +0.000 A 
ATOM     16  C   UNL     1      -2.790  11.515  18.346  0.00  0.00    +0.000 A 
BRANCH  11  17
ATOM     17  C   UNL     1      -5.125  12.276  17.652  0.00  0.00    +0.000 C 
BRANCH  17  23
ATOM     18  C   UNL     1      -6.906  10.116  19.100  0.00  0.00    +0.000 C 
ATOM     19  N   UNL     1      -6.397  11.340  19.661  0.00  0.00    +0.000 N 
ATOM     20  C   UNL     1      -6.555  11.743  20.952  0.00  0.00    +0.000 A 
ATOM     21  N   UNL     1      -5.960  12.897  21.131  0.00  0.00    +0.000 NA
ATOM     22  N   UNL     1      -5.395  13.257  19.932  0.00  0.00    +0.000 NA
ATOM     23  C   UNL     1      -5.646  12.312  19.047  0.00  0.00    +0.000 A 
ENDBRANCH  17  23
ENDBRANCH  11  17
ENDBRANCH   1  15
BRANCH   6  24
ATOM     24  N   UNL     1      -1.905  13.823  23.460  0.00  0.00    +0.000 N 
ATOM     25  C   UNL     1      -3.166  13.631  23.974  0.00  0.00    +0.000 C 
ATOM     26  C   UNL     1      -3.401  14.384  25.053  0.00  0.00    +0.000 C 
ATOM     27  C   UNL     1      -2.177  15.185  25.385  0.00  0.00    +0.000 C 
ATOM     28  C   UNL     1      -1.236  14.919  24.184  0.00  0.00    +0.000 C 
ENDBRANCH   6  24
BRANCH   8  29
ATOM     29  C   UNL     1      -0.174   9.311  22.291  0.00  0.00    +0.000 C 
ATOM     30  F   UNL     1      -0.614   8.999  23.541  0.00  0.00    +0.000 F 
ATOM     31  F   UNL     1      -0.851   8.485  21.447  0.00  0.00    +0.000 F 
ATOM     32  F   UNL     1       1.125   8.894  22.255  0.00  0.00    +0.000 F 
ENDBRANCH   8  29
TORSDOF 5
ENDMDL
MODEL 9
REMARK VINA RESULT:      -8.0      0.883      1.066
REMARK  Name = 
REMARK  6 active torsions:
REMARK  status: ('A' for Active; 'I' for Inactive)
REMARK    1  A    between atoms: C_1  and  N_2
REMARK    2  A    between atoms: C_6  and  C_7
REMARK    3  A    between atoms: C_7  and  C_8
REMARK    4  A    between atoms: C_12  and  N_13
REMARK    5  A    between atoms: C_18  and  N_19
REMARK    6  A    between atoms: C_25  and  C_26
REMARK                            x       y       z     vdW  Elec       q    Type
REMARK                         _______ _______ _______ _____ _____    ______ ____
ROOT
ATOM      1  N   UNL     1       3.001   3.955  18.871  0.00  0.00    +0.000 N 
ATOM      2  C   UNL     1       4.391   4.131  19.365  0.00  0.00    +0.000 C 
ATOM      3  C   UNL     1       5.174   4.185  18.086  0.00  0.00    +0.000 A 
ATOM      4  C   UNL     1       4.465   3.454  17.137  0.00  0.00    +0.000 A 
ATOM      5  C   UNL     1       4.817   3.414  15.797  0.00  0.00    +0.000 A 
ATOM      6  C   UNL     1       5.924   4.159  15.356  0.00  0.00    +0.000 A 
ATOM      7  C   UNL     1       6.639   4.899  16.333  0.00  0.00    +0.000 A 
ATOM      8  C   UNL     1       6.273   4.944  17.703  0.00  0.00    +0.000 A 
ATOM      9  C   UNL     1       3.111   3.162  17.691  0.00  0.00    +0.000 C 
ATOM     10  O   UNL     1       2.244   2.538  17.101  0.00  0.00    +0.000 OA
ENDROOT
BRANCH   1  15
ATOM     11  C   UNL     1       1.801   7.181  20.067  0.00  0.00    +0.000 A 
ATOM     12  C   UNL     1       2.579   7.974  19.209  0.00  0.00    +0.000 A 
ATOM     13  C   UNL     1       3.055   7.458  18.007  0.00  0.00    +0.000 A 
ATOM     14  C   UNL     1       2.867   6.117  17.705  0.00  0.00    +0.000 A 
ATOM     15  C   UNL     1       2.367   5.259  18.694  0.00  0.00    +0.000 A 
ATOM     16  C   UNL     1       1.676   5.813  19.782  0.00  0.00    +0.000 A 
BRANCH  11  17
ATOM     17  C   UNL     1       1.096   7.827  21.237  0.00  0.00    +0.000 C 
BRANCH  17  23
ATOM     18  C   UNL     1      -0.776   9.446  19.286  0.00  0.00    +0.000 C 
ATOM     19  N   UNL     1       0.078   9.981  20.313  0.00  0.00    +0.000 N 
ATOM     20  C   UNL     1       0.174  11.295  20.656  0.00  0.00    +0.000 A 
ATOM     21  N   UNL     1       1.035  11.436  21.634  0.00  0.00    +0.000 NA
ATOM     22  N   UNL     1       1.512  10.186  21.943  0.00  0.00    +0.000 NA
ATOM     23  C   UNL     1       0.926   9.305  21.157  0.00  0.00    +0.000 A 
ENDBRANCH  17  23
ENDBRANCH  11  17
ENDBRANCH   1  15
BRANCH   6  24
ATOM     24  N   UNL     1       6.250   4.227  13.995  0.00  0.00    +0.000 N 
ATOM     25  C   UNL     1       7.313   4.891  13.427  0.00  0.00    +0.000 C 
ATOM     26  C   UNL     1       7.547   4.503  12.170  0.00  0.00    +0.000 C 
ATOM     27  C   UNL     1       6.581   3.422  11.786  0.00  0.00    +0.000 C 
ATOM     28  C   UNL     1       5.598   3.378  12.982  0.00  0.00    +0.000 C 
ENDBRANCH   6  24
BRANCH   8  29
ATOM     29  C   UNL     1       6.999   5.891  18.620  0.00  0.00    +0.000 C 
ATOM     30  F   UNL     1       8.262   5.506  18.950  0.00  0.00    +0.000 F 
ATOM     31  F   UNL     1       7.124   7.137  18.087  0.00  0.00    +0.000 F 
ATOM     32  F   UNL     1       6.354   6.060  19.810  0.00  0.00    +0.000 F 
ENDBRANCH   8  29
TORSDOF 5
ENDMDL
