MODEL 1
REMARK VINA RESULT:      -9.1      0.000      0.000
REMARK  Name = 
REMARK  5 active torsions:
REMARK  status: ('A' for Active; 'I' for Inactive)
REMARK    1  A    between atoms: C_7  and  N_8
REMARK    2  A    between atoms: C_9  and  C_11
REMARK    3  A    between atoms: N_15  and  C_16
REMARK    4  A    between atoms: C_16  and  C_17
REMARK    5  A    between atoms: C_17  and  C_18
REMARK                            x       y       z     vdW  Elec       q    Type
REMARK                         _______ _______ _______ _____ _____    ______ ____
ROOT
ATOM      1  N   UNL     1       8.212   8.142  18.930  0.00  0.00    +0.000 N 
ATOM      2  C   UNL     1       7.850   7.260  17.924  0.00  0.00    +0.000 C 
ATOM      3  O   UNL     1       7.863   7.510  16.713  0.00  0.00    +0.000 OA
ATOM      4  H   UNL     1       8.109   7.841  19.893  0.00  0.00    +0.000 HD
ENDROOT
BRANCH   1  11
ATOM      5  O   UNL     1      11.674  15.030  18.447  0.00  0.00    +0.000 OA
ATOM      6  C   UNL     1      11.323  13.866  18.626  0.00  0.00    +0.000 C 
ATOM      7  C   UNL     1      12.196  12.861  19.344  0.00  0.00    +0.000 C 
ATOM      8  C   UNL     1      11.362  11.859  20.121  0.00  0.00    +0.000 C 
ATOM      9  C   UNL     1      10.277  11.285  19.253  0.00  0.00    +0.000 A 
ATOM     10  C   UNL     1       9.787   9.989  19.479  0.00  0.00    +0.000 A 
ATOM     11  C   UNL     1       8.726   9.459  18.733  0.00  0.00    +0.000 A 
ATOM     12  C   UNL     1       8.138  10.285  17.761  0.00  0.00    +0.000 A 
ATOM     13  C   UNL     1       8.606  11.596  17.542  0.00  0.00    +0.000 A 
ATOM     14  C   UNL     1       9.682  12.084  18.280  0.00  0.00    +0.000 A 
ATOM     15  N   UNL     1      10.164  13.381  18.073  0.00  0.00    +0.000 N 
ATOM     16  H   UNL     1       9.659  14.028  17.481  0.00  0.00    +0.000 HD
ENDBRANCH   1  11
BRANCH   2  17
ATOM     17  C   UNL     1       7.410   5.855  18.314  0.00  0.00    +0.000 C 
ATOM     18  C   UNL     1       7.760   4.761  17.321  0.00  0.00    +0.000 C 
ATOM     19  C   UNL     1       6.447   4.450  16.647  0.00  0.00    +0.000 C 
ATOM     20  O   UNL     1       6.314   3.712  15.686  0.00  0.00    +0.000 OA
ATOM     21  N   UNL     1       5.435   5.126  17.318  0.00  0.00    +0.000 N 
ATOM     22  C   UNL     1       5.920   5.747  18.527  0.00  0.00    +0.000 C 
BRANCH  21  23
ATOM     23  C   UNL     1       4.016   4.813  17.134  0.00  0.00    +0.000 C 
BRANCH  23  24
ATOM     24  C   UNL     1       3.141   5.563  18.141  0.00  0.00    +0.000 C 
BRANCH  24  25
ATOM     25  C   UNL     1       2.403   4.708  19.133  0.00  0.00    +0.000 A 
ATOM     26  C   UNL     1       1.458   3.775  18.676  0.00  0.00    +0.000 A 
ATOM     27  C   UNL     1       0.830   2.906  19.567  0.00  0.00    +0.000 A 
ATOM     28  C   UNL     1       1.138   2.960  20.923  0.00  0.00    +0.000 A 
ATOM     29  C   UNL     1       2.070   3.888  21.389  0.00  0.00    +0.000 A 
ATOM     30  C   UNL     1       2.700   4.759  20.499  0.00  0.00    +0.000 A 
ENDBRANCH  24  25
ENDBRANCH  23  24
ENDBRANCH  21  23
ENDBRANCH   2  17
TORSDOF 5
ENDMDL
MODEL 2
REMARK VINA RESULT:      -8.9      5.168      8.380
REMARK  Name = 
REMARK  5 active torsions:
REMARK  status: ('A' for Active; 'I' for Inactive)
REMARK    1  A    between atoms: C_7  and  N_8
REMARK    2  A    between atoms: C_9  and  C_11
REMARK    3  A    between atoms: N_15  and  C_16
REMARK    4  A    between atoms: C_16  and  C_17
REMARK    5  A    between atoms: C_17  and  C_18
REMARK                            x       y       z     vdW  Elec       q    Type
REMARK                         _______ _______ _______ _____ _____    ______ ____
ROOT
ATOM      1  N   UNL     1       2.813   6.719  19.561  0.00  0.00    +0.000 N 
ATOM      2  C   UNL     1       2.523   5.615  18.776  0.00  0.00    +0.000 C 
ATOM      3  O   UNL     1       1.427   5.375  18.256  0.00  0.00    +0.000 OA
ATOM      4  H   UNL     1       3.736   6.781  19.980  0.00  0.00    +0.000 HD
ENDROOT
BRANCH   1  11
ATOM      5  O   UNL     1      -2.039  12.229  21.958  0.00  0.00    +0.000 OA
ATOM      6  C   UNL     1      -1.236  11.311  21.805  0.00  0.00    +0.000 C 
ATOM      7  C   UNL     1      -0.672  10.531  22.972  0.00  0.00    +0.000 C 
ATOM      8  C   UNL     1      -0.406   9.085  22.593  0.00  0.00    +0.000 C 
ATOM      9  C   UNL     1       0.375   9.008  21.310  0.00  0.00    +0.000 A 
ATOM     10  C   UNL     1       1.239   7.930  21.060  0.00  0.00    +0.000 A 
ATOM     11  C   UNL     1       1.920   7.795  19.843  0.00  0.00    +0.000 A 
ATOM     12  C   UNL     1       1.686   8.766  18.856  0.00  0.00    +0.000 A 
ATOM     13  C   UNL     1       0.803   9.840  19.088  0.00  0.00    +0.000 A 
ATOM     14  C   UNL     1       0.162   9.962  20.319  0.00  0.00    +0.000 A 
ATOM     15  N   UNL     1      -0.713  11.024  20.569  0.00  0.00    +0.000 N 
ATOM     16  H   UNL     1      -0.997  11.642  19.820  0.00  0.00    +0.000 HD
ENDBRANCH   1  11
BRANCH   2  17
ATOM     17  C   UNL     1       3.631   4.606  18.502  0.00  0.00    +0.000 C 
ATOM     18  C   UNL     1       4.660   4.448  19.606  0.00  0.00    +0.000 C 
ATOM     19  C   UNL     1       5.871   5.175  19.079  0.00  0.00    +0.000 C 
ATOM     20  O   UNL     1       6.884   5.398  19.720  0.00  0.00    +0.000 OA
ATOM     21  N   UNL     1       5.638   5.520  17.754  0.00  0.00    +0.000 N 
ATOM     22  C   UNL     1       4.419   4.928  17.256  0.00  0.00    +0.000 C 
BRANCH  21  23
ATOM     23  C   UNL     1       6.704   5.954  16.847  0.00  0.00    +0.000 C 
BRANCH  23  24
ATOM     24  C   UNL     1       7.376   4.762  16.161  0.00  0.00    +0.000 C 
BRANCH  24  25
ATOM     25  C   UNL     1       7.081   4.599  14.696  0.00  0.00    +0.000 A 
ATOM     26  C   UNL     1       7.853   5.294  13.752  0.00  0.00    +0.000 A 
ATOM     27  C   UNL     1       7.663   5.086  12.387  0.00  0.00    +0.000 A 
ATOM     28  C   UNL     1       6.698   4.183  11.950  0.00  0.00    +0.000 A 
ATOM     29  C   UNL     1       5.920   3.492  12.879  0.00  0.00    +0.000 A 
ATOM     30  C   UNL     1       6.109   3.698  14.247  0.00  0.00    +0.000 A 
ENDBRANCH  24  25
ENDBRANCH  23  24
ENDBRANCH  21  23
ENDBRANCH   2  17
TORSDOF 5
ENDMDL
MODEL 3
REMARK VINA RESULT:      -8.8      1.445      1.909
REMARK  Name = 
REMARK  5 active torsions:
REMARK  status: ('A' for Active; 'I' for Inactive)
REMARK    1  A    between atoms: C_7  and  N_8
REMARK    2  A    between atoms: C_9  and  C_11
REMARK    3  A    between atoms: N_15  and  C_16
REMARK    4  A    between atoms: C_16  and  C_17
REMARK    5  A    between atoms: C_17  and  C_18
REMARK                            x       y       z     vdW  Elec       q    Type
REMARK                         _______ _______ _______ _____ _____    ______ ____
ROOT
ATOM      1  N   UNL     1       8.947   8.708  18.926  0.00  0.00    +0.000 N 
ATOM      2  C   UNL     1       8.038   8.241  17.989  0.00  0.00    +0.000 C 
ATOM      3  O   UNL     1       7.294   8.949  17.300  0.00  0.00    +0.000 OA
ATOM      4  H   UNL     1       9.466   8.028  19.471  0.00  0.00    +0.000 HD
ENDROOT
BRANCH   1  11
ATOM      5  O   UNL     1      10.494  16.255  19.490  0.00  0.00    +0.000 OA
ATOM      6  C   UNL     1      10.207  15.101  19.174  0.00  0.00    +0.000 C 
ATOM      7  C   UNL     1       9.892  14.711  17.748  0.00  0.00    +0.000 C 
ATOM      8  C   UNL     1      10.345  13.293  17.450  0.00  0.00    +0.000 C 
ATOM      9  C   UNL     1       9.861  12.346  18.513  0.00  0.00    +0.000 A 
ATOM     10  C   UNL     1       9.605  10.999  18.212  0.00  0.00    +0.000 A 
ATOM     11  C   UNL     1       9.226  10.080  19.200  0.00  0.00    +0.000 A 
ATOM     12  C   UNL     1       9.139  10.545  20.522  0.00  0.00    +0.000 A 
ATOM     13  C   UNL     1       9.418  11.890  20.839  0.00  0.00    +0.000 A 
ATOM     14  C   UNL     1       9.765  12.786  19.831  0.00  0.00    +0.000 A 
ATOM     15  N   UNL     1      10.039  14.126  20.125  0.00  0.00    +0.000 N 
ATOM     16  H   UNL     1      10.119  14.434  21.086  0.00  0.00    +0.000 HD
ENDBRANCH   1  11
BRANCH   2  17
ATOM     17  C   UNL     1       7.937   6.739  17.760  0.00  0.00    +0.000 C 
ATOM     18  C   UNL     1       7.071   6.313  16.587  0.00  0.00    +0.000 C 
ATOM     19  C   UNL     1       5.811   5.799  17.236  0.00  0.00    +0.000 C 
ATOM     20  O   UNL     1       4.799   5.478  16.636  0.00  0.00    +0.000 OA
ATOM     21  N   UNL     1       6.014   5.737  18.609  0.00  0.00    +0.000 N 
ATOM     22  C   UNL     1       7.390   6.001  18.956  0.00  0.00    +0.000 C 
BRANCH  21  23
ATOM     23  C   UNL     1       5.125   4.999  19.509  0.00  0.00    +0.000 C 
BRANCH  23  24
ATOM     24  C   UNL     1       3.724   5.613  19.543  0.00  0.00    +0.000 C 
BRANCH  24  25
ATOM     25  C   UNL     1       2.580   4.636  19.545  0.00  0.00    +0.000 A 
ATOM     26  C   UNL     1       2.127   4.097  18.330  0.00  0.00    +0.000 A 
ATOM     27  C   UNL     1       1.134   3.119  18.314  0.00  0.00    +0.000 A 
ATOM     28  C   UNL     1       0.581   2.671  19.511  0.00  0.00    +0.000 A 
ATOM     29  C   UNL     1       1.018   3.206  20.722  0.00  0.00    +0.000 A 
ATOM     30  C   UNL     1       2.013   4.185  20.741  0.00  0.00    +0.000 A 
ENDBRANCH  24  25
ENDBRANCH  23  24
ENDBRANCH  21  23
ENDBRANCH   2  17
TORSDOF 5
ENDMDL
MODEL 4
REMARK VINA RESULT:      -8.8      1.476      2.133
REMARK  Name = 
REMARK  5 active torsions:
REMARK  status: ('A' for Active; 'I' for Inactive)
REMARK    1  A    between atoms: C_7  and  N_8
REMARK    2  A    between atoms: C_9  and  C_11
REMARK    3  A    between atoms: N_15  and  C_16
REMARK    4  A    between atoms: C_16  and  C_17
REMARK    5  A    between atoms: C_17  and  C_18
REMARK                            x       y       z     vdW  Elec       q    Type
REMARK                         _______ _______ _______ _____ _____    ______ ____
ROOT
ATOM      1  N   UNL     1       8.500   8.059  18.950  0.00  0.00    +0.000 N 
ATOM      2  C   UNL     1       7.807   7.285  18.034  0.00  0.00    +0.000 C 
ATOM      3  O   UNL     1       7.314   7.697  16.977  0.00  0.00    +0.000 OA
ATOM      4  H   UNL     1       8.812   7.621  19.810  0.00  0.00    +0.000 HD
ENDROOT
BRANCH   1  11
ATOM      5  O   UNL     1      10.883  15.404  18.767  0.00  0.00    +0.000 OA
ATOM      6  C   UNL     1      10.700  14.198  18.920  0.00  0.00    +0.000 C 
ATOM      7  C   UNL     1      11.636  13.337  19.738  0.00  0.00    +0.000 C 
ATOM      8  C   UNL     1      10.888  12.213  20.432  0.00  0.00    +0.000 C 
ATOM      9  C   UNL     1      10.005  11.482  19.459  0.00  0.00    +0.000 A 
ATOM     10  C   UNL     1       9.701  10.125  19.645  0.00  0.00    +0.000 A 
ATOM     11  C   UNL     1       8.821   9.441  18.796  0.00  0.00    +0.000 A 
ATOM     12  C   UNL     1       8.220  10.171  17.757  0.00  0.00    +0.000 A 
ATOM     13  C   UNL     1       8.500  11.540  17.576  0.00  0.00    +0.000 A 
ATOM     14  C   UNL     1       9.402  12.185  18.420  0.00  0.00    +0.000 A 
ATOM     15  N   UNL     1       9.696  13.542  18.251  0.00  0.00    +0.000 N 
ATOM     16  H   UNL     1       9.163  14.107  17.602  0.00  0.00    +0.000 HD
ENDBRANCH   1  11
BRANCH   2  17
ATOM     17  C   UNL     1       7.636   5.799  18.319  0.00  0.00    +0.000 C 
ATOM     18  C   UNL     1       7.495   4.910  17.096  0.00  0.00    +0.000 C 
ATOM     19  C   UNL     1       6.027   4.567  17.064  0.00  0.00    +0.000 C 
ATOM     20  O   UNL     1       5.469   3.972  16.158  0.00  0.00    +0.000 OA
ATOM     21  N   UNL     1       5.441   5.024  18.238  0.00  0.00    +0.000 N 
ATOM     22  C   UNL     1       6.429   5.503  19.175  0.00  0.00    +0.000 C 
BRANCH  21  23
ATOM     23  C   UNL     1       4.112   4.594  18.681  0.00  0.00    +0.000 C 
BRANCH  23  24
ATOM     24  C   UNL     1       3.004   5.346  17.941  0.00  0.00    +0.000 C 
BRANCH  24  25
ATOM     25  C   UNL     1       2.526   6.615  18.592  0.00  0.00    +0.000 A 
ATOM     26  C   UNL     1       2.338   7.766  17.811  0.00  0.00    +0.000 A 
ATOM     27  C   UNL     1       1.806   8.926  18.372  0.00  0.00    +0.000 A 
ATOM     28  C   UNL     1       1.459   8.948  19.721  0.00  0.00    +0.000 A 
ATOM     29  C   UNL     1       1.649   7.813  20.507  0.00  0.00    +0.000 A 
ATOM     30  C   UNL     1       2.181   6.649  19.947  0.00  0.00    +0.000 A 
ENDBRANCH  24  25
ENDBRANCH  23  24
ENDBRANCH  21  23
ENDBRANCH   2  17
TORSDOF 5
ENDMDL
MODEL 5
REMARK VINA RESULT:      -8.7      5.799      8.038
REMARK  Name = 
REMARK  5 active torsions:
REMARK  status: ('A' for Active; 'I' for Inactive)
REMARK    1  A    between atoms: C_7  and  N_8
REMARK    2  A    between atoms: C_9  and  C_11
REMARK    3  A    between atoms: N_15  and  C_16
REMARK    4  A    between atoms: C_16  and  C_17
REMARK    5  A    between atoms: C_17  and  C_18
REMARK                            x       y       z     vdW  Elec       q    Type
REMARK                         _______ _______ _______ _____ _____    ______ ____
ROOT
ATOM      1  N   UNL     1       3.279   6.241  18.804  0.00  0.00    +0.000 N 
ATOM      2  C   UNL     1       2.830   5.012  18.348  0.00  0.00    +0.000 C 
ATOM      3  O   UNL     1       1.654   4.732  18.086  0.00  0.00    +0.000 OA
ATOM      4  H   UNL     1       4.262   6.336  19.038  0.00  0.00    +0.000 HD
ENDROOT
BRANCH   1  11
ATOM      5  O   UNL     1      -1.118  12.314  20.662  0.00  0.00    +0.000 OA
ATOM      6  C   UNL     1      -0.390  11.325  20.598  0.00  0.00    +0.000 C 
ATOM      7  C   UNL     1       0.116  10.615  21.833  0.00  0.00    +0.000 C 
ATOM      8  C   UNL     1       0.267   9.124  21.591  0.00  0.00    +0.000 C 
ATOM      9  C   UNL     1       1.035   8.866  20.324  0.00  0.00    +0.000 A 
ATOM     10  C   UNL     1       1.810   7.706  20.178  0.00  0.00    +0.000 A 
ATOM     11  C   UNL     1       2.474   7.406  18.982  0.00  0.00    +0.000 A 
ATOM     12  C   UNL     1       2.313   8.296  17.908  0.00  0.00    +0.000 A 
ATOM     13  C   UNL     1       1.517   9.452  18.036  0.00  0.00    +0.000 A 
ATOM     14  C   UNL     1       0.893   9.738  19.248  0.00  0.00    +0.000 A 
ATOM     15  N   UNL     1       0.104  10.884  19.396  0.00  0.00    +0.000 N 
ATOM     16  H   UNL     1      -0.133  11.451  18.591  0.00  0.00    +0.000 HD
ENDBRANCH   1  11
BRANCH   2  17
ATOM     17  C   UNL     1       3.849   3.902  18.126  0.00  0.00    +0.000 C 
ATOM     18  C   UNL     1       5.094   3.974  18.993  0.00  0.00    +0.000 C 
ATOM     19  C   UNL     1       6.163   4.466  18.050  0.00  0.00    +0.000 C 
ATOM     20  O   UNL     1       7.291   4.785  18.382  0.00  0.00    +0.000 OA
ATOM     21  N   UNL     1       5.647   4.469  16.760  0.00  0.00    +0.000 N 
ATOM     22  C   UNL     1       4.348   3.842  16.704  0.00  0.00    +0.000 C 
BRANCH  21  23
ATOM     23  C   UNL     1       6.492   4.587  15.569  0.00  0.00    +0.000 C 
BRANCH  23  24
ATOM     24  C   UNL     1       5.667   4.940  14.329  0.00  0.00    +0.000 C 
BRANCH  24  25
ATOM     25  C   UNL     1       5.829   4.020  13.150  0.00  0.00    +0.000 A 
ATOM     26  C   UNL     1       7.117   3.686  12.703  0.00  0.00    +0.000 A 
ATOM     27  C   UNL     1       7.295   2.762  11.675  0.00  0.00    +0.000 A 
ATOM     28  C   UNL     1       6.188   2.163  11.081  0.00  0.00    +0.000 A 
ATOM     29  C   UNL     1       4.903   2.493  11.512  0.00  0.00    +0.000 A 
ATOM     30  C   UNL     1       4.723   3.418  12.542  0.00  0.00    +0.000 A 
ENDBRANCH  24  25
ENDBRANCH  23  24
ENDBRANCH  21  23
ENDBRANCH   2  17
TORSDOF 5
ENDMDL
MODEL 6
REMARK VINA RESULT:      -8.7      1.268      1.867
REMARK  Name = 
REMARK  5 active torsions:
REMARK  status: ('A' for Active; 'I' for Inactive)
REMARK    1  A    between atoms: C_7  and  N_8
REMARK    2  A    between atoms: C_9  and  C_11
REMARK    3  A    between atoms: N_15  and  C_16
REMARK    4  A    between atoms: C_16  and  C_17
REMARK    5  A    between atoms: C_17  and  C_18
REMARK                            x       y       z     vdW  Elec       q    Type
REMARK                         _______ _______ _______ _____ _____    ______ ____
ROOT
ATOM      1  N   UNL     1       8.814   8.702  18.964  0.00  0.00    +0.000 N 
ATOM      2  C   UNL     1       7.924   8.314  17.976  0.00  0.00    +0.000 C 
ATOM      3  O   UNL     1       7.406   9.068  17.143  0.00  0.00    +0.000 OA
ATOM      4  H   UNL     1       9.132   8.002  19.626  0.00  0.00    +0.000 HD
ENDROOT
BRANCH   1  11
ATOM      5  O   UNL     1      11.709  15.863  19.002  0.00  0.00    +0.000 OA
ATOM      6  C   UNL     1      11.222  14.760  18.766  0.00  0.00    +0.000 C 
ATOM      7  C   UNL     1      10.867  14.318  17.363  0.00  0.00    +0.000 C 
ATOM      8  C   UNL     1      11.058  12.822  17.190  0.00  0.00    +0.000 C 
ATOM      9  C   UNL     1      10.389  12.068  18.306  0.00  0.00    +0.000 A 
ATOM     10  C   UNL     1       9.895  10.771  18.100  0.00  0.00    +0.000 A 
ATOM     11  C   UNL     1       9.336  10.019  19.142  0.00  0.00    +0.000 A 
ATOM     12  C   UNL     1       9.311  10.598  20.422  0.00  0.00    +0.000 A 
ATOM     13  C   UNL     1       9.826  11.891  20.644  0.00  0.00    +0.000 A 
ATOM     14  C   UNL     1      10.350  12.624  19.582  0.00  0.00    +0.000 A 
ATOM     15  N   UNL     1      10.859  13.912  19.782  0.00  0.00    +0.000 N 
ATOM     16  H   UNL     1      10.977  14.277  20.719  0.00  0.00    +0.000 HD
ENDBRANCH   1  11
BRANCH   2  17
ATOM     17  C   UNL     1       7.546   6.842  17.875  0.00  0.00    +0.000 C 
ATOM     18  C   UNL     1       7.490   6.276  16.467  0.00  0.00    +0.000 C 
ATOM     19  C   UNL     1       6.014   6.165  16.181  0.00  0.00    +0.000 C 
ATOM     20  O   UNL     1       5.534   5.872  15.099  0.00  0.00    +0.000 OA
ATOM     21  N   UNL     1       5.315   6.429  17.351  0.00  0.00    +0.000 N 
ATOM     22  C   UNL     1       6.200   6.541  18.486  0.00  0.00    +0.000 C 
BRANCH  21  23
ATOM     23  C   UNL     1       3.895   6.108  17.517  0.00  0.00    +0.000 C 
BRANCH  23  24
ATOM     24  C   UNL     1       3.539   5.882  18.988  0.00  0.00    +0.000 C 
BRANCH  24  25
ATOM     25  C   UNL     1       2.602   4.740  19.268  0.00  0.00    +0.000 A 
ATOM     26  C   UNL     1       2.138   4.527  20.576  0.00  0.00    +0.000 A 
ATOM     27  C   UNL     1       1.196   3.536  20.843  0.00  0.00    +0.000 A 
ATOM     28  C   UNL     1       0.709   2.743  19.807  0.00  0.00    +0.000 A 
ATOM     29  C   UNL     1       1.168   2.941  18.505  0.00  0.00    +0.000 A 
ATOM     30  C   UNL     1       2.111   3.934  18.235  0.00  0.00    +0.000 A 
ENDBRANCH  24  25
ENDBRANCH  23  24
ENDBRANCH  21  23
ENDBRANCH   2  17
TORSDOF 5
ENDMDL
MODEL 7
REMARK VINA RESULT:      -8.5      5.171      8.302
REMARK  Name = 
REMARK  5 active torsions:
REMARK  status: ('A' for Active; 'I' for Inactive)
REMARK    1  A    between atoms: C_7  and  N_8
REMARK    2  A    between atoms: C_9  and  C_11
REMARK    3  A    between atoms: N_15  and  C_16
REMARK    4  A    between atoms: C_16  and  C_17
REMARK    5  A    between atoms: C_17  and  C_18
REMARK                            x       y       z     vdW  Elec       q    Type
REMARK                         _______ _______ _______ _____ _____    ______ ____
ROOT
ATOM      1  N   UNL     1       2.784   6.642  19.633  0.00  0.00    +0.000 N 
ATOM      2  C   UNL     1       2.503   5.578  18.790  0.00  0.00    +0.000 C 
ATOM      3  O   UNL     1       1.415   5.369  18.240  0.00  0.00    +0.000 OA
ATOM      4  H   UNL     1       3.699   6.679  20.070  0.00  0.00    +0.000 HD
ENDROOT
BRANCH   1  11
ATOM      5  O   UNL     1      -1.935  12.698  20.476  0.00  0.00    +0.000 OA
ATOM      6  C   UNL     1      -1.200  11.782  20.112  0.00  0.00    +0.000 C 
ATOM      7  C   UNL     1      -0.830  11.572  18.661  0.00  0.00    +0.000 C 
ATOM      8  C   UNL     1       0.572  11.004  18.525  0.00  0.00    +0.000 C 
ATOM      9  C   UNL     1       0.753   9.816  19.429  0.00  0.00    +0.000 A 
ATOM     10  C   UNL     1       1.647   8.788  19.091  0.00  0.00    +0.000 A 
ATOM     11  C   UNL     1       1.891   7.708  19.950  0.00  0.00    +0.000 A 
ATOM     12  C   UNL     1       1.228   7.700  21.189  0.00  0.00    +0.000 A 
ATOM     13  C   UNL     1       0.346   8.739  21.547  0.00  0.00    +0.000 A 
ATOM     14  C   UNL     1       0.103   9.785  20.659  0.00  0.00    +0.000 A 
ATOM     15  N   UNL     1      -0.774  10.822  20.996  0.00  0.00    +0.000 N 
ATOM     16  H   UNL     1      -1.141  10.898  21.936  0.00  0.00    +0.000 HD
ENDBRANCH   1  11
BRANCH   2  17
ATOM     17  C   UNL     1       3.611   4.578  18.487  0.00  0.00    +0.000 C 
ATOM     18  C   UNL     1       4.647   4.397  19.582  0.00  0.00    +0.000 C 
ATOM     19  C   UNL     1       5.854   5.139  19.065  0.00  0.00    +0.000 C 
ATOM     20  O   UNL     1       6.870   5.349  19.705  0.00  0.00    +0.000 OA
ATOM     21  N   UNL     1       5.612   5.513  17.749  0.00  0.00    +0.000 N 
ATOM     22  C   UNL     1       4.392   4.929  17.245  0.00  0.00    +0.000 C 
BRANCH  21  23
ATOM     23  C   UNL     1       6.673   5.969  16.847  0.00  0.00    +0.000 C 
BRANCH  23  24
ATOM     24  C   UNL     1       7.370   4.792  16.161  0.00  0.00    +0.000 C 
BRANCH  24  25
ATOM     25  C   UNL     1       7.092   4.631  14.693  0.00  0.00    +0.000 A 
ATOM     26  C   UNL     1       7.869   5.334  13.759  0.00  0.00    +0.000 A 
ATOM     27  C   UNL     1       7.695   5.129  12.391  0.00  0.00    +0.000 A 
ATOM     28  C   UNL     1       6.740   4.220  11.942  0.00  0.00    +0.000 A 
ATOM     29  C   UNL     1       5.957   3.522  12.860  0.00  0.00    +0.000 A 
ATOM     30  C   UNL     1       6.131   3.725  14.231  0.00  0.00    +0.000 A 
ENDBRANCH  24  25
ENDBRANCH  23  24
ENDBRANCH  21  23
ENDBRANCH   2  17
TORSDOF 5
ENDMDL
MODEL 8
REMARK VINA RESULT:      -8.5      6.040      8.258
REMARK  Name = 
REMARK  5 active torsions:
REMARK  status: ('A' for Active; 'I' for Inactive)
REMARK    1  A    between atoms: C_7  and  N_8
REMARK    2  A    between atoms: C_9  and  C_11
REMARK    3  A    between atoms: N_15  and  C_16
REMARK    4  A    between atoms: C_16  and  C_17
REMARK    5  A    between atoms: C_17  and  C_18
REMARK                            x       y       z     vdW  Elec       q    Type
REMARK                         _______ _______ _______ _____ _____    ______ ____
ROOT
ATOM      1  N   UNL     1       2.767   6.189  20.007  0.00  0.00    +0.000 N 
ATOM      2  C   UNL     1       2.296   4.942  19.627  0.00  0.00    +0.000 C 
ATOM      3  O   UNL     1       1.130   4.686  19.303  0.00  0.00    +0.000 OA
ATOM      4  H   UNL     1       3.733   6.266  20.304  0.00  0.00    +0.000 HD
ENDROOT
BRANCH   1  11
ATOM      5  O   UNL     1      -1.510  12.547  20.984  0.00  0.00    +0.000 OA
ATOM      6  C   UNL     1      -0.829  11.526  21.063  0.00  0.00    +0.000 C 
ATOM      7  C   UNL     1      -0.504  10.874  22.388  0.00  0.00    +0.000 C 
ATOM      8  C   UNL     1      -0.400   9.365  22.251  0.00  0.00    +0.000 C 
ATOM      9  C   UNL     1       0.495   8.997  21.100  0.00  0.00    +0.000 A 
ATOM     10  C   UNL     1       1.224   7.798  21.113  0.00  0.00    +0.000 A 
ATOM     11  C   UNL     1       2.005   7.395  20.022  0.00  0.00    +0.000 A 
ATOM     12  C   UNL     1       2.013   8.223  18.887  0.00  0.00    +0.000 A 
ATOM     13  C   UNL     1       1.265   9.418  18.854  0.00  0.00    +0.000 A 
ATOM     14  C   UNL     1       0.521   9.805  19.966  0.00  0.00    +0.000 A 
ATOM     15  N   UNL     1      -0.222  10.990  19.955  0.00  0.00    +0.000 N 
ATOM     16  H   UNL     1      -0.337  11.515  19.097  0.00  0.00    +0.000 HD
ENDBRANCH   1  11
BRANCH   2  17
ATOM     17  C   UNL     1       3.276   3.778  19.580  0.00  0.00    +0.000 C 
ATOM     18  C   UNL     1       4.677   4.081  20.080  0.00  0.00    +0.000 C 
ATOM     19  C   UNL     1       5.498   4.178  18.819  0.00  0.00    +0.000 C 
ATOM     20  O   UNL     1       6.662   4.539  18.772  0.00  0.00    +0.000 OA
ATOM     21  N   UNL     1       4.714   3.770  17.748  0.00  0.00    +0.000 N 
ATOM     22  C   UNL     1       3.454   3.220  18.189  0.00  0.00    +0.000 C 
BRANCH  21  23
ATOM     23  C   UNL     1       5.274   3.441  16.435  0.00  0.00    +0.000 C 
BRANCH  23  24
ATOM     24  C   UNL     1       5.404   4.686  15.553  0.00  0.00    +0.000 C 
BRANCH  24  25
ATOM     25  C   UNL     1       6.125   4.492  14.249  0.00  0.00    +0.000 A 
ATOM     26  C   UNL     1       5.614   3.593  13.300  0.00  0.00    +0.000 A 
ATOM     27  C   UNL     1       6.210   3.467  12.046  0.00  0.00    +0.000 A 
ATOM     28  C   UNL     1       7.326   4.236  11.728  0.00  0.00    +0.000 A 
ATOM     29  C   UNL     1       7.847   5.127  12.665  0.00  0.00    +0.000 A 
ATOM     30  C   UNL     1       7.251   5.256  13.922  0.00  0.00    +0.000 A 
ENDBRANCH  24  25
ENDBRANCH  23  24
ENDBRANCH  21  23
ENDBRANCH   2  17
TORSDOF 5
ENDMDL
MODEL 9
REMARK VINA RESULT:      -8.5      5.242      8.340
REMARK  Name = 
REMARK  5 active torsions:
REMARK  status: ('A' for Active; 'I' for Inactive)
REMARK    1  A    between atoms: C_7  and  N_8
REMARK    2  A    between atoms: C_9  and  C_11
REMARK    3  A    between atoms: N_15  and  C_16
REMARK    4  A    between atoms: C_16  and  C_17
REMARK    5  A    between atoms: C_17  and  C_18
REMARK                            x       y       z     vdW  Elec       q    Type
REMARK                         _______ _______ _______ _____ _____    ______ ____
ROOT
ATOM      1  N   UNL     1       2.621   7.016  19.019  0.00  0.00    +0.000 N 
ATOM      2  C   UNL     1       2.638   5.714  19.492  0.00  0.00    +0.000 C 
ATOM      3  O   UNL     1       1.974   5.290  20.446  0.00  0.00    +0.000 OA
ATOM      4  H   UNL     1       3.251   7.260  18.263  0.00  0.00    +0.000 HD
ENDROOT
BRANCH   1  11
ATOM      5  O   UNL     1      -1.892  12.252  22.466  0.00  0.00    +0.000 OA
ATOM      6  C   UNL     1      -1.133  11.343  22.136  0.00  0.00    +0.000 C 
ATOM      7  C   UNL     1      -0.541  10.381  23.141  0.00  0.00    +0.000 C 
ATOM      8  C   UNL     1      -0.350   9.000  22.539  0.00  0.00    +0.000 C 
ATOM      9  C   UNL     1       0.363   9.091  21.218  0.00  0.00    +0.000 A 
ATOM     10  C   UNL     1       1.171   8.037  20.764  0.00  0.00    +0.000 A 
ATOM     11  C   UNL     1       1.784   8.065  19.505  0.00  0.00    +0.000 A 
ATOM     12  C   UNL     1       1.539   9.179  18.686  0.00  0.00    +0.000 A 
ATOM     13  C   UNL     1       0.710  10.232  19.122  0.00  0.00    +0.000 A 
ATOM     14  C   UNL     1       0.137  10.189  20.391  0.00  0.00    +0.000 A 
ATOM     15  N   UNL     1      -0.684  11.227  20.844  0.00  0.00    +0.000 N 
ATOM     16  H   UNL     1      -0.981  11.959  20.211  0.00  0.00    +0.000 HD
ENDBRANCH   1  11
BRANCH   2  17
ATOM     17  C   UNL     1       3.528   4.696  18.790  0.00  0.00    +0.000 C 
ATOM     18  C   UNL     1       4.769   4.273  19.556  0.00  0.00    +0.000 C 
ATOM     19  C   UNL     1       5.890   4.999  18.856  0.00  0.00    +0.000 C 
ATOM     20  O   UNL     1       7.046   5.034  19.243  0.00  0.00    +0.000 OA
ATOM     21  N   UNL     1       5.385   5.590  17.705  0.00  0.00    +0.000 N 
ATOM     22  C   UNL     1       4.024   5.180  17.450  0.00  0.00    +0.000 C 
BRANCH  21  23
ATOM     23  C   UNL     1       6.243   6.104  16.635  0.00  0.00    +0.000 C 
BRANCH  23  24
ATOM     24  C   UNL     1       7.199   5.027  16.116  0.00  0.00    +0.000 C 
BRANCH  24  25
ATOM     25  C   UNL     1       7.051   4.664  14.665  0.00  0.00    +0.000 A 
ATOM     26  C   UNL     1       6.048   3.762  14.274  0.00  0.00    +0.000 A 
ATOM     27  C   UNL     1       5.830   3.483  12.926  0.00  0.00    +0.000 A 
ATOM     28  C   UNL     1       6.612   4.100  11.954  0.00  0.00    +0.000 A 
ATOM     29  C   UNL     1       7.616   4.991  12.331  0.00  0.00    +0.000 A 
ATOM     30  C   UNL     1       7.837   5.273  13.681  0.00  0.00    +0.000 A 
ENDBRANCH  24  25
ENDBRANCH  23  24
ENDBRANCH  21  23
ENDBRANCH   2  17
TORSDOF 5
ENDMDL
