MODEL 1
REMARK VINA RESULT:      -8.3      0.000      0.000
REMARK  Name = 
REMARK  4 active torsions:
REMARK  status: ('A' for Active; 'I' for Inactive)
REMARK    1  A    between atoms: C_2  and  C_16
REMARK    2  A    between atoms: N_3  and  C_4
REMARK    3  A    between atoms: C_7  and  N_8
REMARK    4  A    between atoms: C_9  and  C_11
REMARK                            x       y       z     vdW  Elec       q    Type
REMARK                         _______ _______ _______ _____ _____    ______ ____
ROOT
ATOM      1  O   UNL     1       7.801   9.896  17.645  0.00  0.00    +0.000 OA
ATOM      2  C   UNL     1       8.694   9.536  18.412  0.00  0.00    +0.000 C 
ATOM      3  N   UNL     1       8.855   8.251  18.904  0.00  0.00    +0.000 N 
ATOM      4  H   UNL     1       9.495   8.110  19.673  0.00  0.00    +0.000 HD
ENDROOT
BRANCH   2   5
ATOM      5  C   UNL     1       9.617  10.606  18.852  0.00  0.00    +0.000 A 
ATOM      6  C   UNL     1       9.641  10.844  20.243  0.00  0.00    +0.000 A 
ATOM      7  C   UNL     1      10.252  11.968  20.789  0.00  0.00    +0.000 A 
ATOM      8  C   UNL     1      10.921  12.778  19.882  0.00  0.00    +0.000 A 
ATOM      9  N   UNL     1      11.528  13.998  20.010  0.00  0.00    +0.000 N 
ATOM     10  C   UNL     1      12.333  14.154  18.920  0.00  0.00    +0.000 A 
ATOM     11  N   UNL     1      11.976  13.336  17.954  0.00  0.00    +0.000 NA
ATOM     12  C   UNL     1      11.068  12.480  18.530  0.00  0.00    +0.000 A 
ATOM     13  C   UNL     1      10.339  11.419  17.969  0.00  0.00    +0.000 A 
ATOM     14  H   UNL     1      11.410  14.650  20.773  0.00  0.00    +0.000 HD
ENDBRANCH   2   5
BRANCH   3  15
ATOM     15  C   UNL     1       8.007   7.171  18.541  0.00  0.00    +0.000 A 
ATOM     16  C   UNL     1       7.309   7.142  17.333  0.00  0.00    +0.000 A 
ATOM     17  C   UNL     1       6.405   6.125  17.030  0.00  0.00    +0.000 A 
ATOM     18  C   UNL     1       6.189   5.080  17.918  0.00  0.00    +0.000 A 
ATOM     19  C   UNL     1       6.931   5.063  19.109  0.00  0.00    +0.000 A 
ATOM     20  C   UNL     1       7.840   6.098  19.417  0.00  0.00    +0.000 A 
BRANCH  18  21
ATOM     21  N   UNL     1       5.274   4.038  17.659  0.00  0.00    +0.000 N 
ATOM     22  C   UNL     1       3.892   4.130  17.696  0.00  0.00    +0.000 C 
ATOM     23  O   UNL     1       3.221   5.106  17.989  0.00  0.00    +0.000 OA
ATOM     24  H   UNL     1       5.669   3.139  17.420  0.00  0.00    +0.000 HD
BRANCH  22  25
ATOM     25  C   UNL     1       3.202   2.881  17.285  0.00  0.00    +0.000 C 
ATOM     26  C   UNL     1       2.042   2.373  18.121  0.00  0.00    +0.000 C 
ATOM     27  C   UNL     1       3.333   1.612  18.104  0.00  0.00    +0.000 C 
ENDBRANCH  22  25
ENDBRANCH  18  21
ENDBRANCH   3  15
TORSDOF 4
ENDMDL
MODEL 2
REMARK VINA RESULT:      -8.2      1.576      1.923
REMARK  Name = 
REMARK  4 active torsions:
REMARK  status: ('A' for Active; 'I' for Inactive)
REMARK    1  A    between atoms: C_2  and  C_16
REMARK    2  A    between atoms: N_3  and  C_4
REMARK    3  A    between atoms: C_7  and  N_8
REMARK    4  A    between atoms: C_9  and  C_11
REMARK                            x       y       z     vdW  Elec       q    Type
REMARK                         _______ _______ _______ _____ _____    ______ ____
ROOT
ATOM      1  O   UNL     1       8.960   9.483  19.652  0.00  0.00    +0.000 OA
ATOM      2  C   UNL     1       8.810   9.846  18.485  0.00  0.00    +0.000 C 
ATOM      3  N   UNL     1       8.189   9.105  17.492  0.00  0.00    +0.000 N 
ATOM      4  H   UNL     1       8.293   9.407  16.534  0.00  0.00    +0.000 HD
ENDROOT
BRANCH   2   5
ATOM      5  C   UNL     1       9.395  11.163  18.153  0.00  0.00    +0.000 A 
ATOM      6  C   UNL     1      10.779  11.152  17.877  0.00  0.00    +0.000 A 
ATOM      7  C   UNL     1      11.526  12.324  17.799  0.00  0.00    +0.000 A 
ATOM      8  C   UNL     1      10.796  13.500  17.908  0.00  0.00    +0.000 A 
ATOM      9  N   UNL     1      11.172  14.812  17.995  0.00  0.00    +0.000 N 
ATOM     10  C   UNL     1      10.066  15.559  17.711  0.00  0.00    +0.000 A 
ATOM     11  N   UNL     1       8.971  14.845  17.851  0.00  0.00    +0.000 NA
ATOM     12  C   UNL     1       9.408  13.550  18.003  0.00  0.00    +0.000 A 
ATOM     13  C   UNL     1       8.682  12.367  18.214  0.00  0.00    +0.000 A 
ATOM     14  H   UNL     1      12.096  15.159  18.215  0.00  0.00    +0.000 HD
ENDBRANCH   2   5
BRANCH   3  15
ATOM     15  C   UNL     1       7.612   7.829  17.725  0.00  0.00    +0.000 A 
ATOM     16  C   UNL     1       6.440   7.412  17.092  0.00  0.00    +0.000 A 
ATOM     17  C   UNL     1       5.828   6.198  17.401  0.00  0.00    +0.000 A 
ATOM     18  C   UNL     1       6.388   5.340  18.338  0.00  0.00    +0.000 A 
ATOM     19  C   UNL     1       7.599   5.717  18.937  0.00  0.00    +0.000 A 
ATOM     20  C   UNL     1       8.212   6.951  18.628  0.00  0.00    +0.000 A 
BRANCH  18  21
ATOM     21  N   UNL     1       5.796   4.109  18.692  0.00  0.00    +0.000 N 
ATOM     22  C   UNL     1       4.575   3.935  19.322  0.00  0.00    +0.000 C 
ATOM     23  O   UNL     1       3.811   4.803  19.712  0.00  0.00    +0.000 OA
ATOM     24  H   UNL     1       6.316   3.275  18.458  0.00  0.00    +0.000 HD
BRANCH  22  25
ATOM     25  C   UNL     1       4.183   2.512  19.476  0.00  0.00    +0.000 C 
ATOM     26  C   UNL     1       3.549   1.792  18.300  0.00  0.00    +0.000 C 
ATOM     27  C   UNL     1       2.723   2.104  19.511  0.00  0.00    +0.000 C 
ENDBRANCH  22  25
ENDBRANCH  18  21
ENDBRANCH   3  15
TORSDOF 4
ENDMDL
MODEL 3
REMARK VINA RESULT:      -7.9      6.787      9.692
REMARK  Name = 
REMARK  4 active torsions:
REMARK  status: ('A' for Active; 'I' for Inactive)
REMARK    1  A    between atoms: C_2  and  C_16
REMARK    2  A    between atoms: N_3  and  C_4
REMARK    3  A    between atoms: C_7  and  N_8
REMARK    4  A    between atoms: C_9  and  C_11
REMARK                            x       y       z     vdW  Elec       q    Type
REMARK                         _______ _______ _______ _____ _____    ______ ____
ROOT
ATOM      1  O   UNL     1       2.256   6.310  19.612  0.00  0.00    +0.000 OA
ATOM      2  C   UNL     1       2.605   6.829  18.552  0.00  0.00    +0.000 C 
ATOM      3  N   UNL     1       2.250   8.101  18.131  0.00  0.00    +0.000 N 
ATOM      4  H   UNL     1       2.424   8.353  17.169  0.00  0.00    +0.000 HD
ENDROOT
BRANCH   2   5
ATOM      5  C   UNL     1       3.428   5.973  17.670  0.00  0.00    +0.000 A 
ATOM      6  C   UNL     1       3.107   4.599  17.698  0.00  0.00    +0.000 A 
ATOM      7  C   UNL     1       3.936   3.636  17.132  0.00  0.00    +0.000 A 
ATOM      8  C   UNL     1       5.041   4.130  16.452  0.00  0.00    +0.000 A 
ATOM      9  N   UNL     1       6.121   3.516  15.879  0.00  0.00    +0.000 N 
ATOM     10  C   UNL     1       6.695   4.427  15.042  0.00  0.00    +0.000 A 
ATOM     11  N   UNL     1       6.314   5.648  15.348  0.00  0.00    +0.000 NA
ATOM     12  C   UNL     1       5.293   5.485  16.254  0.00  0.00    +0.000 A 
ATOM     13  C   UNL     1       4.526   6.442  16.938  0.00  0.00    +0.000 A 
ATOM     14  H   UNL     1       6.424   2.564  16.038  0.00  0.00    +0.000 HD
ENDBRANCH   2   5
BRANCH   3  15
ATOM     15  C   UNL     1       1.455   8.981  18.912  0.00  0.00    +0.000 A 
ATOM     16  C   UNL     1       1.411   8.912  20.305  0.00  0.00    +0.000 A 
ATOM     17  C   UNL     1       0.553   9.715  21.055  0.00  0.00    +0.000 A 
ATOM     18  C   UNL     1      -0.274  10.641  20.435  0.00  0.00    +0.000 A 
ATOM     19  C   UNL     1      -0.196  10.766  19.039  0.00  0.00    +0.000 A 
ATOM     20  C   UNL     1       0.668   9.946  18.282  0.00  0.00    +0.000 A 
BRANCH  18  21
ATOM     21  N   UNL     1      -1.167  11.465  21.153  0.00  0.00    +0.000 N 
ATOM     22  C   UNL     1      -1.210  11.628  22.528  0.00  0.00    +0.000 C 
ATOM     23  O   UNL     1      -0.516  11.072  23.364  0.00  0.00    +0.000 OA
ATOM     24  H   UNL     1      -1.837  11.988  20.607  0.00  0.00    +0.000 HD
BRANCH  22  25
ATOM     25  C   UNL     1      -2.203  12.636  22.977  0.00  0.00    +0.000 C 
ATOM     26  C   UNL     1      -3.424  12.170  23.749  0.00  0.00    +0.000 C 
ATOM     27  C   UNL     1      -3.585  12.699  22.355  0.00  0.00    +0.000 C 
ENDBRANCH  22  25
ENDBRANCH  18  21
ENDBRANCH   3  15
TORSDOF 4
ENDMDL
MODEL 4
REMARK VINA RESULT:      -7.7      6.892      8.761
REMARK  Name = 
REMARK  4 active torsions:
REMARK  status: ('A' for Active; 'I' for Inactive)
REMARK    1  A    between atoms: C_2  and  C_16
REMARK    2  A    between atoms: N_3  and  C_4
REMARK    3  A    between atoms: C_7  and  N_8
REMARK    4  A    between atoms: C_9  and  C_11
REMARK                            x       y       z     vdW  Elec       q    Type
REMARK                         _______ _______ _______ _____ _____    ______ ____
ROOT
ATOM      1  O   UNL     1       0.718   9.634  18.645  0.00  0.00    +0.000 OA
ATOM      2  C   UNL     1       0.916   9.286  19.810  0.00  0.00    +0.000 C 
ATOM      3  N   UNL     1       1.710   8.220  20.201  0.00  0.00    +0.000 N 
ATOM      4  H   UNL     1       1.647   7.903  21.157  0.00  0.00    +0.000 HD
ENDROOT
BRANCH   2   5
ATOM      5  C   UNL     1       0.191  10.069  20.834  0.00  0.00    +0.000 A 
ATOM      6  C   UNL     1       0.242   9.540  22.142  0.00  0.00    +0.000 A 
ATOM      7  C   UNL     1      -0.585  10.005  23.159  0.00  0.00    +0.000 A 
ATOM      8  C   UNL     1      -1.384  11.089  22.824  0.00  0.00    +0.000 A 
ATOM      9  N   UNL     1      -2.385  11.738  23.495  0.00  0.00    +0.000 N 
ATOM     10  C   UNL     1      -2.566  12.937  22.870  0.00  0.00    +0.000 A 
ATOM     11  N   UNL     1      -2.056  12.915  21.658  0.00  0.00    +0.000 NA
ATOM     12  C   UNL     1      -1.332  11.748  21.599  0.00  0.00    +0.000 A 
ATOM     13  C   UNL     1      -0.594  11.191  20.541  0.00  0.00    +0.000 A 
ATOM     14  H   UNL     1      -2.885  11.396  24.304  0.00  0.00    +0.000 HD
ENDBRANCH   2   5
BRANCH   3  15
ATOM     15  C   UNL     1       2.430   7.413  19.281  0.00  0.00    +0.000 A 
ATOM     16  C   UNL     1       2.723   6.072  19.533  0.00  0.00    +0.000 A 
ATOM     17  C   UNL     1       3.514   5.317  18.669  0.00  0.00    +0.000 A 
ATOM     18  C   UNL     1       4.019   5.872  17.502  0.00  0.00    +0.000 A 
ATOM     19  C   UNL     1       3.682   7.201  17.203  0.00  0.00    +0.000 A 
ATOM     20  C   UNL     1       2.886   7.966  18.084  0.00  0.00    +0.000 A 
BRANCH  18  21
ATOM     21  N   UNL     1       4.835   5.149  16.605  0.00  0.00    +0.000 N 
ATOM     22  C   UNL     1       6.123   5.482  16.216  0.00  0.00    +0.000 C 
ATOM     23  O   UNL     1       6.767   6.465  16.545  0.00  0.00    +0.000 OA
ATOM     24  H   UNL     1       4.440   4.306  16.215  0.00  0.00    +0.000 HD
BRANCH  22  25
ATOM     25  C   UNL     1       6.756   4.472  15.332  0.00  0.00    +0.000 C 
ATOM     26  C   UNL     1       7.092   4.855  13.902  0.00  0.00    +0.000 C 
ATOM     27  C   UNL     1       5.995   3.868  14.167  0.00  0.00    +0.000 C 
ENDBRANCH  22  25
ENDBRANCH  18  21
ENDBRANCH   3  15
TORSDOF 4
ENDMDL
MODEL 5
REMARK VINA RESULT:      -7.7      7.492      9.965
REMARK  Name = 
REMARK  4 active torsions:
REMARK  status: ('A' for Active; 'I' for Inactive)
REMARK    1  A    between atoms: C_2  and  C_16
REMARK    2  A    between atoms: N_3  and  C_4
REMARK    3  A    between atoms: C_7  and  N_8
REMARK    4  A    between atoms: C_9  and  C_11
REMARK                            x       y       z     vdW  Elec       q    Type
REMARK                         _______ _______ _______ _____ _____    ______ ____
ROOT
ATOM      1  O   UNL     1       1.468   8.649  17.829  0.00  0.00    +0.000 OA
ATOM      2  C   UNL     1       2.039   7.878  18.601  0.00  0.00    +0.000 C 
ATOM      3  N   UNL     1       1.933   7.909  19.982  0.00  0.00    +0.000 N 
ATOM      4  H   UNL     1       2.589   7.365  20.525  0.00  0.00    +0.000 HD
ENDROOT
BRANCH   2   5
ATOM      5  C   UNL     1       2.933   6.889  17.961  0.00  0.00    +0.000 A 
ATOM      6  C   UNL     1       2.500   5.548  18.041  0.00  0.00    +0.000 A 
ATOM      7  C   UNL     1       3.335   4.482  17.720  0.00  0.00    +0.000 A 
ATOM      8  C   UNL     1       4.580   4.836  17.218  0.00  0.00    +0.000 A 
ATOM      9  N   UNL     1       5.690   4.099  16.907  0.00  0.00    +0.000 N 
ATOM     10  C   UNL     1       6.478   4.886  16.119  0.00  0.00    +0.000 A 
ATOM     11  N   UNL     1       6.150   6.153  16.247  0.00  0.00    +0.000 NA
ATOM     12  C   UNL     1       4.973   6.145  16.959  0.00  0.00    +0.000 A 
ATOM     13  C   UNL     1       4.179   7.212  17.408  0.00  0.00    +0.000 A 
ATOM     14  H   UNL     1       5.881   3.149  17.197  0.00  0.00    +0.000 HD
ENDBRANCH   2   5
BRANCH   3  15
ATOM     15  C   UNL     1       1.106   8.833  20.675  0.00  0.00    +0.000 A 
ATOM     16  C   UNL     1       1.159  10.207  20.439  0.00  0.00    +0.000 A 
ATOM     17  C   UNL     1       0.414  11.112  21.194  0.00  0.00    +0.000 A 
ATOM     18  C   UNL     1      -0.436  10.669  22.197  0.00  0.00    +0.000 A 
ATOM     19  C   UNL     1      -0.547   9.285  22.405  0.00  0.00    +0.000 A 
ATOM     20  C   UNL     1       0.214   8.371  21.644  0.00  0.00    +0.000 A 
BRANCH  18  21
ATOM     21  N   UNL     1      -1.198  11.549  22.994  0.00  0.00    +0.000 N 
ATOM     22  C   UNL     1      -2.322  12.254  22.595  0.00  0.00    +0.000 C 
ATOM     23  O   UNL     1      -2.834  12.270  21.488  0.00  0.00    +0.000 OA
ATOM     24  H   UNL     1      -0.893  11.672  23.949  0.00  0.00    +0.000 HD
BRANCH  22  25
ATOM     25  C   UNL     1      -2.958  13.028  23.691  0.00  0.00    +0.000 C 
ATOM     26  C   UNL     1      -4.121  12.412  24.447  0.00  0.00    +0.000 C 
ATOM     27  C   UNL     1      -4.361  13.583  23.542  0.00  0.00    +0.000 C 
ENDBRANCH  22  25
ENDBRANCH  18  21
ENDBRANCH   3  15
TORSDOF 4
ENDMDL
MODEL 6
REMARK VINA RESULT:      -7.7      6.789      9.670
REMARK  Name = 
REMARK  4 active torsions:
REMARK  status: ('A' for Active; 'I' for Inactive)
REMARK    1  A    between atoms: C_2  and  C_16
REMARK    2  A    between atoms: N_3  and  C_4
REMARK    3  A    between atoms: C_7  and  N_8
REMARK    4  A    between atoms: C_9  and  C_11
REMARK                            x       y       z     vdW  Elec       q    Type
REMARK                         _______ _______ _______ _____ _____    ______ ____
ROOT
ATOM      1  O   UNL     1       1.953   5.799  19.551  0.00  0.00    +0.000 OA
ATOM      2  C   UNL     1       2.547   6.516  18.747  0.00  0.00    +0.000 C 
ATOM      3  N   UNL     1       2.376   7.885  18.619  0.00  0.00    +0.000 N 
ATOM      4  H   UNL     1       2.762   8.342  17.805  0.00  0.00    +0.000 HD
ENDROOT
BRANCH   2   5
ATOM      5  C   UNL     1       3.472   5.810  17.834  0.00  0.00    +0.000 A 
ATOM      6  C   UNL     1       3.246   4.422  17.706  0.00  0.00    +0.000 A 
ATOM      7  C   UNL     1       4.168   3.577  17.097  0.00  0.00    +0.000 A 
ATOM      8  C   UNL     1       5.270   4.208  16.536  0.00  0.00    +0.000 A 
ATOM      9  N   UNL     1       6.418   3.725  15.969  0.00  0.00    +0.000 N 
ATOM     10  C   UNL     1       6.972   4.753  15.263  0.00  0.00    +0.000 A 
ATOM     11  N   UNL     1       6.492   5.909  15.666  0.00  0.00    +0.000 NA
ATOM     12  C   UNL     1       5.438   5.589  16.489  0.00  0.00    +0.000 A 
ATOM     13  C   UNL     1       4.573   6.420  17.219  0.00  0.00    +0.000 A 
ATOM     14  H   UNL     1       6.777   2.784  16.050  0.00  0.00    +0.000 HD
ENDBRANCH   2   5
BRANCH   3  15
ATOM     15  C   UNL     1       1.500   8.636  19.448  0.00  0.00    +0.000 A 
ATOM     16  C   UNL     1       0.674   9.641  18.944  0.00  0.00    +0.000 A 
ATOM     17  C   UNL     1      -0.109  10.438  19.779  0.00  0.00    +0.000 A 
ATOM     18  C   UNL     1      -0.113  10.236  21.151  0.00  0.00    +0.000 A 
ATOM     19  C   UNL     1       0.666   9.189  21.667  0.00  0.00    +0.000 A 
ATOM     20  C   UNL     1       1.463   8.388  20.820  0.00  0.00    +0.000 A 
BRANCH  18  21
ATOM     21  N   UNL     1      -0.877  11.027  22.035  0.00  0.00    +0.000 N 
ATOM     22  C   UNL     1      -0.635  12.349  22.374  0.00  0.00    +0.000 C 
ATOM     23  O   UNL     1       0.290  13.053  22.003  0.00  0.00    +0.000 OA
ATOM     24  H   UNL     1      -1.681  10.584  22.457  0.00  0.00    +0.000 HD
BRANCH  22  25
ATOM     25  C   UNL     1      -1.673  12.935  23.258  0.00  0.00    +0.000 C 
ATOM     26  C   UNL     1      -3.027  13.288  22.669  0.00  0.00    +0.000 C 
ATOM     27  C   UNL     1      -2.100  14.383  23.106  0.00  0.00    +0.000 C 
ENDBRANCH  22  25
ENDBRANCH  18  21
ENDBRANCH   3  15
TORSDOF 4
ENDMDL
MODEL 7
REMARK VINA RESULT:      -7.7      7.208      9.771
REMARK  Name = 
REMARK  4 active torsions:
REMARK  status: ('A' for Active; 'I' for Inactive)
REMARK    1  A    between atoms: C_2  and  C_16
REMARK    2  A    between atoms: N_3  and  C_4
REMARK    3  A    between atoms: C_7  and  N_8
REMARK    4  A    between atoms: C_9  and  C_11
REMARK                            x       y       z     vdW  Elec       q    Type
REMARK                         _______ _______ _______ _____ _____    ______ ____
ROOT
ATOM      1  O   UNL     1       2.194   7.383  19.594  0.00  0.00    +0.000 OA
ATOM      2  C   UNL     1       2.464   7.637  18.420  0.00  0.00    +0.000 C 
ATOM      3  N   UNL     1       1.953   8.701  17.695  0.00  0.00    +0.000 N 
ATOM      4  H   UNL     1       2.084   8.705  16.694  0.00  0.00    +0.000 HD
ENDROOT
BRANCH   2   5
ATOM      5  C   UNL     1       3.373   6.675  17.759  0.00  0.00    +0.000 A 
ATOM      6  C   UNL     1       2.970   5.324  17.827  0.00  0.00    +0.000 A 
ATOM      7  C   UNL     1       3.825   4.281  17.485  0.00  0.00    +0.000 A 
ATOM      8  C   UNL     1       5.058   4.667  16.978  0.00  0.00    +0.000 A 
ATOM      9  N   UNL     1       6.181   3.958  16.648  0.00  0.00    +0.000 N 
ATOM     10  C   UNL     1       6.945   4.772  15.863  0.00  0.00    +0.000 A 
ATOM     11  N   UNL     1       6.591   6.030  16.010  0.00  0.00    +0.000 NA
ATOM     12  C   UNL     1       5.421   5.988  16.732  0.00  0.00    +0.000 A 
ATOM     13  C   UNL     1       4.607   7.032  17.201  0.00  0.00    +0.000 A 
ATOM     14  H   UNL     1       6.395   3.009  16.924  0.00  0.00    +0.000 HD
ENDBRANCH   2   5
BRANCH   3  15
ATOM     15  C   UNL     1       1.067   9.662  18.251  0.00  0.00    +0.000 A 
ATOM     16  C   UNL     1       1.511  10.708  19.061  0.00  0.00    +0.000 A 
ATOM     17  C   UNL     1       0.624  11.587  19.680  0.00  0.00    +0.000 A 
ATOM     18  C   UNL     1      -0.745  11.467  19.485  0.00  0.00    +0.000 A 
ATOM     19  C   UNL     1      -1.203  10.458  18.624  0.00  0.00    +0.000 A 
ATOM     20  C   UNL     1      -0.303   9.565  18.004  0.00  0.00    +0.000 A 
BRANCH  18  21
ATOM     21  N   UNL     1      -1.680  12.324  20.103  0.00  0.00    +0.000 N 
ATOM     22  C   UNL     1      -2.016  12.342  21.447  0.00  0.00    +0.000 C 
ATOM     23  O   UNL     1      -1.597  11.608  22.327  0.00  0.00    +0.000 OA
ATOM     24  H   UNL     1      -2.145  12.992  19.504  0.00  0.00    +0.000 HD
BRANCH  22  25
ATOM     25  C   UNL     1      -2.966  13.424  21.807  0.00  0.00    +0.000 C 
ATOM     26  C   UNL     1      -4.433  13.082  21.995  0.00  0.00    +0.000 C 
ATOM     27  C   UNL     1      -4.009  13.909  20.818  0.00  0.00    +0.000 C 
ENDBRANCH  22  25
ENDBRANCH  18  21
ENDBRANCH   3  15
TORSDOF 4
ENDMDL
MODEL 8
REMARK VINA RESULT:      -7.6      6.972      9.716
REMARK  Name = 
REMARK  4 active torsions:
REMARK  status: ('A' for Active; 'I' for Inactive)
REMARK    1  A    between atoms: C_2  and  C_16
REMARK    2  A    between atoms: N_3  and  C_4
REMARK    3  A    between atoms: C_7  and  N_8
REMARK    4  A    between atoms: C_9  and  C_11
REMARK                            x       y       z     vdW  Elec       q    Type
REMARK                         _______ _______ _______ _____ _____    ______ ____
ROOT
ATOM      1  O   UNL     1       2.727   8.762  17.660  0.00  0.00    +0.000 OA
ATOM      2  C   UNL     1       2.765   7.679  18.244  0.00  0.00    +0.000 C 
ATOM      3  N   UNL     1       2.194   7.416  19.478  0.00  0.00    +0.000 N 
ATOM      4  H   UNL     1       2.449   6.562  19.952  0.00  0.00    +0.000 HD
ENDROOT
BRANCH   2   5
ATOM      5  C   UNL     1       3.531   6.618  17.555  0.00  0.00    +0.000 A 
ATOM      6  C   UNL     1       3.106   5.299  17.825  0.00  0.00    +0.000 A 
ATOM      7  C   UNL     1       3.867   4.191  17.466  0.00  0.00    +0.000 A 
ATOM      8  C   UNL     1       5.014   4.470  16.736  0.00  0.00    +0.000 A 
ATOM      9  N   UNL     1       6.051   3.684  16.312  0.00  0.00    +0.000 N 
ATOM     10  C   UNL     1       6.703   4.382  15.338  0.00  0.00    +0.000 A 
ATOM     11  N   UNL     1       6.411   5.662  15.406  0.00  0.00    +0.000 NA
ATOM     12  C   UNL     1       5.370   5.743  16.300  0.00  0.00    +0.000 A 
ATOM     13  C   UNL     1       4.670   6.863  16.778  0.00  0.00    +0.000 A 
ATOM     14  H   UNL     1       6.279   2.759  16.650  0.00  0.00    +0.000 HD
ENDBRANCH   2   5
BRANCH   3  15
ATOM     15  C   UNL     1       1.452   8.382  20.210  0.00  0.00    +0.000 A 
ATOM     16  C   UNL     1       1.461   8.432  21.604  0.00  0.00    +0.000 A 
ATOM     17  C   UNL     1       0.653   9.320  22.314  0.00  0.00    +0.000 A 
ATOM     18  C   UNL     1      -0.174  10.213  21.648  0.00  0.00    +0.000 A 
ATOM     19  C   UNL     1      -0.148  10.217  20.244  0.00  0.00    +0.000 A 
ATOM     20  C   UNL     1       0.665   9.312  19.529  0.00  0.00    +0.000 A 
BRANCH  18  21
ATOM     21  N   UNL     1      -1.018  11.119  22.325  0.00  0.00    +0.000 N 
ATOM     22  C   UNL     1      -0.792  12.474  22.505  0.00  0.00    +0.000 C 
ATOM     23  O   UNL     1       0.181  13.119  22.148  0.00  0.00    +0.000 OA
ATOM     24  H   UNL     1      -1.871  10.740  22.710  0.00  0.00    +0.000 HD
BRANCH  22  25
ATOM     25  C   UNL     1      -1.911  13.179  23.180  0.00  0.00    +0.000 C 
ATOM     26  C   UNL     1      -3.115  13.601  22.358  0.00  0.00    +0.000 C 
ATOM     27  C   UNL     1      -2.188  14.644  22.905  0.00  0.00    +0.000 C 
ENDBRANCH  22  25
ENDBRANCH  18  21
ENDBRANCH   3  15
TORSDOF 4
ENDMDL
MODEL 9
REMARK VINA RESULT:      -7.6      6.281      8.294
REMARK  Name = 
REMARK  4 active torsions:
REMARK  status: ('A' for Active; 'I' for Inactive)
REMARK    1  A    between atoms: C_2  and  C_16
REMARK    2  A    between atoms: N_3  and  C_4
REMARK    3  A    between atoms: C_7  and  N_8
REMARK    4  A    between atoms: C_9  and  C_11
REMARK                            x       y       z     vdW  Elec       q    Type
REMARK                         _______ _______ _______ _____ _____    ______ ____
ROOT
ATOM      1  O   UNL     1       1.492   8.987  18.205  0.00  0.00    +0.000 OA
ATOM      2  C   UNL     1       1.655   8.548  19.343  0.00  0.00    +0.000 C 
ATOM      3  N   UNL     1       2.381   7.412  19.664  0.00  0.00    +0.000 N 
ATOM      4  H   UNL     1       2.288   7.032  20.595  0.00  0.00    +0.000 HD
ENDROOT
BRANCH   2   5
ATOM      5  C   UNL     1       0.965   9.299  20.414  0.00  0.00    +0.000 A 
ATOM      6  C   UNL     1       1.184   8.816  21.723  0.00  0.00    +0.000 A 
ATOM      7  C   UNL     1       0.420   9.242  22.804  0.00  0.00    +0.000 A 
ATOM      8  C   UNL     1      -0.498  10.245  22.523  0.00  0.00    +0.000 A 
ATOM      9  N   UNL     1      -1.483  10.829  23.272  0.00  0.00    +0.000 N 
ATOM     10  C   UNL     1      -1.823  11.989  22.641  0.00  0.00    +0.000 A 
ATOM     11  N   UNL     1      -1.429  11.972  21.386  0.00  0.00    +0.000 NA
ATOM     12  C   UNL     1      -0.617  10.868  21.284  0.00  0.00    +0.000 A 
ATOM     13  C   UNL     1       0.063  10.343  20.173  0.00  0.00    +0.000 A 
ATOM     14  H   UNL     1      -1.873  10.471  24.134  0.00  0.00    +0.000 HD
ENDBRANCH   2   5
BRANCH   3  15
ATOM     15  C   UNL     1       3.063   6.629  18.695  0.00  0.00    +0.000 A 
ATOM     16  C   UNL     1       4.131   7.129  17.949  0.00  0.00    +0.000 A 
ATOM     17  C   UNL     1       4.730   6.385  16.932  0.00  0.00    +0.000 A 
ATOM     18  C   UNL     1       4.298   5.098  16.647  0.00  0.00    +0.000 A 
ATOM     19  C   UNL     1       3.266   4.559  17.430  0.00  0.00    +0.000 A 
ATOM     20  C   UNL     1       2.656   5.317  18.453  0.00  0.00    +0.000 A 
BRANCH  18  21
ATOM     21  N   UNL     1       4.865   4.315  15.619  0.00  0.00    +0.000 N 
ATOM     22  C   UNL     1       5.851   4.714  14.731  0.00  0.00    +0.000 C 
ATOM     23  O   UNL     1       6.380   5.811  14.652  0.00  0.00    +0.000 OA
ATOM     24  H   UNL     1       4.518   3.371  15.527  0.00  0.00    +0.000 HD
BRANCH  22  25
ATOM     25  C   UNL     1       6.306   3.632  13.823  0.00  0.00    +0.000 C 
ATOM     26  C   UNL     1       6.877   4.002  12.466  0.00  0.00    +0.000 C 
ATOM     27  C   UNL     1       5.549   3.313  12.548  0.00  0.00    +0.000 C 
ENDBRANCH  22  25
ENDBRANCH  18  21
ENDBRANCH   3  15
TORSDOF 4
ENDMDL
