MODEL 1
REMARK VINA RESULT:      -8.7      0.000      0.000
REMARK  Name = 
REMARK  4 active torsions:
REMARK  status: ('A' for Active; 'I' for Inactive)
REMARK    1  A    between atoms: C_2  and  C_16
REMARK    2  A    between atoms: N_3  and  C_4
REMARK    3  A    between atoms: C_4  and  C_5
REMARK    4  A    between atoms: N_9  and  C_10
REMARK                            x       y       z     vdW  Elec       q    Type
REMARK                         _______ _______ _______ _____ _____    ______ ____
ROOT
ATOM      1  O   UNL     1       5.418   5.555  18.810  0.00  0.00    +0.000 OA
ATOM      2  C   UNL     1       5.423   4.600  18.041  0.00  0.00    +0.000 C 
ATOM      3  N   UNL     1       4.861   3.388  18.375  0.00  0.00    +0.000 N 
ATOM      4  H   UNL     1       4.732   2.673  17.659  0.00  0.00    +0.000 HD
ENDROOT
BRANCH   2   5
ATOM      5  C   UNL     1       6.098   4.666  16.710  0.00  0.00    +0.000 A 
ATOM      6  C   UNL     1       5.580   3.943  15.697  0.00  0.00    +0.000 A 
ATOM      7  C   UNL     1       6.085   4.048  14.338  0.00  0.00    +0.000 A 
ATOM      8  C   UNL     1       7.070   4.923  14.066  0.00  0.00    +0.000 A 
ATOM      9  N   UNL     1       7.634   5.646  15.091  0.00  0.00    +0.000 N 
ATOM     10  C   UNL     1       7.267   5.539  16.413  0.00  0.00    +0.000 A 
ATOM     11  O   UNL     1       7.874   6.143  17.295  0.00  0.00    +0.000 OA
ATOM     12  C   UNL     1       7.627   5.128  12.680  0.00  0.00    +0.000 C 
ATOM     13  C   UNL     1       7.269   3.981  11.732  0.00  0.00    +0.000 C 
ATOM     14  C   UNL     1       5.792   3.623  11.852  0.00  0.00    +0.000 C 
ATOM     15  C   UNL     1       5.446   3.186  13.279  0.00  0.00    +0.000 C 
ATOM     16  H   UNL     1       8.409   6.272  14.905  0.00  0.00    +0.000 HD
ENDBRANCH   2   5
BRANCH   3  17
ATOM     17  C   UNL     1       4.245   3.193  19.669  0.00  0.00    +0.000 C 
BRANCH  17  18
ATOM     18  C   UNL     1       2.767   2.997  19.566  0.00  0.00    +0.000 A 
ATOM     19  N   UNL     1       2.131   1.844  19.661  0.00  0.00    +0.000 NA
ATOM     20  N   UNL     1       0.784   2.087  19.712  0.00  0.00    +0.000 NA
ATOM     21  C   UNL     1       0.613   3.388  19.646  0.00  0.00    +0.000 A 
ATOM     22  N   UNL     1       1.823   4.022  19.507  0.00  0.00    +0.000 N 
BRANCH  22  23
ATOM     23  C   UNL     1       2.012   5.427  19.404  0.00  0.00    +0.000 A 
ATOM     24  C   UNL     1       2.311   5.998  18.158  0.00  0.00    +0.000 A 
ATOM     25  C   UNL     1       2.334   7.388  18.018  0.00  0.00    +0.000 A 
ATOM     26  C   UNL     1       2.102   8.208  19.121  0.00  0.00    +0.000 A 
ATOM     27  C   UNL     1       1.889   7.641  20.376  0.00  0.00    +0.000 A 
ATOM     28  C   UNL     1       1.856   6.256  20.519  0.00  0.00    +0.000 A 
ENDBRANCH  22  23
ENDBRANCH  17  18
ENDBRANCH   3  17
TORSDOF 4
ENDMDL
MODEL 2
REMARK VINA RESULT:      -8.5      0.344      1.007
REMARK  Name = 
REMARK  4 active torsions:
REMARK  status: ('A' for Active; 'I' for Inactive)
REMARK    1  A    between atoms: C_2  and  C_16
REMARK    2  A    between atoms: N_3  and  C_4
REMARK    3  A    between atoms: C_4  and  C_5
REMARK    4  A    between atoms: N_9  and  C_10
REMARK                            x       y       z     vdW  Elec       q    Type
REMARK                         _______ _______ _______ _____ _____    ______ ____
ROOT
ATOM      1  O   UNL     1       5.476   5.216  18.969  0.00  0.00    +0.000 OA
ATOM      2  C   UNL     1       5.400   4.376  18.079  0.00  0.00    +0.000 C 
ATOM      3  N   UNL     1       4.711   3.196  18.243  0.00  0.00    +0.000 N 
ATOM      4  H   UNL     1       4.525   2.600  17.436  0.00  0.00    +0.000 HD
ENDROOT
BRANCH   2   5
ATOM      5  C   UNL     1       6.107   4.549  16.775  0.00  0.00    +0.000 A 
ATOM      6  C   UNL     1       5.669   3.839  15.715  0.00  0.00    +0.000 A 
ATOM      7  C   UNL     1       6.205   4.040  14.379  0.00  0.00    +0.000 A 
ATOM      8  C   UNL     1       7.134   4.991  14.176  0.00  0.00    +0.000 A 
ATOM      9  N   UNL     1       7.617   5.704  15.249  0.00  0.00    +0.000 N 
ATOM     10  C   UNL     1       7.221   5.511  16.552  0.00  0.00    +0.000 A 
ATOM     11  O   UNL     1       7.759   6.114  17.479  0.00  0.00    +0.000 OA
ATOM     12  C   UNL     1       7.715   5.297  12.818  0.00  0.00    +0.000 C 
ATOM     13  C   UNL     1       7.464   4.172  11.811  0.00  0.00    +0.000 C 
ATOM     14  C   UNL     1       6.012   3.710  11.868  0.00  0.00    +0.000 C 
ATOM     15  C   UNL     1       5.657   3.185  13.264  0.00  0.00    +0.000 C 
ATOM     16  H   UNL     1       8.351   6.388  15.115  0.00  0.00    +0.000 HD
ENDBRANCH   2   5
BRANCH   3  17
ATOM     17  C   UNL     1       4.051   2.896  19.494  0.00  0.00    +0.000 C 
BRANCH  17  18
ATOM     18  C   UNL     1       2.582   2.682  19.320  0.00  0.00    +0.000 A 
ATOM     19  N   UNL     1       1.961   1.517  19.338  0.00  0.00    +0.000 NA
ATOM     20  N   UNL     1       0.609   1.737  19.342  0.00  0.00    +0.000 NA
ATOM     21  C   UNL     1       0.420   3.038  19.323  0.00  0.00    +0.000 A 
ATOM     22  N   UNL     1       1.624   3.694  19.263  0.00  0.00    +0.000 N 
BRANCH  22  23
ATOM     23  C   UNL     1       1.795   5.105  19.228  0.00  0.00    +0.000 A 
ATOM     24  C   UNL     1       1.668   5.851  20.409  0.00  0.00    +0.000 A 
ATOM     25  C   UNL     1       1.997   7.209  20.414  0.00  0.00    +0.000 A 
ATOM     26  C   UNL     1       2.410   7.833  19.238  0.00  0.00    +0.000 A 
ATOM     27  C   UNL     1       2.454   7.113  18.047  0.00  0.00    +0.000 A 
ATOM     28  C   UNL     1       2.137   5.757  18.039  0.00  0.00    +0.000 A 
ENDBRANCH  22  23
ENDBRANCH  17  18
ENDBRANCH   3  17
TORSDOF 4
ENDMDL
MODEL 3
REMARK VINA RESULT:      -8.4      2.175      7.908
REMARK  Name = 
REMARK  4 active torsions:
REMARK  status: ('A' for Active; 'I' for Inactive)
REMARK    1  A    between atoms: C_2  and  C_16
REMARK    2  A    between atoms: N_3  and  C_4
REMARK    3  A    between atoms: C_4  and  C_5
REMARK    4  A    between atoms: N_9  and  C_10
REMARK                            x       y       z     vdW  Elec       q    Type
REMARK                         _______ _______ _______ _____ _____    ______ ____
ROOT
ATOM      1  O   UNL     1       3.800   3.232  17.234  0.00  0.00    +0.000 OA
ATOM      2  C   UNL     1       4.179   4.398  17.248  0.00  0.00    +0.000 C 
ATOM      3  N   UNL     1       5.221   4.838  16.465  0.00  0.00    +0.000 N 
ATOM      4  H   UNL     1       5.401   5.838  16.373  0.00  0.00    +0.000 HD
ENDROOT
BRANCH   2   5
ATOM      5  C   UNL     1       3.575   5.409  18.167  0.00  0.00    +0.000 A 
ATOM      6  C   UNL     1       3.147   6.573  17.639  0.00  0.00    +0.000 A 
ATOM      7  C   UNL     1       2.427   7.559  18.428  0.00  0.00    +0.000 A 
ATOM      8  C   UNL     1       2.135   7.290  19.714  0.00  0.00    +0.000 A 
ATOM      9  N   UNL     1       2.591   6.122  20.280  0.00  0.00    +0.000 N 
ATOM     10  C   UNL     1       3.350   5.182  19.621  0.00  0.00    +0.000 A 
ATOM     11  O   UNL     1       3.807   4.204  20.210  0.00  0.00    +0.000 OA
ATOM     12  C   UNL     1       1.356   8.234  20.595  0.00  0.00    +0.000 C 
ATOM     13  C   UNL     1       1.306   9.654  20.026  0.00  0.00    +0.000 C 
ATOM     14  C   UNL     1       0.960   9.628  18.542  0.00  0.00    +0.000 C 
ATOM     15  C   UNL     1       2.003   8.835  17.747  0.00  0.00    +0.000 C 
ATOM     16  H   UNL     1       2.419   5.931  21.260  0.00  0.00    +0.000 HD
ENDBRANCH   2   5
BRANCH   3  17
ATOM     17  C   UNL     1       5.925   3.924  15.592  0.00  0.00    +0.000 C 
BRANCH  17  18
ATOM     18  C   UNL     1       6.773   4.640  14.591  0.00  0.00    +0.000 A 
ATOM     19  N   UNL     1       7.712   5.527  14.865  0.00  0.00    +0.000 NA
ATOM     20  N   UNL     1       8.398   5.812  13.715  0.00  0.00    +0.000 NA
ATOM     21  C   UNL     1       7.866   5.097  12.749  0.00  0.00    +0.000 A 
ATOM     22  N   UNL     1       6.806   4.366  13.224  0.00  0.00    +0.000 N 
BRANCH  22  23
ATOM     23  C   UNL     1       6.000   3.484  12.454  0.00  0.00    +0.000 A 
ATOM     24  C   UNL     1       4.699   3.866  12.094  0.00  0.00    +0.000 A 
ATOM     25  C   UNL     1       3.965   3.081  11.203  0.00  0.00    +0.000 A 
ATOM     26  C   UNL     1       4.504   1.897  10.703  0.00  0.00    +0.000 A 
ATOM     27  C   UNL     1       5.762   1.473  11.126  0.00  0.00    +0.000 A 
ATOM     28  C   UNL     1       6.503   2.258  12.007  0.00  0.00    +0.000 A 
ENDBRANCH  22  23
ENDBRANCH  17  18
ENDBRANCH   3  17
TORSDOF 4
ENDMDL
MODEL 4
REMARK VINA RESULT:      -8.4      3.901      8.508
REMARK  Name = 
REMARK  4 active torsions:
REMARK  status: ('A' for Active; 'I' for Inactive)
REMARK    1  A    between atoms: C_2  and  C_16
REMARK    2  A    between atoms: N_3  and  C_4
REMARK    3  A    between atoms: C_4  and  C_5
REMARK    4  A    between atoms: N_9  and  C_10
REMARK                            x       y       z     vdW  Elec       q    Type
REMARK                         _______ _______ _______ _____ _____    ______ ____
ROOT
ATOM      1  O   UNL     1       1.681   9.328  17.403  0.00  0.00    +0.000 OA
ATOM      2  C   UNL     1       1.855   8.835  18.512  0.00  0.00    +0.000 C 
ATOM      3  N   UNL     1       2.626   7.711  18.701  0.00  0.00    +0.000 N 
ATOM      4  H   UNL     1       2.888   7.427  19.645  0.00  0.00    +0.000 HD
ENDROOT
BRANCH   2   5
ATOM      5  C   UNL     1       1.188   9.386  19.729  0.00  0.00    +0.000 A 
ATOM      6  C   UNL     1       0.704  10.644  19.676  0.00  0.00    +0.000 A 
ATOM      7  C   UNL     1      -0.076  11.216  20.761  0.00  0.00    +0.000 A 
ATOM      8  C   UNL     1      -0.368  10.459  21.835  0.00  0.00    +0.000 A 
ATOM      9  N   UNL     1       0.143   9.185  21.923  0.00  0.00    +0.000 N 
ATOM     10  C   UNL     1       0.958   8.607  20.977  0.00  0.00    +0.000 A 
ATOM     11  O   UNL     1       1.460   7.499  21.158  0.00  0.00    +0.000 OA
ATOM     12  C   UNL     1      -1.206  10.955  22.986  0.00  0.00    +0.000 C 
ATOM     13  C   UNL     1      -1.324  12.481  23.006  0.00  0.00    +0.000 C 
ATOM     14  C   UNL     1      -1.652  13.014  21.616  0.00  0.00    +0.000 C 
ATOM     15  C   UNL     1      -0.559  12.636  20.610  0.00  0.00    +0.000 C 
ATOM     16  H   UNL     1      -0.030   8.624  22.748  0.00  0.00    +0.000 HD
ENDBRANCH   2   5
BRANCH   3  17
ATOM     17  C   UNL     1       3.259   7.054  17.578  0.00  0.00    +0.000 C 
BRANCH  17  18
ATOM     18  C   UNL     1       4.337   6.113  18.009  0.00  0.00    +0.000 A 
ATOM     19  N   UNL     1       5.637   6.322  17.899  0.00  0.00    +0.000 NA
ATOM     20  N   UNL     1       6.300   5.332  18.575  0.00  0.00    +0.000 NA
ATOM     21  C   UNL     1       5.396   4.529  19.089  0.00  0.00    +0.000 A 
ATOM     22  N   UNL     1       4.136   4.938  18.732  0.00  0.00    +0.000 N 
BRANCH  22  23
ATOM     23  C   UNL     1       2.922   4.302  19.111  0.00  0.00    +0.000 A 
ATOM     24  C   UNL     1       2.179   3.596  18.153  0.00  0.00    +0.000 A 
ATOM     25  C   UNL     1       1.078   2.833  18.550  0.00  0.00    +0.000 A 
ATOM     26  C   UNL     1       0.692   2.803  19.889  0.00  0.00    +0.000 A 
ATOM     27  C   UNL     1       1.379   3.570  20.827  0.00  0.00    +0.000 A 
ATOM     28  C   UNL     1       2.482   4.326  20.438  0.00  0.00    +0.000 A 
ENDBRANCH  22  23
ENDBRANCH  17  18
ENDBRANCH   3  17
TORSDOF 4
ENDMDL
MODEL 5
REMARK VINA RESULT:      -8.3      2.549      7.093
REMARK  Name = 
REMARK  4 active torsions:
REMARK  status: ('A' for Active; 'I' for Inactive)
REMARK    1  A    between atoms: C_2  and  C_16
REMARK    2  A    between atoms: N_3  and  C_4
REMARK    3  A    between atoms: C_4  and  C_5
REMARK    4  A    between atoms: N_9  and  C_10
REMARK                            x       y       z     vdW  Elec       q    Type
REMARK                         _______ _______ _______ _____ _____    ______ ____
ROOT
ATOM      1  O   UNL     1       2.272   3.662  17.939  0.00  0.00    +0.000 OA
ATOM      2  C   UNL     1       2.975   4.666  17.971  0.00  0.00    +0.000 C 
ATOM      3  N   UNL     1       4.199   4.723  17.346  0.00  0.00    +0.000 N 
ATOM      4  H   UNL     1       4.680   5.618  17.248  0.00  0.00    +0.000 HD
ENDROOT
BRANCH   2   5
ATOM      5  C   UNL     1       2.577   5.879  18.747  0.00  0.00    +0.000 A 
ATOM      6  C   UNL     1       2.418   7.039  18.079  0.00  0.00    +0.000 A 
ATOM      7  C   UNL     1       1.904   8.236  18.723  0.00  0.00    +0.000 A 
ATOM      8  C   UNL     1       1.531   8.182  20.015  0.00  0.00    +0.000 A 
ATOM      9  N   UNL     1       1.715   7.017  20.723  0.00  0.00    +0.000 N 
ATOM     10  C   UNL     1       2.273   5.871  20.205  0.00  0.00    +0.000 A 
ATOM     11  O   UNL     1       2.498   4.893  20.915  0.00  0.00    +0.000 OA
ATOM     12  C   UNL     1       0.949   9.361  20.752  0.00  0.00    +0.000 C 
ATOM     13  C   UNL     1       1.215  10.686  20.034  0.00  0.00    +0.000 C 
ATOM     14  C   UNL     1       0.907  10.564  18.546  0.00  0.00    +0.000 C 
ATOM     15  C   UNL     1       1.777   9.486  17.891  0.00  0.00    +0.000 C 
ATOM     16  H   UNL     1       1.483   6.979  21.708  0.00  0.00    +0.000 HD
ENDBRANCH   2   5
BRANCH   3  17
ATOM     17  C   UNL     1       4.714   3.578  16.627  0.00  0.00    +0.000 C 
BRANCH  17  18
ATOM     18  C   UNL     1       5.679   3.971  15.556  0.00  0.00    +0.000 A 
ATOM     19  N   UNL     1       5.627   3.595  14.290  0.00  0.00    +0.000 NA
ATOM     20  N   UNL     1       6.557   4.308  13.581  0.00  0.00    +0.000 NA
ATOM     21  C   UNL     1       7.168   5.111  14.424  0.00  0.00    +0.000 A 
ATOM     22  N   UNL     1       6.693   4.918  15.696  0.00  0.00    +0.000 N 
BRANCH  22  23
ATOM     23  C   UNL     1       7.130   5.615  16.856  0.00  0.00    +0.000 A 
ATOM     24  C   UNL     1       7.546   4.894  17.985  0.00  0.00    +0.000 A 
ATOM     25  C   UNL     1       8.130   5.564  19.062  0.00  0.00    +0.000 A 
ATOM     26  C   UNL     1       8.264   6.951  19.035  0.00  0.00    +0.000 A 
ATOM     27  C   UNL     1       7.774   7.676  17.951  0.00  0.00    +0.000 A 
ATOM     28  C   UNL     1       7.199   7.012  16.871  0.00  0.00    +0.000 A 
ENDBRANCH  22  23
ENDBRANCH  17  18
ENDBRANCH   3  17
TORSDOF 4
ENDMDL
MODEL 6
REMARK VINA RESULT:      -8.2      3.591      7.813
REMARK  Name = 
REMARK  4 active torsions:
REMARK  status: ('A' for Active; 'I' for Inactive)
REMARK    1  A    between atoms: C_2  and  C_16
REMARK    2  A    between atoms: N_3  and  C_4
REMARK    3  A    between atoms: C_4  and  C_5
REMARK    4  A    between atoms: N_9  and  C_10
REMARK                            x       y       z     vdW  Elec       q    Type
REMARK                         _______ _______ _______ _____ _____    ______ ____
ROOT
ATOM      1  O   UNL     1       1.280   7.583  21.279  0.00  0.00    +0.000 OA
ATOM      2  C   UNL     1       1.630   7.914  20.151  0.00  0.00    +0.000 C 
ATOM      3  N   UNL     1       2.371   7.084  19.342  0.00  0.00    +0.000 N 
ATOM      4  H   UNL     1       2.501   7.316  18.357  0.00  0.00    +0.000 HD
ENDROOT
BRANCH   2   5
ATOM      5  C   UNL     1       1.327   9.269  19.601  0.00  0.00    +0.000 A 
ATOM      6  C   UNL     1       0.707  10.158  20.403  0.00  0.00    +0.000 A 
ATOM      7  C   UNL     1       0.493  11.539  20.002  0.00  0.00    +0.000 A 
ATOM      8  C   UNL     1       0.965  11.963  18.816  0.00  0.00    +0.000 A 
ATOM      9  N   UNL     1       1.572  11.064  17.970  0.00  0.00    +0.000 N 
ATOM     10  C   UNL     1       1.734   9.725  18.243  0.00  0.00    +0.000 A 
ATOM     11  O   UNL     1       2.199   8.954  17.406  0.00  0.00    +0.000 OA
ATOM     12  C   UNL     1       0.826  13.386  18.337  0.00  0.00    +0.000 C 
ATOM     13  C   UNL     1      -0.238  14.162  19.117  0.00  0.00    +0.000 C 
ATOM     14  C   UNL     1      -0.080  13.935  20.617  0.00  0.00    +0.000 C 
ATOM     15  C   UNL     1      -0.224  12.450  20.967  0.00  0.00    +0.000 C 
ATOM     16  H   UNL     1       1.887  11.361  17.054  0.00  0.00    +0.000 HD
ENDBRANCH   2   5
BRANCH   3  17
ATOM     17  C   UNL     1       2.781   5.776  19.806  0.00  0.00    +0.000 C 
BRANCH  17  18
ATOM     18  C   UNL     1       3.085   4.846  18.676  0.00  0.00    +0.000 A 
ATOM     19  N   UNL     1       2.244   3.983  18.136  0.00  0.00    +0.000 NA
ATOM     20  N   UNL     1       2.818   3.455  17.009  0.00  0.00    +0.000 NA
ATOM     21  C   UNL     1       4.005   4.002  16.876  0.00  0.00    +0.000 A 
ATOM     22  N   UNL     1       4.257   4.857  17.919  0.00  0.00    +0.000 N 
BRANCH  22  23
ATOM     23  C   UNL     1       5.445   5.618  18.097  0.00  0.00    +0.000 A 
ATOM     24  C   UNL     1       6.372   5.240  19.080  0.00  0.00    +0.000 A 
ATOM     25  C   UNL     1       7.612   5.878  19.149  0.00  0.00    +0.000 A 
ATOM     26  C   UNL     1       7.915   6.917  18.270  0.00  0.00    +0.000 A 
ATOM     27  C   UNL     1       6.963   7.349  17.349  0.00  0.00    +0.000 A 
ATOM     28  C   UNL     1       5.729   6.709  17.271  0.00  0.00    +0.000 A 
ENDBRANCH  22  23
ENDBRANCH  17  18
ENDBRANCH   3  17
TORSDOF 4
ENDMDL
MODEL 7
REMARK VINA RESULT:      -8.2      4.761      7.555
REMARK  Name = 
REMARK  4 active torsions:
REMARK  status: ('A' for Active; 'I' for Inactive)
REMARK    1  A    between atoms: C_2  and  C_16
REMARK    2  A    between atoms: N_3  and  C_4
REMARK    3  A    between atoms: C_4  and  C_5
REMARK    4  A    between atoms: N_9  and  C_10
REMARK                            x       y       z     vdW  Elec       q    Type
REMARK                         _______ _______ _______ _____ _____    ______ ____
ROOT
ATOM      1  O   UNL     1       1.551   8.328  22.010  0.00  0.00    +0.000 OA
ATOM      2  C   UNL     1       1.406   8.276  20.794  0.00  0.00    +0.000 C 
ATOM      3  N   UNL     1       0.771   9.273  20.088  0.00  0.00    +0.000 N 
ATOM      4  H   UNL     1       0.815   9.282  19.069  0.00  0.00    +0.000 HD
ENDROOT
BRANCH   2   5
ATOM      5  C   UNL     1       1.852   7.092  20.000  0.00  0.00    +0.000 A 
ATOM      6  C   UNL     1       1.630   5.864  20.509  0.00  0.00    +0.000 A 
ATOM      7  C   UNL     1       1.907   4.654  19.752  0.00  0.00    +0.000 A 
ATOM      8  C   UNL     1       2.355   4.754  18.487  0.00  0.00    +0.000 A 
ATOM      9  N   UNL     1       2.618   5.997  17.961  0.00  0.00    +0.000 N 
ATOM     10  C   UNL     1       2.462   7.181  18.645  0.00  0.00    +0.000 A 
ATOM     11  O   UNL     1       2.805   8.254  18.150  0.00  0.00    +0.000 OA
ATOM     12  C   UNL     1       2.628   3.555  17.615  0.00  0.00    +0.000 C 
ATOM     13  C   UNL     1       2.748   2.261  18.423  0.00  0.00    +0.000 C 
ATOM     14  C   UNL     1       1.614   2.151  19.436  0.00  0.00    +0.000 C 
ATOM     15  C   UNL     1       1.637   3.328  20.418  0.00  0.00    +0.000 C 
ATOM     16  H   UNL     1       3.002   6.083  17.027  0.00  0.00    +0.000 HD
ENDBRANCH   2   5
BRANCH   3  17
ATOM     17  C   UNL     1       0.235  10.431  20.770  0.00  0.00    +0.000 C 
BRANCH  17  18
ATOM     18  C   UNL     1       0.445  11.690  19.992  0.00  0.00    +0.000 A 
ATOM     19  N   UNL     1       1.482  12.502  20.097  0.00  0.00    +0.000 NA
ATOM     20  N   UNL     1       1.415  13.433  19.095  0.00  0.00    +0.000 NA
ATOM     21  C   UNL     1       0.335  13.180  18.390  0.00  0.00    +0.000 A 
ATOM     22  N   UNL     1      -0.349  12.119  18.929  0.00  0.00    +0.000 N 
BRANCH  22  23
ATOM     23  C   UNL     1      -1.561  11.575  18.424  0.00  0.00    +0.000 A 
ATOM     24  C   UNL     1      -1.520  10.484  17.543  0.00  0.00    +0.000 A 
ATOM     25  C   UNL     1      -2.704   9.842  17.175  0.00  0.00    +0.000 A 
ATOM     26  C   UNL     1      -3.930  10.307  17.647  0.00  0.00    +0.000 A 
ATOM     27  C   UNL     1      -3.979  11.442  18.454  0.00  0.00    +0.000 A 
ATOM     28  C   UNL     1      -2.800  12.080  18.831  0.00  0.00    +0.000 A 
ENDBRANCH  22  23
ENDBRANCH  17  18
ENDBRANCH   3  17
TORSDOF 4
ENDMDL
MODEL 8
REMARK VINA RESULT:      -8.2      3.463      8.572
REMARK  Name = 
REMARK  4 active torsions:
REMARK  status: ('A' for Active; 'I' for Inactive)
REMARK    1  A    between atoms: C_2  and  C_16
REMARK    2  A    between atoms: N_3  and  C_4
REMARK    3  A    between atoms: C_4  and  C_5
REMARK    4  A    between atoms: N_9  and  C_10
REMARK                            x       y       z     vdW  Elec       q    Type
REMARK                         _______ _______ _______ _____ _____    ______ ____
ROOT
ATOM      1  O   UNL     1       1.821   9.200  17.574  0.00  0.00    +0.000 OA
ATOM      2  C   UNL     1       1.827   8.662  18.676  0.00  0.00    +0.000 C 
ATOM      3  N   UNL     1       2.404   7.430  18.886  0.00  0.00    +0.000 N 
ATOM      4  H   UNL     1       2.542   7.088  19.837  0.00  0.00    +0.000 HD
ENDROOT
BRANCH   2   5
ATOM      5  C   UNL     1       1.150   9.279  19.855  0.00  0.00    +0.000 A 
ATOM      6  C   UNL     1       0.742  10.560  19.757  0.00  0.00    +0.000 A 
ATOM      7  C   UNL     1      -0.043  11.202  20.799  0.00  0.00    +0.000 A 
ATOM      8  C   UNL     1      -0.416  10.489  21.877  0.00  0.00    +0.000 A 
ATOM      9  N   UNL     1       0.017   9.191  22.012  0.00  0.00    +0.000 N 
ATOM     10  C   UNL     1       0.830   8.544  21.110  0.00  0.00    +0.000 A 
ATOM     11  O   UNL     1       1.261   7.414  21.335  0.00  0.00    +0.000 OA
ATOM     12  C   UNL     1      -1.264  11.060  22.985  0.00  0.00    +0.000 C 
ATOM     13  C   UNL     1      -1.296  12.590  22.967  0.00  0.00    +0.000 C 
ATOM     14  C   UNL     1      -1.542  13.107  21.554  0.00  0.00    +0.000 C 
ATOM     15  C   UNL     1      -0.437  12.643  20.598  0.00  0.00    +0.000 C 
ATOM     16  H   UNL     1      -0.218   8.661  22.843  0.00  0.00    +0.000 HD
ENDBRANCH   2   5
BRANCH   3  17
ATOM     17  C   UNL     1       3.025   6.711  17.794  0.00  0.00    +0.000 C 
BRANCH  17  18
ATOM     18  C   UNL     1       2.694   5.254  17.819  0.00  0.00    +0.000 A 
ATOM     19  N   UNL     1       1.513   4.732  18.094  0.00  0.00    +0.000 NA
ATOM     20  N   UNL     1       1.551   3.389  17.827  0.00  0.00    +0.000 NA
ATOM     21  C   UNL     1       2.759   3.106  17.394  0.00  0.00    +0.000 A 
ATOM     22  N   UNL     1       3.546   4.230  17.406  0.00  0.00    +0.000 N 
BRANCH  22  23
ATOM     23  C   UNL     1       4.909   4.289  17.003  0.00  0.00    +0.000 A 
ATOM     24  C   UNL     1       5.233   4.239  15.639  0.00  0.00    +0.000 A 
ATOM     25  C   UNL     1       6.550   4.463  15.229  0.00  0.00    +0.000 A 
ATOM     26  C   UNL     1       7.548   4.694  16.173  0.00  0.00    +0.000 A 
ATOM     27  C   UNL     1       7.242   4.660  17.532  0.00  0.00    +0.000 A 
ATOM     28  C   UNL     1       5.930   4.446  17.946  0.00  0.00    +0.000 A 
ENDBRANCH  22  23
ENDBRANCH  17  18
ENDBRANCH   3  17
TORSDOF 4
ENDMDL
MODEL 9
REMARK VINA RESULT:      -8.1      4.879      7.828
REMARK  Name = 
REMARK  4 active torsions:
REMARK  status: ('A' for Active; 'I' for Inactive)
REMARK    1  A    between atoms: C_2  and  C_16
REMARK    2  A    between atoms: N_3  and  C_4
REMARK    3  A    between atoms: C_4  and  C_5
REMARK    4  A    between atoms: N_9  and  C_10
REMARK                            x       y       z     vdW  Elec       q    Type
REMARK                         _______ _______ _______ _____ _____    ______ ____
ROOT
ATOM      1  O   UNL     1       1.773   8.807  22.104  0.00  0.00    +0.000 OA
ATOM      2  C   UNL     1       1.334   8.556  20.987  0.00  0.00    +0.000 C 
ATOM      3  N   UNL     1       0.389   9.349  20.376  0.00  0.00    +0.000 N 
ATOM      4  H   UNL     1       0.171   9.211  19.389  0.00  0.00    +0.000 HD
ENDROOT
BRANCH   2   5
ATOM      5  C   UNL     1       1.750   7.334  20.237  0.00  0.00    +0.000 A 
ATOM      6  C   UNL     1       1.521   6.131  20.802  0.00  0.00    +0.000 A 
ATOM      7  C   UNL     1       1.767   4.887  20.092  0.00  0.00    +0.000 A 
ATOM      8  C   UNL     1       2.195   4.927  18.817  0.00  0.00    +0.000 A 
ATOM      9  N   UNL     1       2.466   6.143  18.233  0.00  0.00    +0.000 N 
ATOM     10  C   UNL     1       2.338   7.357  18.869  0.00  0.00    +0.000 A 
ATOM     11  O   UNL     1       2.687   8.403  18.324  0.00  0.00    +0.000 OA
ATOM     12  C   UNL     1       2.436   3.689  17.991  0.00  0.00    +0.000 C 
ATOM     13  C   UNL     1       2.552   2.428  18.852  0.00  0.00    +0.000 C 
ATOM     14  C   UNL     1       1.435   2.378  19.888  0.00  0.00    +0.000 C 
ATOM     15  C   UNL     1       1.491   3.594  20.818  0.00  0.00    +0.000 C 
ATOM     16  H   UNL     1       2.834   6.183  17.291  0.00  0.00    +0.000 HD
ENDBRANCH   2   5
BRANCH   3  17
ATOM     17  C   UNL     1      -0.137  10.518  21.047  0.00  0.00    +0.000 C 
BRANCH  17  18
ATOM     18  C   UNL     1       0.049  11.762  20.240  0.00  0.00    +0.000 A 
ATOM     19  N   UNL     1       1.029  12.637  20.380  0.00  0.00    +0.000 NA
ATOM     20  N   UNL     1       0.973  13.530  19.344  0.00  0.00    +0.000 NA
ATOM     21  C   UNL     1      -0.043  13.191  18.583  0.00  0.00    +0.000 A 
ATOM     22  N   UNL     1      -0.698  12.109  19.115  0.00  0.00    +0.000 N 
BRANCH  22  23
ATOM     23  C   UNL     1      -1.842  11.478  18.554  0.00  0.00    +0.000 A 
ATOM     24  C   UNL     1      -3.122  11.977  18.841  0.00  0.00    +0.000 A 
ATOM     25  C   UNL     1      -4.234  11.469  18.165  0.00  0.00    +0.000 A 
ATOM     26  C   UNL     1      -4.081  10.440  17.239  0.00  0.00    +0.000 A 
ATOM     27  C   UNL     1      -2.822   9.886  17.016  0.00  0.00    +0.000 A 
ATOM     28  C   UNL     1      -1.709  10.395  17.680  0.00  0.00    +0.000 A 
ENDBRANCH  22  23
ENDBRANCH  17  18
ENDBRANCH   3  17
TORSDOF 4
ENDMDL
