MODEL 1
REMARK VINA RESULT:      -7.6      0.000      0.000
REMARK  Name = 
REMARK  9 active torsions:
REMARK  status: ('A' for Active; 'I' for Inactive)
REMARK    1  A    between atoms: C_1  and  N_2
REMARK    2  A    between atoms: C_6  and  C_7
REMARK    3  A    between atoms: C_7  and  C_8
REMARK    4  A    between atoms: C_8  and  C_9
REMARK    5  A    between atoms: C_11  and  C_12
REMARK    6  A    between atoms: C_12  and  C_13
REMARK    7  A    between atoms: C_13  and  O_14
REMARK    8  A    between atoms: C_16  and  N_17
REMARK    9  A    between atoms: C_24  and  C_25
REMARK                            x       y       z     vdW  Elec       q    Type
REMARK                         _______ _______ _______ _____ _____    ______ ____
ROOT
ATOM      1  C   UNL     1       2.438   6.362  18.647  0.00  0.00    +0.000 A 
ATOM      2  C   UNL     1       1.402   5.500  19.047  0.00  0.00    +0.000 A 
ATOM      3  C   UNL     1       1.643   4.428  19.911  0.00  0.00    +0.000 A 
ATOM      4  C   UNL     1       2.940   4.243  20.391  0.00  0.00    +0.000 A 
ATOM      5  C   UNL     1       4.004   4.868  19.725  0.00  0.00    +0.000 A 
ATOM      6  C   UNL     1       3.755   6.026  18.981  0.00  0.00    +0.000 A 
ENDROOT
BRANCH   5   7
ATOM      7  N   UNL     1       5.149   4.031  19.350  0.00  0.00    +0.000 N 
ATOM      8  C   UNL     1       6.368   4.866  19.155  0.00  0.00    +0.000 C 
ATOM      9  C   UNL     1       6.316   5.176  17.685  0.00  0.00    +0.000 A 
ATOM     10  C   UNL     1       5.576   4.167  17.066  0.00  0.00    +0.000 A 
ATOM     11  C   UNL     1       5.159   4.246  15.748  0.00  0.00    +0.000 A 
ATOM     12  C   UNL     1       5.511   5.388  15.030  0.00  0.00    +0.000 A 
ATOM     13  C   UNL     1       6.277   6.402  15.634  0.00  0.00    +0.000 A 
ATOM     14  C   UNL     1       6.707   6.309  16.976  0.00  0.00    +0.000 A 
ATOM     15  C   UNL     1       4.992   3.315  18.130  0.00  0.00    +0.000 C 
ATOM     16  O   UNL     1       4.312   2.328  17.911  0.00  0.00    +0.000 OA
BRANCH  14  17
ATOM     17  C   UNL     1       7.478   7.451  17.588  0.00  0.00    +0.000 C 
ATOM     18  F   UNL     1       8.147   7.120  18.725  0.00  0.00    +0.000 F 
ATOM     19  F   UNL     1       8.419   7.945  16.736  0.00  0.00    +0.000 F 
ATOM     20  F   UNL     1       6.678   8.503  17.914  0.00  0.00    +0.000 F 
ENDBRANCH  14  17
ENDBRANCH   5   7
BRANCH   1  21
ATOM     21  C   UNL     1       2.159   7.499  17.687  0.00  0.00    +0.000 C 
BRANCH  21  22
ATOM     22  C   UNL     1       2.382   8.877  18.319  0.00  0.00    +0.000 C 
BRANCH  22  28
ATOM     23  C   UNL     1       1.350   8.633  21.218  0.00  0.00    +0.000 C 
ATOM     24  N   UNL     1       0.687   9.319  20.144  0.00  0.00    +0.000 N 
ATOM     25  C   UNL     1      -0.505   9.967  20.219  0.00  0.00    +0.000 A 
ATOM     26  N   UNL     1      -0.799  10.482  19.049  0.00  0.00    +0.000 NA
ATOM     27  N   UNL     1       0.225  10.166  18.188  0.00  0.00    +0.000 NA
ATOM     28  C   UNL     1       1.117   9.454  18.850  0.00  0.00    +0.000 A 
ENDBRANCH  22  28
ENDBRANCH  21  22
ENDBRANCH   1  21
BRANCH   3  29
ATOM     29  C   UNL     1       0.613   3.320  20.041  0.00  0.00    +0.000 C 
BRANCH  29  30
ATOM     30  C   UNL     1       0.502   2.329  18.882  0.00  0.00    +0.000 C 
BRANCH  30  31
ATOM     31  O   UNL     1       1.723   1.621  18.712  0.00  0.00    +0.000 OA
ATOM     32  H   UNL     1       1.546   0.692  18.940  0.00  0.00    +0.000 HD
ENDBRANCH  30  31
ENDBRANCH  29  30
ENDBRANCH   3  29
TORSDOF 8
ENDMDL
MODEL 2
REMARK VINA RESULT:      -7.5      7.292     10.578
REMARK  Name = 
REMARK  9 active torsions:
REMARK  status: ('A' for Active; 'I' for Inactive)
REMARK    1  A    between atoms: C_1  and  N_2
REMARK    2  A    between atoms: C_6  and  C_7
REMARK    3  A    between atoms: C_7  and  C_8
REMARK    4  A    between atoms: C_8  and  C_9
REMARK    5  A    between atoms: C_11  and  C_12
REMARK    6  A    between atoms: C_12  and  C_13
REMARK    7  A    between atoms: C_13  and  O_14
REMARK    8  A    between atoms: C_16  and  N_17
REMARK    9  A    between atoms: C_24  and  C_25
REMARK                            x       y       z     vdW  Elec       q    Type
REMARK                         _______ _______ _______ _____ _____    ______ ____
ROOT
ATOM      1  C   UNL     1       9.515  10.968  18.965  0.00  0.00    +0.000 A 
ATOM      2  C   UNL     1      10.592  11.558  18.280  0.00  0.00    +0.000 A 
ATOM      3  C   UNL     1      11.422  12.496  18.902  0.00  0.00    +0.000 A 
ATOM      4  C   UNL     1      11.169  12.821  20.235  0.00  0.00    +0.000 A 
ATOM      5  C   UNL     1       9.916  12.512  20.782  0.00  0.00    +0.000 A 
ATOM      6  C   UNL     1       9.169  11.469  20.226  0.00  0.00    +0.000 A 
ENDROOT
BRANCH   5   7
ATOM      7  N   UNL     1       9.201  13.586  21.479  0.00  0.00    +0.000 N 
ATOM      8  C   UNL     1       7.894  13.862  20.818  0.00  0.00    +0.000 C 
ATOM      9  C   UNL     1       8.248  14.948  19.841  0.00  0.00    +0.000 A 
ATOM     10  C   UNL     1       9.382  15.600  20.327  0.00  0.00    +0.000 A 
ATOM     11  C   UNL     1      10.097  16.518  19.576  0.00  0.00    +0.000 A 
ATOM     12  C   UNL     1       9.642  16.787  18.286  0.00  0.00    +0.000 A 
ATOM     13  C   UNL     1       8.486  16.154  17.792  0.00  0.00    +0.000 A 
ATOM     14  C   UNL     1       7.757  15.227  18.568  0.00  0.00    +0.000 A 
ATOM     15  C   UNL     1       9.876  14.839  21.500  0.00  0.00    +0.000 C 
ATOM     16  O   UNL     1      10.841  15.170  22.166  0.00  0.00    +0.000 OA
BRANCH  14  17
ATOM     17  C   UNL     1       6.559  14.539  17.967  0.00  0.00    +0.000 C 
ATOM     18  F   UNL     1       5.985  15.223  16.941  0.00  0.00    +0.000 F 
ATOM     19  F   UNL     1       6.873  13.313  17.463  0.00  0.00    +0.000 F 
ATOM     20  F   UNL     1       5.569  14.328  18.877  0.00  0.00    +0.000 F 
ENDBRANCH  14  17
ENDBRANCH   5   7
BRANCH   1  21
ATOM     21  C   UNL     1       8.613   9.977  18.262  0.00  0.00    +0.000 C 
BRANCH  21  22
ATOM     22  C   UNL     1       8.684   8.573  18.874  0.00  0.00    +0.000 C 
BRANCH  22  28
ATOM     23  C   UNL     1       8.057   5.667  19.703  0.00  0.00    +0.000 C 
ATOM     24  N   UNL     1       7.670   6.291  18.469  0.00  0.00    +0.000 N 
ATOM     25  C   UNL     1       6.973   5.711  17.457  0.00  0.00    +0.000 A 
ATOM     26  N   UNL     1       6.794   6.579  16.491  0.00  0.00    +0.000 NA
ATOM     27  N   UNL     1       7.386   7.758  16.879  0.00  0.00    +0.000 NA
ATOM     28  C   UNL     1       7.924   7.578  18.070  0.00  0.00    +0.000 A 
ENDBRANCH  22  28
ENDBRANCH  21  22
ENDBRANCH   1  21
BRANCH   3  29
ATOM     29  C   UNL     1      12.333  13.369  18.060  0.00  0.00    +0.000 C 
BRANCH  29  30
ATOM     30  C   UNL     1      11.757  13.932  16.759  0.00  0.00    +0.000 C 
BRANCH  30  31
ATOM     31  O   UNL     1      12.257  13.212  15.640  0.00  0.00    +0.000 OA
ATOM     32  H   UNL     1      11.652  13.388  14.898  0.00  0.00    +0.000 HD
ENDBRANCH  30  31
ENDBRANCH  29  30
ENDBRANCH   3  29
TORSDOF 8
ENDMDL
MODEL 3
REMARK VINA RESULT:      -7.4      3.959      7.495
REMARK  Name = 
REMARK  9 active torsions:
REMARK  status: ('A' for Active; 'I' for Inactive)
REMARK    1  A    between atoms: C_1  and  N_2
REMARK    2  A    between atoms: C_6  and  C_7
REMARK    3  A    between atoms: C_7  and  C_8
REMARK    4  A    between atoms: C_8  and  C_9
REMARK    5  A    between atoms: C_11  and  C_12
REMARK    6  A    between atoms: C_12  and  C_13
REMARK    7  A    between atoms: C_13  and  O_14
REMARK    8  A    between atoms: C_16  and  N_17
REMARK    9  A    between atoms: C_24  and  C_25
REMARK                            x       y       z     vdW  Elec       q    Type
REMARK                         _______ _______ _______ _____ _____    ______ ____
ROOT
ATOM      1  C   UNL     1       6.213   4.226  17.195  0.00  0.00    +0.000 A 
ATOM      2  C   UNL     1       7.311   5.071  17.433  0.00  0.00    +0.000 A 
ATOM      3  C   UNL     1       7.371   5.881  18.571  0.00  0.00    +0.000 A 
ATOM      4  C   UNL     1       6.319   5.816  19.484  0.00  0.00    +0.000 A 
ATOM      5  C   UNL     1       5.098   5.261  19.074  0.00  0.00    +0.000 A 
ATOM      6  C   UNL     1       5.089   4.340  18.022  0.00  0.00    +0.000 A 
ENDROOT
BRANCH   5   7
ATOM      7  N   UNL     1       3.883   6.042  19.327  0.00  0.00    +0.000 N 
ATOM      8  C   UNL     1       3.155   5.512  20.514  0.00  0.00    +0.000 C 
ATOM      9  C   UNL     1       2.202   4.527  19.896  0.00  0.00    +0.000 A 
ATOM     10  C   UNL     1       1.990   4.919  18.573  0.00  0.00    +0.000 A 
ATOM     11  C   UNL     1       1.326   4.122  17.654  0.00  0.00    +0.000 A 
ATOM     12  C   UNL     1       0.857   2.886  18.095  0.00  0.00    +0.000 A 
ATOM     13  C   UNL     1       1.043   2.489  19.433  0.00  0.00    +0.000 A 
ATOM     14  C   UNL     1       1.711   3.312  20.366  0.00  0.00    +0.000 A 
ATOM     15  C   UNL     1       2.929   6.025  18.270  0.00  0.00    +0.000 C 
ATOM     16  O   UNL     1       2.973   6.604  17.199  0.00  0.00    +0.000 OA
BRANCH  14  17
ATOM     17  C   UNL     1       1.930   2.811  21.771  0.00  0.00    +0.000 C 
ATOM     18  F   UNL     1       0.853   2.174  22.304  0.00  0.00    +0.000 F 
ATOM     19  F   UNL     1       2.958   1.922  21.842  0.00  0.00    +0.000 F 
ATOM     20  F   UNL     1       2.241   3.814  22.638  0.00  0.00    +0.000 F 
ENDBRANCH  14  17
ENDBRANCH   5   7
BRANCH   1  21
ATOM     21  C   UNL     1       6.157   3.380  15.941  0.00  0.00    +0.000 C 
BRANCH  21  22
ATOM     22  C   UNL     1       5.503   4.109  14.762  0.00  0.00    +0.000 C 
BRANCH  22  28
ATOM     23  C   UNL     1       5.830   2.984  11.907  0.00  0.00    +0.000 C 
ATOM     24  N   UNL     1       6.628   4.022  12.498  0.00  0.00    +0.000 N 
ATOM     25  C   UNL     1       7.662   4.676  11.908  0.00  0.00    +0.000 A 
ATOM     26  N   UNL     1       8.154   5.563  12.741  0.00  0.00    +0.000 NA
ATOM     27  N   UNL     1       7.423   5.489  13.903  0.00  0.00    +0.000 NA
ATOM     28  C   UNL     1       6.508   4.550  13.757  0.00  0.00    +0.000 A 
ENDBRANCH  22  28
ENDBRANCH  21  22
ENDBRANCH   1  21
BRANCH   3  29
ATOM     29  C   UNL     1       8.366   7.026  18.629  0.00  0.00    +0.000 C 
BRANCH  29  30
ATOM     30  C   UNL     1       8.019   8.294  17.848  0.00  0.00    +0.000 C 
BRANCH  30  31
ATOM     31  O   UNL     1       6.927   8.057  16.970  0.00  0.00    +0.000 OA
ATOM     32  H   UNL     1       6.201   8.638  17.258  0.00  0.00    +0.000 HD
ENDBRANCH  30  31
ENDBRANCH  29  30
ENDBRANCH   3  29
TORSDOF 8
ENDMDL
MODEL 4
REMARK VINA RESULT:      -7.3      6.853     10.007
REMARK  Name = 
REMARK  9 active torsions:
REMARK  status: ('A' for Active; 'I' for Inactive)
REMARK    1  A    between atoms: C_1  and  N_2
REMARK    2  A    between atoms: C_6  and  C_7
REMARK    3  A    between atoms: C_7  and  C_8
REMARK    4  A    between atoms: C_8  and  C_9
REMARK    5  A    between atoms: C_11  and  C_12
REMARK    6  A    between atoms: C_12  and  C_13
REMARK    7  A    between atoms: C_13  and  O_14
REMARK    8  A    between atoms: C_16  and  N_17
REMARK    9  A    between atoms: C_24  and  C_25
REMARK                            x       y       z     vdW  Elec       q    Type
REMARK                         _______ _______ _______ _____ _____    ______ ____
ROOT
ATOM      1  C   UNL     1       9.045  10.142  18.264  0.00  0.00    +0.000 A 
ATOM      2  C   UNL     1       8.086  11.081  17.845  0.00  0.00    +0.000 A 
ATOM      3  C   UNL     1       8.425  12.419  17.628  0.00  0.00    +0.000 A 
ATOM      4  C   UNL     1       9.753  12.803  17.816  0.00  0.00    +0.000 A 
ATOM      5  C   UNL     1      10.601  11.969  18.559  0.00  0.00    +0.000 A 
ATOM      6  C   UNL     1      10.312  10.603  18.639  0.00  0.00    +0.000 A 
ENDROOT
BRANCH   5   7
ATOM      7  N   UNL     1      11.367  12.585  19.648  0.00  0.00    +0.000 N 
ATOM      8  C   UNL     1      10.821  12.175  20.972  0.00  0.00    +0.000 C 
ATOM      9  C   UNL     1       9.830  13.266  21.266  0.00  0.00    +0.000 A 
ATOM     10  C   UNL     1      10.228  14.400  20.555  0.00  0.00    +0.000 A 
ATOM     11  C   UNL     1       9.431  15.527  20.434  0.00  0.00    +0.000 A 
ATOM     12  C   UNL     1       8.187  15.504  21.062  0.00  0.00    +0.000 A 
ATOM     13  C   UNL     1       7.783  14.376  21.802  0.00  0.00    +0.000 A 
ATOM     14  C   UNL     1       8.606  13.236  21.928  0.00  0.00    +0.000 A 
ATOM     15  C   UNL     1      11.347  14.008  19.664  0.00  0.00    +0.000 C 
ATOM     16  O   UNL     1      11.935  14.784  18.931  0.00  0.00    +0.000 OA
BRANCH  14  17
ATOM     17  C   UNL     1       8.098  12.037  22.687  0.00  0.00    +0.000 C 
ATOM     18  F   UNL     1       8.238  10.860  22.019  0.00  0.00    +0.000 F 
ATOM     19  F   UNL     1       8.748  11.869  23.871  0.00  0.00    +0.000 F 
ATOM     20  F   UNL     1       6.776  12.138  22.996  0.00  0.00    +0.000 F 
ENDBRANCH  14  17
ENDBRANCH   5   7
BRANCH   1  21
ATOM     21  C   UNL     1       8.648   8.704  18.521  0.00  0.00    +0.000 C 
BRANCH  21  22
ATOM     22  C   UNL     1       7.423   8.273  17.706  0.00  0.00    +0.000 C 
BRANCH  22  28
ATOM     23  C   UNL     1       7.584   5.898  19.670  0.00  0.00    +0.000 C 
ATOM     24  N   UNL     1       7.561   5.803  18.237  0.00  0.00    +0.000 N 
ATOM     25  C   UNL     1       7.615   4.660  17.505  0.00  0.00    +0.000 A 
ATOM     26  N   UNL     1       7.565   4.953  16.228  0.00  0.00    +0.000 NA
ATOM     27  N   UNL     1       7.475   6.321  16.120  0.00  0.00    +0.000 NA
ATOM     28  C   UNL     1       7.483   6.833  17.335  0.00  0.00    +0.000 A 
ENDBRANCH  22  28
ENDBRANCH  21  22
ENDBRANCH   1  21
BRANCH   3  29
ATOM     29  C   UNL     1       7.331  13.467  17.530  0.00  0.00    +0.000 C 
BRANCH  29  30
ATOM     30  C   UNL     1       7.769  14.930  17.451  0.00  0.00    +0.000 C 
BRANCH  30  31
ATOM     31  O   UNL     1       6.736  15.785  17.922  0.00  0.00    +0.000 OA
ATOM     32  H   UNL     1       6.837  15.844  18.889  0.00  0.00    +0.000 HD
ENDBRANCH  30  31
ENDBRANCH  29  30
ENDBRANCH   3  29
TORSDOF 8
ENDMDL
MODEL 5
REMARK VINA RESULT:      -7.3      7.023      9.409
REMARK  Name = 
REMARK  9 active torsions:
REMARK  status: ('A' for Active; 'I' for Inactive)
REMARK    1  A    between atoms: C_1  and  N_2
REMARK    2  A    between atoms: C_6  and  C_7
REMARK    3  A    between atoms: C_7  and  C_8
REMARK    4  A    between atoms: C_8  and  C_9
REMARK    5  A    between atoms: C_11  and  C_12
REMARK    6  A    between atoms: C_12  and  C_13
REMARK    7  A    between atoms: C_13  and  O_14
REMARK    8  A    between atoms: C_16  and  N_17
REMARK    9  A    between atoms: C_24  and  C_25
REMARK                            x       y       z     vdW  Elec       q    Type
REMARK                         _______ _______ _______ _____ _____    ______ ____
ROOT
ATOM      1  C   UNL     1      -4.004  11.406  18.375  0.00  0.00    +0.000 A 
ATOM      2  C   UNL     1      -4.106  11.191  16.990  0.00  0.00    +0.000 A 
ATOM      3  C   UNL     1      -3.080  10.567  16.273  0.00  0.00    +0.000 A 
ATOM      4  C   UNL     1      -1.953  10.138  16.973  0.00  0.00    +0.000 A 
ATOM      5  C   UNL     1      -1.707  10.662  18.251  0.00  0.00    +0.000 A 
ATOM      6  C   UNL     1      -2.780  11.150  19.004  0.00  0.00    +0.000 A 
ENDROOT
BRANCH   5   7
ATOM      7  N   UNL     1      -0.369  11.203  18.511  0.00  0.00    +0.000 N 
ATOM      8  C   UNL     1       0.321  10.412  19.570  0.00  0.00    +0.000 C 
ATOM      9  C   UNL     1      -0.050  11.155  20.823  0.00  0.00    +0.000 A 
ATOM     10  C   UNL     1      -0.342  12.472  20.462  0.00  0.00    +0.000 A 
ATOM     11  C   UNL     1      -0.916  13.378  21.338  0.00  0.00    +0.000 A 
ATOM     12  C   UNL     1      -1.200  12.933  22.629  0.00  0.00    +0.000 A 
ATOM     13  C   UNL     1      -0.889  11.615  23.013  0.00  0.00    +0.000 A 
ATOM     14  C   UNL     1      -0.295  10.700  22.116  0.00  0.00    +0.000 A 
ATOM     15  C   UNL     1      -0.348  12.547  18.981  0.00  0.00    +0.000 C 
ATOM     16  O   UNL     1      -0.544  13.573  18.355  0.00  0.00    +0.000 OA
BRANCH  14  17
ATOM     17  C   UNL     1      -0.035   9.286  22.566  0.00  0.00    +0.000 C 
ATOM     18  F   UNL     1      -0.086   9.116  23.914  0.00  0.00    +0.000 F 
ATOM     19  F   UNL     1      -0.942   8.411  22.049  0.00  0.00    +0.000 F 
ATOM     20  F   UNL     1       1.188   8.832  22.176  0.00  0.00    +0.000 F 
ENDBRANCH  14  17
ENDBRANCH   5   7
BRANCH   1  21
ATOM     21  C   UNL     1      -5.115  12.109  19.125  0.00  0.00    +0.000 C 
BRANCH  21  22
ATOM     22  C   UNL     1      -4.599  12.952  20.297  0.00  0.00    +0.000 C 
BRANCH  22  28
ATOM     23  C   UNL     1      -4.404  14.612  22.890  0.00  0.00    +0.000 C 
ATOM     24  N   UNL     1      -5.304  13.517  22.659  0.00  0.00    +0.000 N 
ATOM     25  C   UNL     1      -6.213  13.023  23.540  0.00  0.00    +0.000 A 
ATOM     26  N   UNL     1      -6.865  12.029  22.987  0.00  0.00    +0.000 NA
ATOM     27  N   UNL     1      -6.374  11.869  21.713  0.00  0.00    +0.000 NA
ATOM     28  C   UNL     1      -5.424  12.763  21.521  0.00  0.00    +0.000 A 
ENDBRANCH  22  28
ENDBRANCH  21  22
ENDBRANCH   1  21
BRANCH   3  29
ATOM     29  C   UNL     1      -3.050  10.668  14.760  0.00  0.00    +0.000 C 
BRANCH  29  30
ATOM     30  C   UNL     1      -3.540   9.455  13.968  0.00  0.00    +0.000 C 
BRANCH  30  31
ATOM     31  O   UNL     1      -4.866   9.667  13.501  0.00  0.00    +0.000 OA
ATOM     32  H   UNL     1      -4.817  10.348  12.808  0.00  0.00    +0.000 HD
ENDBRANCH  30  31
ENDBRANCH  29  30
ENDBRANCH   3  29
TORSDOF 8
ENDMDL
MODEL 6
REMARK VINA RESULT:      -7.3      0.534      1.285
REMARK  Name = 
REMARK  9 active torsions:
REMARK  status: ('A' for Active; 'I' for Inactive)
REMARK    1  A    between atoms: C_1  and  N_2
REMARK    2  A    between atoms: C_6  and  C_7
REMARK    3  A    between atoms: C_7  and  C_8
REMARK    4  A    between atoms: C_8  and  C_9
REMARK    5  A    between atoms: C_11  and  C_12
REMARK    6  A    between atoms: C_12  and  C_13
REMARK    7  A    between atoms: C_13  and  O_14
REMARK    8  A    between atoms: C_16  and  N_17
REMARK    9  A    between atoms: C_24  and  C_25
REMARK                            x       y       z     vdW  Elec       q    Type
REMARK                         _______ _______ _______ _____ _____    ______ ____
ROOT
ATOM      1  C   UNL     1       2.442   6.367  18.692  0.00  0.00    +0.000 A 
ATOM      2  C   UNL     1       1.402   5.498  19.065  0.00  0.00    +0.000 A 
ATOM      3  C   UNL     1       1.633   4.404  19.903  0.00  0.00    +0.000 A 
ATOM      4  C   UNL     1       2.927   4.202  20.384  0.00  0.00    +0.000 A 
ATOM      5  C   UNL     1       3.997   4.840  19.740  0.00  0.00    +0.000 A 
ATOM      6  C   UNL     1       3.757   6.017  19.025  0.00  0.00    +0.000 A 
ENDROOT
BRANCH   5   7
ATOM      7  N   UNL     1       5.141   4.008  19.349  0.00  0.00    +0.000 N 
ATOM      8  C   UNL     1       6.356   4.847  19.152  0.00  0.00    +0.000 C 
ATOM      9  C   UNL     1       6.293   5.169  17.685  0.00  0.00    +0.000 A 
ATOM     10  C   UNL     1       5.550   4.163  17.064  0.00  0.00    +0.000 A 
ATOM     11  C   UNL     1       5.123   4.251  15.749  0.00  0.00    +0.000 A 
ATOM     12  C   UNL     1       5.466   5.400  15.038  0.00  0.00    +0.000 A 
ATOM     13  C   UNL     1       6.235   6.411  15.644  0.00  0.00    +0.000 A 
ATOM     14  C   UNL     1       6.675   6.308  16.982  0.00  0.00    +0.000 A 
ATOM     15  C   UNL     1       4.976   3.301  18.125  0.00  0.00    +0.000 C 
ATOM     16  O   UNL     1       4.297   2.314  17.904  0.00  0.00    +0.000 OA
BRANCH  14  17
ATOM     17  C   UNL     1       7.449   7.446  17.596  0.00  0.00    +0.000 C 
ATOM     18  F   UNL     1       8.350   8.020  16.754  0.00  0.00    +0.000 F 
ATOM     19  F   UNL     1       6.633   8.456  18.007  0.00  0.00    +0.000 F 
ATOM     20  F   UNL     1       8.154   7.063  18.696  0.00  0.00    +0.000 F 
ENDBRANCH  14  17
ENDBRANCH   5   7
BRANCH   1  21
ATOM     21  C   UNL     1       2.173   7.529  17.761  0.00  0.00    +0.000 C 
BRANCH  21  22
ATOM     22  C   UNL     1       2.333   8.889  18.448  0.00  0.00    +0.000 C 
BRANCH  22  28
ATOM     23  C   UNL     1      -0.344  10.406  18.216  0.00  0.00    +0.000 C 
ATOM     24  N   UNL     1       0.160   9.768  19.400  0.00  0.00    +0.000 N 
ATOM     25  C   UNL     1      -0.447   9.729  20.615  0.00  0.00    +0.000 A 
ATOM     26  N   UNL     1       0.298   9.055  21.457  0.00  0.00    +0.000 NA
ATOM     27  N   UNL     1       1.419   8.640  20.779  0.00  0.00    +0.000 NA
ATOM     28  C   UNL     1       1.338   9.080  19.538  0.00  0.00    +0.000 A 
ENDBRANCH  22  28
ENDBRANCH  21  22
ENDBRANCH   1  21
BRANCH   3  29
ATOM     29  C   UNL     1       0.599   3.297  19.999  0.00  0.00    +0.000 C 
BRANCH  29  30
ATOM     30  C   UNL     1       0.537   2.296  18.845  0.00  0.00    +0.000 C 
BRANCH  30  31
ATOM     31  O   UNL     1       1.681   1.452  18.854  0.00  0.00    +0.000 OA
ATOM     32  H   UNL     1       1.357   0.538  18.936  0.00  0.00    +0.000 HD
ENDBRANCH  30  31
ENDBRANCH  29  30
ENDBRANCH   3  29
TORSDOF 8
ENDMDL
MODEL 7
REMARK VINA RESULT:      -7.3      3.574      7.266
REMARK  Name = 
REMARK  9 active torsions:
REMARK  status: ('A' for Active; 'I' for Inactive)
REMARK    1  A    between atoms: C_1  and  N_2
REMARK    2  A    between atoms: C_6  and  C_7
REMARK    3  A    between atoms: C_7  and  C_8
REMARK    4  A    between atoms: C_8  and  C_9
REMARK    5  A    between atoms: C_11  and  C_12
REMARK    6  A    between atoms: C_12  and  C_13
REMARK    7  A    between atoms: C_13  and  O_14
REMARK    8  A    between atoms: C_16  and  N_17
REMARK    9  A    between atoms: C_24  and  C_25
REMARK                            x       y       z     vdW  Elec       q    Type
REMARK                         _______ _______ _______ _____ _____    ______ ____
ROOT
ATOM      1  C   UNL     1       5.968   4.079  15.829  0.00  0.00    +0.000 A 
ATOM      2  C   UNL     1       6.423   4.748  16.978  0.00  0.00    +0.000 A 
ATOM      3  C   UNL     1       5.886   4.473  18.240  0.00  0.00    +0.000 A 
ATOM      4  C   UNL     1       4.895   3.496  18.337  0.00  0.00    +0.000 A 
ATOM      5  C   UNL     1       4.214   3.103  17.176  0.00  0.00    +0.000 A 
ATOM      6  C   UNL     1       4.838   3.259  15.935  0.00  0.00    +0.000 A 
ENDROOT
BRANCH   5   7
ATOM      7  N   UNL     1       2.747   3.101  17.224  0.00  0.00    +0.000 N 
ATOM      8  C   UNL     1       2.215   4.483  17.061  0.00  0.00    +0.000 C 
ATOM      9  C   UNL     1       2.101   4.956  18.483  0.00  0.00    +0.000 A 
ATOM     10  C   UNL     1       1.973   3.828  19.294  0.00  0.00    +0.000 A 
ATOM     11  C   UNL     1       2.051   3.886  20.676  0.00  0.00    +0.000 A 
ATOM     12  C   UNL     1       2.262   5.137  21.255  0.00  0.00    +0.000 A 
ATOM     13  C   UNL     1       2.369   6.286  20.450  0.00  0.00    +0.000 A 
ATOM     14  C   UNL     1       2.278   6.219  19.042  0.00  0.00    +0.000 A 
ATOM     15  C   UNL     1       2.189   2.631  18.446  0.00  0.00    +0.000 C 
ATOM     16  O   UNL     1       2.115   1.486  18.856  0.00  0.00    +0.000 OA
BRANCH  14  17
ATOM     17  C   UNL     1       2.456   7.474  18.228  0.00  0.00    +0.000 C 
ATOM     18  F   UNL     1       1.451   7.705  17.341  0.00  0.00    +0.000 F 
ATOM     19  F   UNL     1       2.518   8.586  19.012  0.00  0.00    +0.000 F 
ATOM     20  F   UNL     1       3.606   7.464  17.500  0.00  0.00    +0.000 F 
ENDBRANCH  14  17
ENDBRANCH   5   7
BRANCH   1  21
ATOM     21  C   UNL     1       6.544   4.414  14.470  0.00  0.00    +0.000 C 
BRANCH  21  22
ATOM     22  C   UNL     1       5.522   4.262  13.338  0.00  0.00    +0.000 C 
BRANCH  22  28
ATOM     23  C   UNL     1       3.698   2.945  11.225  0.00  0.00    +0.000 C 
ATOM     24  N   UNL     1       5.088   2.650  11.438  0.00  0.00    +0.000 N 
ATOM     25  C   UNL     1       5.831   1.740  10.755  0.00  0.00    +0.000 A 
ATOM     26  N   UNL     1       7.060   1.743  11.213  0.00  0.00    +0.000 NA
ATOM     27  N   UNL     1       7.125   2.679  12.219  0.00  0.00    +0.000 NA
ATOM     28  C   UNL     1       5.929   3.218  12.359  0.00  0.00    +0.000 A 
ENDBRANCH  22  28
ENDBRANCH  21  22
ENDBRANCH   1  21
BRANCH   3  29
ATOM     29  C   UNL     1       6.126   5.437  19.386  0.00  0.00    +0.000 C 
BRANCH  29  30
ATOM     30  C   UNL     1       7.561   5.917  19.608  0.00  0.00    +0.000 C 
BRANCH  30  31
ATOM     31  O   UNL     1       8.143   5.252  20.721  0.00  0.00    +0.000 OA
ATOM     32  H   UNL     1       7.525   4.549  20.986  0.00  0.00    +0.000 HD
ENDBRANCH  30  31
ENDBRANCH  29  30
ENDBRANCH   3  29
TORSDOF 8
ENDMDL
MODEL 8
REMARK VINA RESULT:      -7.3      0.884      1.133
REMARK  Name = 
REMARK  9 active torsions:
REMARK  status: ('A' for Active; 'I' for Inactive)
REMARK    1  A    between atoms: C_1  and  N_2
REMARK    2  A    between atoms: C_6  and  C_7
REMARK    3  A    between atoms: C_7  and  C_8
REMARK    4  A    between atoms: C_8  and  C_9
REMARK    5  A    between atoms: C_11  and  C_12
REMARK    6  A    between atoms: C_12  and  C_13
REMARK    7  A    between atoms: C_13  and  O_14
REMARK    8  A    between atoms: C_16  and  N_17
REMARK    9  A    between atoms: C_24  and  C_25
REMARK                            x       y       z     vdW  Elec       q    Type
REMARK                         _______ _______ _______ _____ _____    ______ ____
ROOT
ATOM      1  C   UNL     1       2.794   6.791  18.606  0.00  0.00    +0.000 A 
ATOM      2  C   UNL     1       1.676   5.945  18.506  0.00  0.00    +0.000 A 
ATOM      3  C   UNL     1       1.642   4.705  19.152  0.00  0.00    +0.000 A 
ATOM      4  C   UNL     1       2.744   4.331  19.922  0.00  0.00    +0.000 A 
ATOM      5  C   UNL     1       3.963   4.997  19.730  0.00  0.00    +0.000 A 
ATOM      6  C   UNL     1       3.955   6.297  19.214  0.00  0.00    +0.000 A 
ENDROOT
BRANCH   5   7
ATOM      7  N   UNL     1       5.156   4.170  19.517  0.00  0.00    +0.000 N 
ATOM      8  C   UNL     1       6.359   5.026  19.320  0.00  0.00    +0.000 C 
ATOM      9  C   UNL     1       6.401   5.189  17.827  0.00  0.00    +0.000 A 
ATOM     10  C   UNL     1       5.737   4.097  17.265  0.00  0.00    +0.000 A 
ATOM     11  C   UNL     1       5.410   4.030  15.921  0.00  0.00    +0.000 A 
ATOM     12  C   UNL     1       5.775   5.108  15.116  0.00  0.00    +0.000 A 
ATOM     13  C   UNL     1       6.467   6.204  15.665  0.00  0.00    +0.000 A 
ATOM     14  C   UNL     1       6.805   6.260  17.035  0.00  0.00    +0.000 A 
ATOM     15  C   UNL     1       5.106   3.332  18.368  0.00  0.00    +0.000 C 
ATOM     16  O   UNL     1       4.474   2.303  18.205  0.00  0.00    +0.000 OA
BRANCH  14  17
ATOM     17  C   UNL     1       7.497   7.484  17.577  0.00  0.00    +0.000 C 
ATOM     18  F   UNL     1       8.384   8.046  16.713  0.00  0.00    +0.000 F 
ATOM     19  F   UNL     1       6.614   8.471  17.895  0.00  0.00    +0.000 F 
ATOM     20  F   UNL     1       8.195   7.224  18.717  0.00  0.00    +0.000 F 
ENDBRANCH  14  17
ENDBRANCH   5   7
BRANCH   1  21
ATOM     21  C   UNL     1       2.820   8.116  17.875  0.00  0.00    +0.000 C 
BRANCH  21  22
ATOM     22  C   UNL     1       1.443   8.789  17.819  0.00  0.00    +0.000 C 
BRANCH  22  28
ATOM     23  C   UNL     1       0.512   8.892  20.759  0.00  0.00    +0.000 C 
ATOM     24  N   UNL     1       0.958  10.012  19.979  0.00  0.00    +0.000 N 
ATOM     25  C   UNL     1       1.038  11.303  20.396  0.00  0.00    +0.000 A 
ATOM     26  N   UNL     1       1.492  12.053  19.421  0.00  0.00    +0.000 NA
ATOM     27  N   UNL     1       1.718  11.235  18.340  0.00  0.00    +0.000 NA
ATOM     28  C   UNL     1       1.384  10.004  18.676  0.00  0.00    +0.000 A 
ENDBRANCH  22  28
ENDBRANCH  21  22
ENDBRANCH   1  21
BRANCH   3  29
ATOM     29  C   UNL     1       0.605   3.675  18.747  0.00  0.00    +0.000 C 
BRANCH  29  30
ATOM     30  C   UNL     1       1.016   2.203  18.817  0.00  0.00    +0.000 C 
BRANCH  30  31
ATOM     31  O   UNL     1       1.806   1.853  17.689  0.00  0.00    +0.000 OA
ATOM     32  H   UNL     1       2.266   1.024  17.912  0.00  0.00    +0.000 HD
ENDBRANCH  30  31
ENDBRANCH  29  30
ENDBRANCH   3  29
TORSDOF 8
ENDMDL
MODEL 9
REMARK VINA RESULT:      -7.3      1.013      1.279
REMARK  Name = 
REMARK  9 active torsions:
REMARK  status: ('A' for Active; 'I' for Inactive)
REMARK    1  A    between atoms: C_1  and  N_2
REMARK    2  A    between atoms: C_6  and  C_7
REMARK    3  A    between atoms: C_7  and  C_8
REMARK    4  A    between atoms: C_8  and  C_9
REMARK    5  A    between atoms: C_11  and  C_12
REMARK    6  A    between atoms: C_12  and  C_13
REMARK    7  A    between atoms: C_13  and  O_14
REMARK    8  A    between atoms: C_16  and  N_17
REMARK    9  A    between atoms: C_24  and  C_25
REMARK                            x       y       z     vdW  Elec       q    Type
REMARK                         _______ _______ _______ _____ _____    ______ ____
ROOT
ATOM      1  C   UNL     1       2.659   6.736  18.721  0.00  0.00    +0.000 A 
ATOM      2  C   UNL     1       1.549   5.916  18.988  0.00  0.00    +0.000 A 
ATOM      3  C   UNL     1       1.662   4.778  19.792  0.00  0.00    +0.000 A 
ATOM      4  C   UNL     1       2.907   4.484  20.349  0.00  0.00    +0.000 A 
ATOM      5  C   UNL     1       4.052   5.082  19.803  0.00  0.00    +0.000 A 
ATOM      6  C   UNL     1       3.926   6.298  19.124  0.00  0.00    +0.000 A 
ENDROOT
BRANCH   5   7
ATOM      7  N   UNL     1       5.171   4.201  19.454  0.00  0.00    +0.000 N 
ATOM      8  C   UNL     1       6.413   4.994  19.230  0.00  0.00    +0.000 C 
ATOM      9  C   UNL     1       6.367   5.258  17.751  0.00  0.00    +0.000 A 
ATOM     10  C   UNL     1       5.597   4.250  17.167  0.00  0.00    +0.000 A 
ATOM     11  C   UNL     1       5.179   4.298  15.847  0.00  0.00    +0.000 A 
ATOM     12  C   UNL     1       5.561   5.405  15.091  0.00  0.00    +0.000 A 
ATOM     13  C   UNL     1       6.358   6.416  15.661  0.00  0.00    +0.000 A 
ATOM     14  C   UNL     1       6.787   6.355  17.005  0.00  0.00    +0.000 A 
ATOM     15  C   UNL     1       4.992   3.450  18.258  0.00  0.00    +0.000 C 
ATOM     16  O   UNL     1       4.283   2.476  18.073  0.00  0.00    +0.000 OA
BRANCH  14  17
ATOM     17  C   UNL     1       7.592   7.493  17.577  0.00  0.00    +0.000 C 
ATOM     18  F   UNL     1       8.333   7.154  18.666  0.00  0.00    +0.000 F 
ATOM     19  F   UNL     1       8.476   7.999  16.673  0.00  0.00    +0.000 F 
ATOM     20  F   UNL     1       6.812   8.540  17.964  0.00  0.00    +0.000 F 
ENDBRANCH  14  17
ENDBRANCH   5   7
BRANCH   1  21
ATOM     21  C   UNL     1       2.518   7.946  17.823  0.00  0.00    +0.000 C 
BRANCH  21  22
ATOM     22  C   UNL     1       1.270   8.778  18.140  0.00  0.00    +0.000 C 
BRANCH  22  28
ATOM     23  C   UNL     1      -0.242  10.806  19.907  0.00  0.00    +0.000 C 
ATOM     24  N   UNL     1       0.889  11.099  19.072  0.00  0.00    +0.000 N 
ATOM     25  C   UNL     1       1.479  12.312  18.912  0.00  0.00    +0.000 A 
ATOM     26  N   UNL     1       2.487  12.204  18.081  0.00  0.00    +0.000 NA
ATOM     27  N   UNL     1       2.562  10.889  17.688  0.00  0.00    +0.000 NA
ATOM     28  C   UNL     1       1.589  10.225  18.281  0.00  0.00    +0.000 A 
ENDBRANCH  22  28
ENDBRANCH  21  22
ENDBRANCH   1  21
BRANCH   3  29
ATOM     29  C   UNL     1       0.564   3.731  19.774  0.00  0.00    +0.000 C 
BRANCH  29  30
ATOM     30  C   UNL     1       0.996   2.265  19.733  0.00  0.00    +0.000 C 
BRANCH  30  31
ATOM     31  O   UNL     1       1.397   1.899  18.420  0.00  0.00    +0.000 OA
ATOM     32  H   UNL     1       1.249   0.940  18.335  0.00  0.00    +0.000 HD
ENDBRANCH  30  31
ENDBRANCH  29  30
ENDBRANCH   3  29
TORSDOF 8
ENDMDL
