MODEL 1
REMARK VINA RESULT:      -8.6      0.000      0.000
REMARK  Name = 
REMARK  3 active torsions:
REMARK  status: ('A' for Active; 'I' for Inactive)
REMARK    1  A    between atoms: C_4  and  C_5
REMARK    2  A    between atoms: C_5  and  N_6
REMARK    3  A    between atoms: C_10  and  C_11
REMARK                            x       y       z     vdW  Elec       q    Type
REMARK                         _______ _______ _______ _____ _____    ______ ____
ROOT
ATOM      1  N   UNL     1       1.237  10.329  19.928  0.00  0.00    +0.000 NA
ATOM      2  C   UNL     1       0.169  10.282  20.948  0.00  0.00    +0.000 C 
ATOM      3  C   UNL     1       0.424   9.228  22.025  0.00  0.00    +0.000 C 
ATOM      4  C   UNL     1       0.641   7.847  21.415  0.00  0.00    +0.000 C 
ATOM      5  C   UNL     1       1.800   7.923  20.418  0.00  0.00    +0.000 C 
ATOM      6  C   UNL     1       1.490   8.984  19.334  0.00  0.00    +0.000 C 
ENDROOT
BRANCH   5   7
ATOM      7  C   UNL     1       2.206   6.555  19.895  0.00  0.00    +0.000 A 
ATOM      8  N   UNL     1       2.887   6.287  18.791  0.00  0.00    +0.000 NA
ATOM      9  C   UNL     1       2.787   4.924  18.478  0.00  0.00    +0.000 A 
ATOM     10  C   UNL     1       3.307   4.263  17.340  0.00  0.00    +0.000 A 
ATOM     11  C   UNL     1       3.044   2.899  17.128  0.00  0.00    +0.000 A 
ATOM     12  C   UNL     1       2.279   2.178  18.038  0.00  0.00    +0.000 A 
ATOM     13  C   UNL     1       1.786   2.795  19.190  0.00  0.00    +0.000 A 
ATOM     14  C   UNL     1       2.056   4.162  19.390  0.00  0.00    +0.000 A 
ATOM     15  S   UNL     1       1.580   5.165  20.702  0.00  0.00    +0.000 S 
ENDBRANCH   5   7
BRANCH   1  16
ATOM     16  C   UNL     1       0.873  11.327  18.884  0.00  0.00    +0.000 C 
BRANCH  16  20
ATOM     17  O   UNL     1      -2.635   9.734  16.159  0.00  0.00    +0.000 OA
ATOM     18  C   UNL     1      -2.320  10.410  17.131  0.00  0.00    +0.000 A 
ATOM     19  N   UNL     1      -1.021  10.555  17.535  0.00  0.00    +0.000 N 
ATOM     20  C   UNL     1      -0.640  11.290  18.629  0.00  0.00    +0.000 A 
ATOM     21  N   UNL     1      -1.489  11.908  19.394  0.00  0.00    +0.000 NA
ATOM     22  C   UNL     1      -2.854  11.854  19.039  0.00  0.00    +0.000 A 
ATOM     23  C   UNL     1      -3.788  12.573  19.794  0.00  0.00    +0.000 A 
ATOM     24  C   UNL     1      -5.141  12.597  19.427  0.00  0.00    +0.000 A 
ATOM     25  C   UNL     1      -5.572  11.885  18.307  0.00  0.00    +0.000 A 
ATOM     26 CL   UNL     1      -7.225  11.952  17.834  0.00  0.00    +0.000 Cl
ATOM     27  C   UNL     1      -4.668  11.138  17.561  0.00  0.00    +0.000 A 
ATOM     28  C   UNL     1      -3.317  11.136  17.932  0.00  0.00    +0.000 A 
ATOM     29  H   UNL     1      -0.310  10.140  16.946  0.00  0.00    +0.000 HD
ENDBRANCH  16  20
ENDBRANCH   1  16
TORSDOF 3
ENDMDL
MODEL 2
REMARK VINA RESULT:      -8.5      4.895      9.776
REMARK  Name = 
REMARK  3 active torsions:
REMARK  status: ('A' for Active; 'I' for Inactive)
REMARK    1  A    between atoms: C_4  and  C_5
REMARK    2  A    between atoms: C_5  and  N_6
REMARK    3  A    between atoms: C_10  and  C_11
REMARK                            x       y       z     vdW  Elec       q    Type
REMARK                         _______ _______ _______ _____ _____    ______ ____
ROOT
ATOM      1  N   UNL     1       3.647   4.417  19.251  0.00  0.00    +0.000 NA
ATOM      2  C   UNL     1       2.917   3.565  20.212  0.00  0.00    +0.000 C 
ATOM      3  C   UNL     1       1.447   3.956  20.355  0.00  0.00    +0.000 C 
ATOM      4  C   UNL     1       1.294   5.428  20.725  0.00  0.00    +0.000 C 
ATOM      5  C   UNL     1       2.002   6.279  19.667  0.00  0.00    +0.000 C 
ATOM      6  C   UNL     1       3.491   5.867  19.573  0.00  0.00    +0.000 C 
ENDROOT
BRANCH   5   7
ATOM      7  C   UNL     1       1.748   7.767  19.856  0.00  0.00    +0.000 A 
ATOM      8  N   UNL     1       1.332   8.377  20.956  0.00  0.00    +0.000 NA
ATOM      9  C   UNL     1       0.910   9.680  20.657  0.00  0.00    +0.000 A 
ATOM     10  C   UNL     1       0.329  10.619  21.541  0.00  0.00    +0.000 A 
ATOM     11  C   UNL     1      -0.123  11.861  21.062  0.00  0.00    +0.000 A 
ATOM     12  C   UNL     1       0.004  12.188  19.717  0.00  0.00    +0.000 A 
ATOM     13  C   UNL     1       0.610  11.296  18.829  0.00  0.00    +0.000 A 
ATOM     14  C   UNL     1       1.058  10.055  19.321  0.00  0.00    +0.000 A 
ATOM     15  S   UNL     1       1.829   8.781  18.464  0.00  0.00    +0.000 S 
ENDBRANCH   5   7
BRANCH   1  16
ATOM     16  C   UNL     1       5.081   4.015  19.228  0.00  0.00    +0.000 C 
BRANCH  16  20
ATOM     17  O   UNL     1       7.865   6.843  16.676  0.00  0.00    +0.000 OA
ATOM     18  C   UNL     1       7.128   5.865  16.680  0.00  0.00    +0.000 A 
ATOM     19  N   UNL     1       6.504   5.420  17.813  0.00  0.00    +0.000 N 
ATOM     20  C   UNL     1       5.688   4.318  17.851  0.00  0.00    +0.000 A 
ATOM     21  N   UNL     1       5.444   3.583  16.808  0.00  0.00    +0.000 NA
ATOM     22  C   UNL     1       6.010   3.982  15.577  0.00  0.00    +0.000 A 
ATOM     23  C   UNL     1       5.706   3.261  14.417  0.00  0.00    +0.000 A 
ATOM     24  C   UNL     1       6.195   3.672  13.169  0.00  0.00    +0.000 A 
ATOM     25  C   UNL     1       7.008   4.801  13.076  0.00  0.00    +0.000 A 
ATOM     26 CL   UNL     1       7.570   5.328  11.537  0.00  0.00    +0.000 Cl
ATOM     27  C   UNL     1       7.350   5.515  14.219  0.00  0.00    +0.000 A 
ATOM     28  C   UNL     1       6.842   5.100  15.457  0.00  0.00    +0.000 A 
ATOM     29  H   UNL     1       6.613   5.984  18.646  0.00  0.00    +0.000 HD
ENDBRANCH  16  20
ENDBRANCH   1  16
TORSDOF 3
ENDMDL
MODEL 3
REMARK VINA RESULT:      -8.3      0.860      1.243
REMARK  Name = 
REMARK  3 active torsions:
REMARK  status: ('A' for Active; 'I' for Inactive)
REMARK    1  A    between atoms: C_4  and  C_5
REMARK    2  A    between atoms: C_5  and  N_6
REMARK    3  A    between atoms: C_10  and  C_11
REMARK                            x       y       z     vdW  Elec       q    Type
REMARK                         _______ _______ _______ _____ _____    ______ ____
ROOT
ATOM      1  N   UNL     1       1.304  10.554  20.161  0.00  0.00    +0.000 NA
ATOM      2  C   UNL     1       0.341  10.536  21.281  0.00  0.00    +0.000 C 
ATOM      3  C   UNL     1       0.605   9.405  22.274  0.00  0.00    +0.000 C 
ATOM      4  C   UNL     1       0.639   8.048  21.579  0.00  0.00    +0.000 C 
ATOM      5  C   UNL     1       1.699   8.085  20.475  0.00  0.00    +0.000 C 
ATOM      6  C   UNL     1       1.379   9.227  19.480  0.00  0.00    +0.000 C 
ENDROOT
BRANCH   5   7
ATOM      7  C   UNL     1       1.930   6.720  19.847  0.00  0.00    +0.000 A 
ATOM      8  N   UNL     1       1.780   5.536  20.422  0.00  0.00    +0.000 NA
ATOM      9  C   UNL     1       2.388   4.539  19.646  0.00  0.00    +0.000 A 
ATOM     10  C   UNL     1       2.512   3.164  19.957  0.00  0.00    +0.000 A 
ATOM     11  C   UNL     1       3.231   2.306  19.107  0.00  0.00    +0.000 A 
ATOM     12  C   UNL     1       3.821   2.793  17.946  0.00  0.00    +0.000 A 
ATOM     13  C   UNL     1       3.681   4.137  17.594  0.00  0.00    +0.000 A 
ATOM     14  C   UNL     1       2.958   4.986  18.454  0.00  0.00    +0.000 A 
ATOM     15  S   UNL     1       2.633   6.664  18.273  0.00  0.00    +0.000 S 
ENDBRANCH   5   7
BRANCH   1  16
ATOM     16  C   UNL     1       0.930  11.636  19.209  0.00  0.00    +0.000 C 
BRANCH  16  20
ATOM     17  O   UNL     1      -2.375  10.045  16.240  0.00  0.00    +0.000 OA
ATOM     18  C   UNL     1      -2.135  10.681  17.260  0.00  0.00    +0.000 A 
ATOM     19  N   UNL     1      -0.864  10.859  17.733  0.00  0.00    +0.000 N 
ATOM     20  C   UNL     1      -0.567  11.549  18.881  0.00  0.00    +0.000 A 
ATOM     21  N   UNL     1      -1.476  12.089  19.635  0.00  0.00    +0.000 NA
ATOM     22  C   UNL     1      -2.820  11.997  19.212  0.00  0.00    +0.000 A 
ATOM     23  C   UNL     1      -3.818  12.635  19.957  0.00  0.00    +0.000 A 
ATOM     24  C   UNL     1      -5.153  12.621  19.527  0.00  0.00    +0.000 A 
ATOM     25  C   UNL     1      -5.500  11.953  18.353  0.00  0.00    +0.000 A 
ATOM     26 CL   UNL     1      -7.131  11.977  17.804  0.00  0.00    +0.000 Cl
ATOM     27  C   UNL     1      -4.531  11.286  17.613  0.00  0.00    +0.000 A 
ATOM     28  C   UNL     1      -3.200  11.321  18.049  0.00  0.00    +0.000 A 
ATOM     29  H   UNL     1      -0.109  10.506  17.158  0.00  0.00    +0.000 HD
ENDBRANCH  16  20
ENDBRANCH   1  16
TORSDOF 3
ENDMDL
MODEL 4
REMARK VINA RESULT:      -8.2      4.206      8.921
REMARK  Name = 
REMARK  3 active torsions:
REMARK  status: ('A' for Active; 'I' for Inactive)
REMARK    1  A    between atoms: C_4  and  C_5
REMARK    2  A    between atoms: C_5  and  N_6
REMARK    3  A    between atoms: C_10  and  C_11
REMARK                            x       y       z     vdW  Elec       q    Type
REMARK                         _______ _______ _______ _____ _____    ______ ____
ROOT
ATOM      1  N   UNL     1       1.482  10.695  19.001  0.00  0.00    +0.000 NA
ATOM      2  C   UNL     1       2.066  12.005  18.647  0.00  0.00    +0.000 C 
ATOM      3  C   UNL     1       1.965  13.026  19.780  0.00  0.00    +0.000 C 
ATOM      4  C   UNL     1       0.525  13.195  20.253  0.00  0.00    +0.000 C 
ATOM      5  C   UNL     1      -0.019  11.828  20.678  0.00  0.00    +0.000 C 
ATOM      6  C   UNL     1       0.080  10.834  19.495  0.00  0.00    +0.000 C 
ENDROOT
BRANCH   5   7
ATOM      7  C   UNL     1      -1.387  11.927  21.334  0.00  0.00    +0.000 A 
ATOM      8  N   UNL     1      -2.496  12.422  20.805  0.00  0.00    +0.000 NA
ATOM      9  C   UNL     1      -3.455  12.639  21.805  0.00  0.00    +0.000 A 
ATOM     10  C   UNL     1      -4.733  13.226  21.658  0.00  0.00    +0.000 A 
ATOM     11  C   UNL     1      -5.546  13.452  22.782  0.00  0.00    +0.000 A 
ATOM     12  C   UNL     1      -5.110  13.092  24.053  0.00  0.00    +0.000 A 
ATOM     13  C   UNL     1      -3.869  12.475  24.223  0.00  0.00    +0.000 A 
ATOM     14  C   UNL     1      -3.064  12.255  23.089  0.00  0.00    +0.000 A 
ATOM     15  S   UNL     1      -1.510  11.525  23.006  0.00  0.00    +0.000 S 
ENDBRANCH   5   7
BRANCH   1  16
ATOM     16  C   UNL     1       1.558   9.790  17.821  0.00  0.00    +0.000 C 
BRANCH  16  20
ATOM     17  O   UNL     1       4.822   6.508  16.902  0.00  0.00    +0.000 OA
ATOM     18  C   UNL     1       3.892   6.854  17.620  0.00  0.00    +0.000 A 
ATOM     19  N   UNL     1       3.214   8.027  17.432  0.00  0.00    +0.000 N 
ATOM     20  C   UNL     1       2.182   8.448  18.231  0.00  0.00    +0.000 A 
ATOM     21  N   UNL     1       1.761   7.770  19.256  0.00  0.00    +0.000 NA
ATOM     22  C   UNL     1       2.369   6.522  19.513  0.00  0.00    +0.000 A 
ATOM     23  C   UNL     1       1.888   5.728  20.560  0.00  0.00    +0.000 A 
ATOM     24  C   UNL     1       2.423   4.454  20.798  0.00  0.00    +0.000 A 
ATOM     25  C   UNL     1       3.458   3.972  19.996  0.00  0.00    +0.000 A 
ATOM     26 CL   UNL     1       4.082   2.390  20.262  0.00  0.00    +0.000 Cl
ATOM     27  C   UNL     1       3.973   4.756  18.970  0.00  0.00    +0.000 A 
ATOM     28  C   UNL     1       3.418   6.021  18.736  0.00  0.00    +0.000 A 
ATOM     29  H   UNL     1       3.463   8.572  16.616  0.00  0.00    +0.000 HD
ENDBRANCH  16  20
ENDBRANCH   1  16
TORSDOF 3
ENDMDL
MODEL 5
REMARK VINA RESULT:      -8.2      5.249      9.502
REMARK  Name = 
REMARK  3 active torsions:
REMARK  status: ('A' for Active; 'I' for Inactive)
REMARK    1  A    between atoms: C_4  and  C_5
REMARK    2  A    between atoms: C_5  and  N_6
REMARK    3  A    between atoms: C_10  and  C_11
REMARK                            x       y       z     vdW  Elec       q    Type
REMARK                         _______ _______ _______ _____ _____    ______ ____
ROOT
ATOM      1  N   UNL     1       3.884   3.979  17.271  0.00  0.00    +0.000 NA
ATOM      2  C   UNL     1       3.263   2.815  17.936  0.00  0.00    +0.000 C 
ATOM      3  C   UNL     1       1.816   3.074  18.355  0.00  0.00    +0.000 C 
ATOM      4  C   UNL     1       1.702   4.314  19.235  0.00  0.00    +0.000 C 
ATOM      5  C   UNL     1       2.291   5.510  18.483  0.00  0.00    +0.000 C 
ATOM      6  C   UNL     1       3.762   5.215  18.099  0.00  0.00    +0.000 C 
ENDROOT
BRANCH   5   7
ATOM      7  C   UNL     1       2.058   6.824  19.210  0.00  0.00    +0.000 A 
ATOM      8  N   UNL     1       1.724   6.990  20.481  0.00  0.00    +0.000 NA
ATOM      9  C   UNL     1       1.287   8.304  20.700  0.00  0.00    +0.000 A 
ATOM     10  C   UNL     1       0.774   8.851  21.900  0.00  0.00    +0.000 A 
ATOM     11  C   UNL     1       0.294  10.172  21.932  0.00  0.00    +0.000 A 
ATOM     12  C   UNL     1       0.327  10.962  20.788  0.00  0.00    +0.000 A 
ATOM     13  C   UNL     1       0.865  10.462  19.601  0.00  0.00    +0.000 A 
ATOM     14  C   UNL     1       1.341   9.137  19.582  0.00  0.00    +0.000 A 
ATOM     15  S   UNL     1       2.044   8.272  18.273  0.00  0.00    +0.000 S 
ENDBRANCH   5   7
BRANCH   1  16
ATOM     16  C   UNL     1       5.308   3.666  16.964  0.00  0.00    +0.000 C 
BRANCH  16  20
ATOM     17  O   UNL     1       8.563   5.055  20.086  0.00  0.00    +0.000 OA
ATOM     18  C   UNL     1       7.860   5.367  19.133  0.00  0.00    +0.000 A 
ATOM     19  N   UNL     1       6.997   4.489  18.536  0.00  0.00    +0.000 N 
ATOM     20  C   UNL     1       6.212   4.805  17.457  0.00  0.00    +0.000 A 
ATOM     21  N   UNL     1       6.227   5.974  16.891  0.00  0.00    +0.000 NA
ATOM     22  C   UNL     1       7.056   6.967  17.457  0.00  0.00    +0.000 A 
ATOM     23  C   UNL     1       7.039   8.260  16.923  0.00  0.00    +0.000 A 
ATOM     24  C   UNL     1       7.797   9.286  17.505  0.00  0.00    +0.000 A 
ATOM     25  C   UNL     1       8.592   9.019  18.619  0.00  0.00    +0.000 A 
ATOM     26 CL   UNL     1       9.486  10.291  19.358  0.00  0.00    +0.000 Cl
ATOM     27  C   UNL     1       8.650   7.735  19.148  0.00  0.00    +0.000 A 
ATOM     28  C   UNL     1       7.875   6.724  18.564  0.00  0.00    +0.000 A 
ATOM     29  H   UNL     1       6.902   3.578  18.967  0.00  0.00    +0.000 HD
ENDBRANCH  16  20
ENDBRANCH   1  16
TORSDOF 3
ENDMDL
MODEL 6
REMARK VINA RESULT:      -8.2      3.936      8.781
REMARK  Name = 
REMARK  3 active torsions:
REMARK  status: ('A' for Active; 'I' for Inactive)
REMARK    1  A    between atoms: C_4  and  C_5
REMARK    2  A    between atoms: C_5  and  N_6
REMARK    3  A    between atoms: C_10  and  C_11
REMARK                            x       y       z     vdW  Elec       q    Type
REMARK                         _______ _______ _______ _____ _____    ______ ____
ROOT
ATOM      1  N   UNL     1       1.056  10.652  18.969  0.00  0.00    +0.000 NA
ATOM      2  C   UNL     1       1.799  11.834  19.454  0.00  0.00    +0.000 C 
ATOM      3  C   UNL     1       1.053  12.595  20.549  0.00  0.00    +0.000 C 
ATOM      4  C   UNL     1      -0.348  12.994  20.096  0.00  0.00    +0.000 C 
ATOM      5  C   UNL     1      -1.107  11.735  19.671  0.00  0.00    +0.000 C 
ATOM      6  C   UNL     1      -0.330  11.009  18.546  0.00  0.00    +0.000 C 
ENDROOT
BRANCH   5   7
ATOM      7  C   UNL     1      -2.573  12.014  19.375  0.00  0.00    +0.000 A 
ATOM      8  N   UNL     1      -3.456  12.595  20.173  0.00  0.00    +0.000 NA
ATOM      9  C   UNL     1      -4.756  12.386  19.692  0.00  0.00    +0.000 A 
ATOM     10  C   UNL     1      -5.971  12.779  20.300  0.00  0.00    +0.000 A 
ATOM     11  C   UNL     1      -7.203  12.415  19.728  0.00  0.00    +0.000 A 
ATOM     12  C   UNL     1      -7.244  11.674  18.553  0.00  0.00    +0.000 A 
ATOM     13  C   UNL     1      -6.060  11.306  17.910  0.00  0.00    +0.000 A 
ATOM     14  C   UNL     1      -4.833  11.676  18.493  0.00  0.00    +0.000 A 
ATOM     15  S   UNL     1      -3.241  11.361  17.926  0.00  0.00    +0.000 S 
ENDBRANCH   5   7
BRANCH   1  16
ATOM     16  C   UNL     1       1.819  10.015  17.859  0.00  0.00    +0.000 C 
BRANCH  16  20
ATOM     17  O   UNL     1       4.639   6.349  16.925  0.00  0.00    +0.000 OA
ATOM     18  C   UNL     1       3.782   6.819  17.663  0.00  0.00    +0.000 A 
ATOM     19  N   UNL     1       3.241   8.060  17.465  0.00  0.00    +0.000 N 
ATOM     20  C   UNL     1       2.295   8.619  18.285  0.00  0.00    +0.000 A 
ATOM     21  N   UNL     1       1.833   8.021  19.341  0.00  0.00    +0.000 NA
ATOM     22  C   UNL     1       2.299   6.715  19.612  0.00  0.00    +0.000 A 
ATOM     23  C   UNL     1       1.765   6.009  20.697  0.00  0.00    +0.000 A 
ATOM     24  C   UNL     1       2.155   4.686  20.952  0.00  0.00    +0.000 A 
ATOM     25  C   UNL     1       3.096   4.066  20.130  0.00  0.00    +0.000 A 
ATOM     26 CL   UNL     1       3.538   2.428  20.419  0.00  0.00    +0.000 Cl
ATOM     27  C   UNL     1       3.664   4.759  19.067  0.00  0.00    +0.000 A 
ATOM     28  C   UNL     1       3.253   6.075  18.816  0.00  0.00    +0.000 A 
ATOM     29  H   UNL     1       3.523   8.552  16.627  0.00  0.00    +0.000 HD
ENDBRANCH  16  20
ENDBRANCH   1  16
TORSDOF 3
ENDMDL
MODEL 7
REMARK VINA RESULT:      -8.2      4.112      6.493
REMARK  Name = 
REMARK  3 active torsions:
REMARK  status: ('A' for Active; 'I' for Inactive)
REMARK    1  A    between atoms: C_4  and  C_5
REMARK    2  A    between atoms: C_5  and  N_6
REMARK    3  A    between atoms: C_10  and  C_11
REMARK                            x       y       z     vdW  Elec       q    Type
REMARK                         _______ _______ _______ _____ _____    ______ ____
ROOT
ATOM      1  N   UNL     1       4.626   5.865  18.584  0.00  0.00    +0.000 NA
ATOM      2  C   UNL     1       5.808   5.439  19.362  0.00  0.00    +0.000 C 
ATOM      3  C   UNL     1       7.121   5.635  18.603  0.00  0.00    +0.000 C 
ATOM      4  C   UNL     1       7.093   4.934  17.249  0.00  0.00    +0.000 C 
ATOM      5  C   UNL     1       5.898   5.456  16.447  0.00  0.00    +0.000 C 
ATOM      6  C   UNL     1       4.590   5.216  17.240  0.00  0.00    +0.000 C 
ENDROOT
BRANCH   5   7
ATOM      7  C   UNL     1       5.894   4.947  15.014  0.00  0.00    +0.000 A 
ATOM      8  N   UNL     1       4.860   4.482  14.330  0.00  0.00    +0.000 NA
ATOM      9  C   UNL     1       5.300   3.817  13.177  0.00  0.00    +0.000 A 
ATOM     10  C   UNL     1       4.512   3.119  12.233  0.00  0.00    +0.000 A 
ATOM     11  C   UNL     1       5.119   2.427  11.171  0.00  0.00    +0.000 A 
ATOM     12  C   UNL     1       6.503   2.428  11.028  0.00  0.00    +0.000 A 
ATOM     13  C   UNL     1       7.303   3.141  11.922  0.00  0.00    +0.000 A 
ATOM     14  C   UNL     1       6.682   3.829  12.982  0.00  0.00    +0.000 A 
ATOM     15  S   UNL     1       7.413   4.775  14.216  0.00  0.00    +0.000 S 
ENDBRANCH   5   7
BRANCH   1  16
ATOM     16  C   UNL     1       3.393   5.573  19.365  0.00  0.00    +0.000 C 
BRANCH  16  20
ATOM     17  O   UNL     1       1.935   9.593  17.368  0.00  0.00    +0.000 OA
ATOM     18  C   UNL     1       1.908   8.874  18.360  0.00  0.00    +0.000 A 
ATOM     19  N   UNL     1       2.578   7.683  18.422  0.00  0.00    +0.000 N 
ATOM     20  C   UNL     1       2.552   6.850  19.512  0.00  0.00    +0.000 A 
ATOM     21  N   UNL     1       1.871   7.113  20.586  0.00  0.00    +0.000 NA
ATOM     22  C   UNL     1       1.176   8.341  20.638  0.00  0.00    +0.000 A 
ATOM     23  C   UNL     1       0.496   8.694  21.809  0.00  0.00    +0.000 A 
ATOM     24  C   UNL     1      -0.146   9.936  21.919  0.00  0.00    +0.000 A 
ATOM     25  C   UNL     1      -0.126  10.828  20.846  0.00  0.00    +0.000 A 
ATOM     26 CL   UNL     1      -0.876  12.369  21.000  0.00  0.00    +0.000 Cl
ATOM     27  C   UNL     1       0.516  10.485  19.661  0.00  0.00    +0.000 A 
ATOM     28  C   UNL     1       1.165   9.247  19.573  0.00  0.00    +0.000 A 
ATOM     29  H   UNL     1       3.170   7.450  17.635  0.00  0.00    +0.000 HD
ENDBRANCH  16  20
ENDBRANCH   1  16
TORSDOF 3
ENDMDL
MODEL 8
REMARK VINA RESULT:      -8.1      3.892      8.884
REMARK  Name = 
REMARK  3 active torsions:
REMARK  status: ('A' for Active; 'I' for Inactive)
REMARK    1  A    between atoms: C_4  and  C_5
REMARK    2  A    between atoms: C_5  and  N_6
REMARK    3  A    between atoms: C_10  and  C_11
REMARK                            x       y       z     vdW  Elec       q    Type
REMARK                         _______ _______ _______ _____ _____    ______ ____
ROOT
ATOM      1  N   UNL     1       1.228  10.921  18.871  0.00  0.00    +0.000 NA
ATOM      2  C   UNL     1       1.916  12.197  19.157  0.00  0.00    +0.000 C 
ATOM      3  C   UNL     1       1.182  13.049  20.192  0.00  0.00    +0.000 C 
ATOM      4  C   UNL     1      -0.264  13.304  19.781  0.00  0.00    +0.000 C 
ATOM      5  C   UNL     1      -0.961  11.958  19.565  0.00  0.00    +0.000 C 
ATOM      6  C   UNL     1      -0.200  11.139  18.494  0.00  0.00    +0.000 C 
ENDROOT
BRANCH   5   7
ATOM      7  C   UNL     1      -2.456  12.111  19.328  0.00  0.00    +0.000 A 
ATOM      8  N   UNL     1      -3.360  12.574  20.178  0.00  0.00    +0.000 NA
ATOM      9  C   UNL     1      -4.651  12.265  19.729  0.00  0.00    +0.000 A 
ATOM     10  C   UNL     1      -5.875  12.517  20.392  0.00  0.00    +0.000 A 
ATOM     11  C   UNL     1      -7.087  12.063  19.844  0.00  0.00    +0.000 A 
ATOM     12  C   UNL     1      -7.101  11.370  18.638  0.00  0.00    +0.000 A 
ATOM     13  C   UNL     1      -5.913  11.141  17.943  0.00  0.00    +0.000 A 
ATOM     14  C   UNL     1      -4.705  11.600  18.503  0.00  0.00    +0.000 A 
ATOM     15  S   UNL     1      -3.112  11.458  17.873  0.00  0.00    +0.000 S 
ENDBRANCH   5   7
BRANCH   1  16
ATOM     16  C   UNL     1       1.969  10.192  17.806  0.00  0.00    +0.000 C 
BRANCH  16  20
ATOM     17  O   UNL     1       1.415   6.922  21.163  0.00  0.00    +0.000 OA
ATOM     18  C   UNL     1       1.914   7.203  20.080  0.00  0.00    +0.000 A 
ATOM     19  N   UNL     1       1.744   8.424  19.487  0.00  0.00    +0.000 N 
ATOM     20  C   UNL     1       2.275   8.760  18.267  0.00  0.00    +0.000 A 
ATOM     21  N   UNL     1       2.981   7.936  17.554  0.00  0.00    +0.000 NA
ATOM     22  C   UNL     1       3.249   6.660  18.096  0.00  0.00    +0.000 A 
ATOM     23  C   UNL     1       4.072   5.774  17.391  0.00  0.00    +0.000 A 
ATOM     24  C   UNL     1       4.414   4.527  17.934  0.00  0.00    +0.000 A 
ATOM     25  C   UNL     1       3.918   4.151  19.183  0.00  0.00    +0.000 A 
ATOM     26 CL   UNL     1       4.377   2.639  19.865  0.00  0.00    +0.000 Cl
ATOM     27  C   UNL     1       3.073   5.001  19.887  0.00  0.00    +0.000 A 
ATOM     28  C   UNL     1       2.753   6.249  19.337  0.00  0.00    +0.000 A 
ATOM     29  H   UNL     1       1.247   9.126  20.021  0.00  0.00    +0.000 HD
ENDBRANCH  16  20
ENDBRANCH   1  16
TORSDOF 3
ENDMDL
MODEL 9
REMARK VINA RESULT:      -8.0      4.015      8.895
REMARK  Name = 
REMARK  3 active torsions:
REMARK  status: ('A' for Active; 'I' for Inactive)
REMARK    1  A    between atoms: C_4  and  C_5
REMARK    2  A    between atoms: C_5  and  N_6
REMARK    3  A    between atoms: C_10  and  C_11
REMARK                            x       y       z     vdW  Elec       q    Type
REMARK                         _______ _______ _______ _____ _____    ______ ____
ROOT
ATOM      1  N   UNL     1       0.853  10.622  19.073  0.00  0.00    +0.000 NA
ATOM      2  C   UNL     1       1.525  11.836  19.580  0.00  0.00    +0.000 C 
ATOM      3  C   UNL     1       0.741  12.527  20.695  0.00  0.00    +0.000 C 
ATOM      4  C   UNL     1      -0.684  12.850  20.257  0.00  0.00    +0.000 C 
ATOM      5  C   UNL     1      -1.368  11.557  19.808  0.00  0.00    +0.000 C 
ATOM      6  C   UNL     1      -0.555  10.904  18.664  0.00  0.00    +0.000 C 
ENDROOT
BRANCH   5   7
ATOM      7  C   UNL     1      -2.849  11.753  19.525  0.00  0.00    +0.000 A 
ATOM      8  N   UNL     1      -3.529  11.326  18.470  0.00  0.00    +0.000 NA
ATOM      9  C   UNL     1      -4.774  11.966  18.404  0.00  0.00    +0.000 A 
ATOM     10  C   UNL     1      -5.752  11.842  17.390  0.00  0.00    +0.000 A 
ATOM     11  C   UNL     1      -6.919  12.624  17.427  0.00  0.00    +0.000 A 
ATOM     12  C   UNL     1      -7.134  13.522  18.467  0.00  0.00    +0.000 A 
ATOM     13  C   UNL     1      -6.205  13.637  19.502  0.00  0.00    +0.000 A 
ATOM     14  C   UNL     1      -5.039  12.849  19.453  0.00  0.00    +0.000 A 
ATOM     15  S   UNL     1      -3.741  12.788  20.577  0.00  0.00    +0.000 S 
ENDBRANCH   5   7
BRANCH   1  16
ATOM     16  C   UNL     1       1.646  10.056  17.947  0.00  0.00    +0.000 C 
BRANCH  16  20
ATOM     17  O   UNL     1       4.656   6.569  16.921  0.00  0.00    +0.000 OA
ATOM     18  C   UNL     1       3.771   6.971  17.667  0.00  0.00    +0.000 A 
ATOM     19  N   UNL     1       3.169   8.189  17.503  0.00  0.00    +0.000 N 
ATOM     20  C   UNL     1       2.189   8.673  18.332  0.00  0.00    +0.000 A 
ATOM     21  N   UNL     1       1.751   8.018  19.365  0.00  0.00    +0.000 NA
ATOM     22  C   UNL     1       2.280   6.729  19.598  0.00  0.00    +0.000 A 
ATOM     23  C   UNL     1       1.775   5.963  20.654  0.00  0.00    +0.000 A 
ATOM     24  C   UNL     1       2.229   4.653  20.870  0.00  0.00    +0.000 A 
ATOM     25  C   UNL     1       3.207   4.109  20.038  0.00  0.00    +0.000 A 
ATOM     26 CL   UNL     1       3.730   2.487  20.278  0.00  0.00    +0.000 Cl
ATOM     27  C   UNL     1       3.747   4.863  19.002  0.00  0.00    +0.000 A 
ATOM     28  C   UNL     1       3.272   6.164  18.791  0.00  0.00    +0.000 A 
ATOM     29  H   UNL     1       3.432   8.722  16.684  0.00  0.00    +0.000 HD
ENDBRANCH  16  20
ENDBRANCH   1  16
TORSDOF 3
ENDMDL
