MODEL 1
REMARK VINA RESULT:      -9.5      0.000      0.000
REMARK  Name = 
REMARK  6 active torsions:
REMARK  status: ('A' for Active; 'I' for Inactive)
REMARK    1  A    between atoms: C_2  and  C_10
REMARK    2  A    between atoms: N_3  and  C_4
REMARK    3  A    between atoms: C_4  and  C_5
REMARK    4  A    between atoms: C_15  and  N_16
REMARK    5  A    between atoms: N_16  and  C_17
REMARK    6  A    between atoms: C_17  and  C_18
REMARK                            x       y       z     vdW  Elec       q    Type
REMARK                         _______ _______ _______ _____ _____    ______ ____
ROOT
ATOM      1  C   UNL     1       3.450   4.219  19.370  0.00  0.00    +0.000 A 
ATOM      2  C   UNL     1       3.076   2.858  19.304  0.00  0.00    +0.000 A 
ATOM      3  C   UNL     1       1.874   2.411  19.849  0.00  0.00    +0.000 A 
ATOM      4  C   UNL     1       1.053   3.307  20.514  0.00  0.00    +0.000 A 
ATOM      5  C   UNL     1       1.406   4.657  20.576  0.00  0.00    +0.000 A 
ATOM      6  C   UNL     1       2.573   5.163  19.962  0.00  0.00    +0.000 A 
ENDROOT
BRANCH   1   8
ATOM      7  O   UNL     1       5.837   4.147  19.431  0.00  0.00    +0.000 OA
ATOM      8  C   UNL     1       4.826   4.562  18.877  0.00  0.00    +0.000 C 
ATOM      9  N   UNL     1       4.892   5.382  17.769  0.00  0.00    +0.000 N 
ATOM     10  H   UNL     1       4.059   5.654  17.264  0.00  0.00    +0.000 HD
BRANCH   9  11
ATOM     11  C   UNL     1       6.156   5.773  17.189  0.00  0.00    +0.000 C 
BRANCH  11  12
ATOM     12  C   UNL     1       6.259   5.158  15.843  0.00  0.00    +0.000 A 
ATOM     13  C   UNL     1       5.468   4.267  15.147  0.00  0.00    +0.000 A 
ATOM     14  C   UNL     1       6.115   4.041  13.908  0.00  0.00    +0.000 A 
ATOM     15  C   UNL     1       7.255   4.809  13.925  0.00  0.00    +0.000 A 
ATOM     16  O   UNL     1       7.355   5.489  15.096  0.00  0.00    +0.000 OA
ENDBRANCH  11  12
ENDBRANCH   9  11
ENDBRANCH   1   8
BRANCH   6  17
ATOM     17  N   UNL     1       2.742   6.546  20.039  0.00  0.00    +0.000 N 
ATOM     18  H   UNL     1       2.611   6.970  20.952  0.00  0.00    +0.000 HD
BRANCH  17  19
ATOM     19  C   UNL     1       2.398   7.450  18.951  0.00  0.00    +0.000 C 
BRANCH  19  20
ATOM     20  C   UNL     1       1.516   8.574  19.477  0.00  0.00    +0.000 A 
ATOM     21  C   UNL     1       1.335   9.680  18.746  0.00  0.00    +0.000 A 
ATOM     22  C   UNL     1       0.565  10.796  19.312  0.00  0.00    +0.000 A 
ATOM     23  O   UNL     1       0.396  11.803  18.626  0.00  0.00    +0.000 OA
ATOM     24  N   UNL     1       0.115  10.617  20.608  0.00  0.00    +0.000 N 
ATOM     25  C   UNL     1      -0.563  11.655  21.242  0.00  0.00    +0.000 A 
ATOM     26  C   UNL     1      -1.005  11.540  22.501  0.00  0.00    +0.000 A 
ATOM     27 CL   UNL     1      -1.831  12.831  23.279  0.00  0.00    +0.000 Cl
ATOM     28  C   UNL     1      -0.791  10.316  23.227  0.00  0.00    +0.000 A 
ATOM     29  C   UNL     1      -0.160   9.285  22.650  0.00  0.00    +0.000 A 
ATOM     30  C   UNL     1       0.355   9.410  21.258  0.00  0.00    +0.000 A 
ATOM     31  N   UNL     1       0.989   8.410  20.738  0.00  0.00    +0.000 NA
ENDBRANCH  19  20
ENDBRANCH  17  19
ENDBRANCH   6  17
TORSDOF 6
ENDMDL
MODEL 2
REMARK VINA RESULT:      -9.3      1.395      1.864
REMARK  Name = 
REMARK  6 active torsions:
REMARK  status: ('A' for Active; 'I' for Inactive)
REMARK    1  A    between atoms: C_2  and  C_10
REMARK    2  A    between atoms: N_3  and  C_4
REMARK    3  A    between atoms: C_4  and  C_5
REMARK    4  A    between atoms: C_15  and  N_16
REMARK    5  A    between atoms: N_16  and  C_17
REMARK    6  A    between atoms: C_17  and  C_18
REMARK                            x       y       z     vdW  Elec       q    Type
REMARK                         _______ _______ _______ _____ _____    ______ ____
ROOT
ATOM      1  C   UNL     1       3.193   4.354  19.341  0.00  0.00    +0.000 A 
ATOM      2  C   UNL     1       2.893   3.039  18.919  0.00  0.00    +0.000 A 
ATOM      3  C   UNL     1       1.706   2.413  19.294  0.00  0.00    +0.000 A 
ATOM      4  C   UNL     1       0.825   3.071  20.137  0.00  0.00    +0.000 A 
ATOM      5  C   UNL     1       1.106   4.375  20.551  0.00  0.00    +0.000 A 
ATOM      6  C   UNL     1       2.256   5.074  20.123  0.00  0.00    +0.000 A 
ENDROOT
BRANCH   1   8
ATOM      7  O   UNL     1       5.220   5.537  19.786  0.00  0.00    +0.000 OA
ATOM      8  C   UNL     1       4.558   4.874  18.996  0.00  0.00    +0.000 C 
ATOM      9  N   UNL     1       5.025   4.575  17.732  0.00  0.00    +0.000 N 
ATOM     10  H   UNL     1       4.516   3.959  17.113  0.00  0.00    +0.000 HD
BRANCH   9  11
ATOM     11  C   UNL     1       6.330   5.006  17.284  0.00  0.00    +0.000 C 
BRANCH  11  12
ATOM     12  C   UNL     1       6.440   4.718  15.832  0.00  0.00    +0.000 A 
ATOM     13  C   UNL     1       5.745   3.888  14.977  0.00  0.00    +0.000 A 
ATOM     14  C   UNL     1       6.344   4.036  13.702  0.00  0.00    +0.000 A 
ATOM     15  C   UNL     1       7.362   4.946  13.860  0.00  0.00    +0.000 A 
ATOM     16  O   UNL     1       7.432   5.365  15.149  0.00  0.00    +0.000 OA
ENDBRANCH  11  12
ENDBRANCH   9  11
ENDBRANCH   1   8
BRANCH   6  17
ATOM     17  N   UNL     1       2.349   6.398  20.554  0.00  0.00    +0.000 N 
ATOM     18  H   UNL     1       2.074   6.585  21.514  0.00  0.00    +0.000 HD
BRANCH  17  19
ATOM     19  C   UNL     1       2.118   7.537  19.678  0.00  0.00    +0.000 C 
BRANCH  19  20
ATOM     20  C   UNL     1       1.348   8.615  20.429  0.00  0.00    +0.000 A 
ATOM     21  C   UNL     1       1.335   8.617  21.767  0.00  0.00    +0.000 A 
ATOM     22  C   UNL     1       0.505   9.600  22.474  0.00  0.00    +0.000 A 
ATOM     23  O   UNL     1       0.509   9.600  23.705  0.00  0.00    +0.000 OA
ATOM     24  N   UNL     1      -0.246  10.439  21.670  0.00  0.00    +0.000 N 
ATOM     25  C   UNL     1      -1.113  11.355  22.263  0.00  0.00    +0.000 A 
ATOM     26  C   UNL     1      -1.874  12.178  21.531  0.00  0.00    +0.000 A 
ATOM     27 CL   UNL     1      -2.949  13.296  22.272  0.00  0.00    +0.000 Cl
ATOM     28  C   UNL     1      -1.799  12.135  20.094  0.00  0.00    +0.000 A 
ATOM     29  C   UNL     1      -0.967  11.283  19.482  0.00  0.00    +0.000 A 
ATOM     30  C   UNL     1      -0.131  10.348  20.286  0.00  0.00    +0.000 A 
ATOM     31  N   UNL     1       0.639   9.514  19.667  0.00  0.00    +0.000 NA
ENDBRANCH  19  20
ENDBRANCH  17  19
ENDBRANCH   6  17
TORSDOF 6
ENDMDL
MODEL 3
REMARK VINA RESULT:      -9.3      1.140      1.803
REMARK  Name = 
REMARK  6 active torsions:
REMARK  status: ('A' for Active; 'I' for Inactive)
REMARK    1  A    between atoms: C_2  and  C_10
REMARK    2  A    between atoms: N_3  and  C_4
REMARK    3  A    between atoms: C_4  and  C_5
REMARK    4  A    between atoms: C_15  and  N_16
REMARK    5  A    between atoms: N_16  and  C_17
REMARK    6  A    between atoms: C_17  and  C_18
REMARK                            x       y       z     vdW  Elec       q    Type
REMARK                         _______ _______ _______ _____ _____    ______ ____
ROOT
ATOM      1  C   UNL     1       3.276   3.790  19.070  0.00  0.00    +0.000 A 
ATOM      2  C   UNL     1       2.595   2.559  18.942  0.00  0.00    +0.000 A 
ATOM      3  C   UNL     1       1.314   2.383  19.462  0.00  0.00    +0.000 A 
ATOM      4  C   UNL     1       0.715   3.418  20.162  0.00  0.00    +0.000 A 
ATOM      5  C   UNL     1       1.374   4.643  20.285  0.00  0.00    +0.000 A 
ATOM      6  C   UNL     1       2.635   4.888  19.699  0.00  0.00    +0.000 A 
ENDROOT
BRANCH   1   8
ATOM      7  O   UNL     1       5.615   3.345  19.260  0.00  0.00    +0.000 OA
ATOM      8  C   UNL     1       4.700   3.822  18.599  0.00  0.00    +0.000 C 
ATOM      9  N   UNL     1       4.928   4.430  17.381  0.00  0.00    +0.000 N 
ATOM     10  H   UNL     1       4.165   4.747  16.798  0.00  0.00    +0.000 HD
BRANCH   9  11
ATOM     11  C   UNL     1       6.253   4.512  16.810  0.00  0.00    +0.000 C 
BRANCH  11  12
ATOM     12  C   UNL     1       6.922   5.716  17.364  0.00  0.00    +0.000 A 
ATOM     13  C   UNL     1       7.704   5.935  18.479  0.00  0.00    +0.000 A 
ATOM     14  C   UNL     1       8.024   7.314  18.478  0.00  0.00    +0.000 A 
ATOM     15  C   UNL     1       7.419   7.848  17.365  0.00  0.00    +0.000 A 
ATOM     16  O   UNL     1       6.745   6.888  16.682  0.00  0.00    +0.000 OA
ENDBRANCH  11  12
ENDBRANCH   9  11
ENDBRANCH   1   8
BRANCH   6  17
ATOM     17  N   UNL     1       3.121   6.188  19.839  0.00  0.00    +0.000 N 
ATOM     18  H   UNL     1       3.167   6.558  20.784  0.00  0.00    +0.000 HD
BRANCH  17  19
ATOM     19  C   UNL     1       2.904   7.229  18.844  0.00  0.00    +0.000 C 
BRANCH  19  20
ATOM     20  C   UNL     1       1.873   8.223  19.359  0.00  0.00    +0.000 A 
ATOM     21  C   UNL     1       1.400   9.177  18.547  0.00  0.00    +0.000 A 
ATOM     22  C   UNL     1       0.485  10.190  19.088  0.00  0.00    +0.000 A 
ATOM     23  O   UNL     1       0.048  11.055  18.330  0.00  0.00    +0.000 OA
ATOM     24  N   UNL     1       0.214  10.091  20.441  0.00  0.00    +0.000 N 
ATOM     25  C   UNL     1      -0.591  11.054  21.046  0.00  0.00    +0.000 A 
ATOM     26  C   UNL     1      -0.871  11.015  22.355  0.00  0.00    +0.000 A 
ATOM     27 CL   UNL     1      -1.855  12.214  23.095  0.00  0.00    +0.000 Cl
ATOM     28  C   UNL     1      -0.344   9.951  23.169  0.00  0.00    +0.000 A 
ATOM     29  C   UNL     1       0.420   8.994  22.626  0.00  0.00    +0.000 A 
ATOM     30  C   UNL     1       0.755   9.040  21.175  0.00  0.00    +0.000 A 
ATOM     31  N   UNL     1       1.521   8.120  20.685  0.00  0.00    +0.000 NA
ENDBRANCH  19  20
ENDBRANCH  17  19
ENDBRANCH   6  17
TORSDOF 6
ENDMDL
MODEL 4
REMARK VINA RESULT:      -9.1      1.852      2.698
REMARK  Name = 
REMARK  6 active torsions:
REMARK  status: ('A' for Active; 'I' for Inactive)
REMARK    1  A    between atoms: C_2  and  C_10
REMARK    2  A    between atoms: N_3  and  C_4
REMARK    3  A    between atoms: C_4  and  C_5
REMARK    4  A    between atoms: C_15  and  N_16
REMARK    5  A    between atoms: N_16  and  C_17
REMARK    6  A    between atoms: C_17  and  C_18
REMARK                            x       y       z     vdW  Elec       q    Type
REMARK                         _______ _______ _______ _____ _____    ______ ____
ROOT
ATOM      1  C   UNL     1       2.566   4.553  18.559  0.00  0.00    +0.000 A 
ATOM      2  C   UNL     1       2.044   3.280  18.237  0.00  0.00    +0.000 A 
ATOM      3  C   UNL     1       1.073   2.674  19.030  0.00  0.00    +0.000 A 
ATOM      4  C   UNL     1       0.645   3.307  20.185  0.00  0.00    +0.000 A 
ATOM      5  C   UNL     1       1.144   4.570  20.509  0.00  0.00    +0.000 A 
ATOM      6  C   UNL     1       2.066   5.254  19.685  0.00  0.00    +0.000 A 
ENDROOT
BRANCH   1   8
ATOM      7  O   UNL     1       3.717   6.169  17.230  0.00  0.00    +0.000 OA
ATOM      8  C   UNL     1       3.706   5.045  17.716  0.00  0.00    +0.000 C 
ATOM      9  N   UNL     1       4.741   4.155  17.508  0.00  0.00    +0.000 N 
ATOM     10  H   UNL     1       4.770   3.260  17.978  0.00  0.00    +0.000 HD
BRANCH   9  11
ATOM     11  C   UNL     1       5.903   4.513  16.726  0.00  0.00    +0.000 C 
BRANCH  11  12
ATOM     12  C   UNL     1       6.774   5.377  17.560  0.00  0.00    +0.000 A 
ATOM     13  C   UNL     1       7.250   6.664  17.413  0.00  0.00    +0.000 A 
ATOM     14  C   UNL     1       8.064   6.921  18.543  0.00  0.00    +0.000 A 
ATOM     15  C   UNL     1       8.032   5.778  19.307  0.00  0.00    +0.000 A 
ATOM     16  O   UNL     1       7.254   4.833  18.719  0.00  0.00    +0.000 OA
ENDBRANCH  11  12
ENDBRANCH   9  11
ENDBRANCH   1   8
BRANCH   6  17
ATOM     17  N   UNL     1       2.403   6.543  20.101  0.00  0.00    +0.000 N 
ATOM     18  H   UNL     1       2.432   6.705  21.103  0.00  0.00    +0.000 HD
BRANCH  17  19
ATOM     19  C   UNL     1       2.040   7.739  19.354  0.00  0.00    +0.000 C 
BRANCH  19  20
ATOM     20  C   UNL     1       1.329   8.722  20.274  0.00  0.00    +0.000 A 
ATOM     21  C   UNL     1       1.439   8.594  21.602  0.00  0.00    +0.000 A 
ATOM     22  C   UNL     1       0.665   9.486  22.474  0.00  0.00    +0.000 A 
ATOM     23  O   UNL     1       0.782   9.367  23.693  0.00  0.00    +0.000 OA
ATOM     24  N   UNL     1      -0.167  10.383  21.827  0.00  0.00    +0.000 N 
ATOM     25  C   UNL     1      -0.986  11.218  22.584  0.00  0.00    +0.000 A 
ATOM     26  C   UNL     1      -1.821  12.093  22.008  0.00  0.00    +0.000 A 
ATOM     27 CL   UNL     1      -2.837  13.111  22.949  0.00  0.00    +0.000 Cl
ATOM     28  C   UNL     1      -1.878  12.191  20.573  0.00  0.00    +0.000 A 
ATOM     29  C   UNL     1      -1.096  11.420  19.807  0.00  0.00    +0.000 A 
ATOM     30  C   UNL     1      -0.178  10.430  20.437  0.00  0.00    +0.000 A 
ATOM     31  N   UNL     1       0.542   9.676  19.672  0.00  0.00    +0.000 NA
ENDBRANCH  19  20
ENDBRANCH  17  19
ENDBRANCH   6  17
TORSDOF 6
ENDMDL
MODEL 5
REMARK VINA RESULT:      -9.1      1.718      2.107
REMARK  Name = 
REMARK  6 active torsions:
REMARK  status: ('A' for Active; 'I' for Inactive)
REMARK    1  A    between atoms: C_2  and  C_10
REMARK    2  A    between atoms: N_3  and  C_4
REMARK    3  A    between atoms: C_4  and  C_5
REMARK    4  A    between atoms: C_15  and  N_16
REMARK    5  A    between atoms: N_16  and  C_17
REMARK    6  A    between atoms: C_17  and  C_18
REMARK                            x       y       z     vdW  Elec       q    Type
REMARK                         _______ _______ _______ _____ _____    ______ ____
ROOT
ATOM      1  C   UNL     1       3.481   3.941  18.885  0.00  0.00    +0.000 A 
ATOM      2  C   UNL     1       3.500   2.793  19.708  0.00  0.00    +0.000 A 
ATOM      3  C   UNL     1       2.516   2.575  20.670  0.00  0.00    +0.000 A 
ATOM      4  C   UNL     1       1.528   3.527  20.861  0.00  0.00    +0.000 A 
ATOM      5  C   UNL     1       1.492   4.661  20.047  0.00  0.00    +0.000 A 
ATOM      6  C   UNL     1       2.420   4.875  19.004  0.00  0.00    +0.000 A 
ENDROOT
BRANCH   1   8
ATOM      7  O   UNL     1       4.554   4.170  16.764  0.00  0.00    +0.000 OA
ATOM      8  C   UNL     1       4.664   4.142  17.984  0.00  0.00    +0.000 C 
ATOM      9  N   UNL     1       5.889   4.281  18.605  0.00  0.00    +0.000 N 
ATOM     10  H   UNL     1       5.966   4.342  19.611  0.00  0.00    +0.000 HD
BRANCH   9  11
ATOM     11  C   UNL     1       7.102   4.494  17.849  0.00  0.00    +0.000 C 
BRANCH  11  12
ATOM     12  C   UNL     1       7.397   5.948  17.845  0.00  0.00    +0.000 A 
ATOM     13  C   UNL     1       7.041   6.983  17.005  0.00  0.00    +0.000 A 
ATOM     14  C   UNL     1       7.660   8.147  17.520  0.00  0.00    +0.000 A 
ATOM     15  C   UNL     1       8.351   7.751  18.641  0.00  0.00    +0.000 A 
ATOM     16  O   UNL     1       8.201   6.417  18.846  0.00  0.00    +0.000 OA
ENDBRANCH  11  12
ENDBRANCH   9  11
ENDBRANCH   1   8
BRANCH   6  17
ATOM     17  N   UNL     1       2.199   6.011  18.225  0.00  0.00    +0.000 N 
ATOM     18  H   UNL     1       2.021   5.858  17.237  0.00  0.00    +0.000 HD
BRANCH  17  19
ATOM     19  C   UNL     1       2.848   7.289  18.482  0.00  0.00    +0.000 C 
BRANCH  19  20
ATOM     20  C   UNL     1       1.842   8.265  19.076  0.00  0.00    +0.000 A 
ATOM     21  C   UNL     1       1.331   9.242  18.317  0.00  0.00    +0.000 A 
ATOM     22  C   UNL     1       0.442  10.236  18.932  0.00  0.00    +0.000 A 
ATOM     23  O   UNL     1      -0.031  11.124  18.223  0.00  0.00    +0.000 OA
ATOM     24  N   UNL     1       0.236  10.096  20.293  0.00  0.00    +0.000 N 
ATOM     25  C   UNL     1      -0.539  11.038  20.965  0.00  0.00    +0.000 A 
ATOM     26  C   UNL     1      -0.756  10.958  22.284  0.00  0.00    +0.000 A 
ATOM     27 CL   UNL     1      -1.704  12.132  23.107  0.00  0.00    +0.000 Cl
ATOM     28  C   UNL     1      -0.189   9.871  23.039  0.00  0.00    +0.000 A 
ATOM     29  C   UNL     1       0.548   8.933  22.431  0.00  0.00    +0.000 A 
ATOM     30  C   UNL     1       0.813   9.024  20.968  0.00  0.00    +0.000 A 
ATOM     31  N   UNL     1       1.554   8.121  20.413  0.00  0.00    +0.000 NA
ENDBRANCH  19  20
ENDBRANCH  17  19
ENDBRANCH   6  17
TORSDOF 6
ENDMDL
MODEL 6
REMARK VINA RESULT:      -9.0      1.376      2.032
REMARK  Name = 
REMARK  6 active torsions:
REMARK  status: ('A' for Active; 'I' for Inactive)
REMARK    1  A    between atoms: C_2  and  C_10
REMARK    2  A    between atoms: N_3  and  C_4
REMARK    3  A    between atoms: C_4  and  C_5
REMARK    4  A    between atoms: C_15  and  N_16
REMARK    5  A    between atoms: N_16  and  C_17
REMARK    6  A    between atoms: C_17  and  C_18
REMARK                            x       y       z     vdW  Elec       q    Type
REMARK                         _______ _______ _______ _____ _____    ______ ____
ROOT
ATOM      1  C   UNL     1       2.722   4.322  18.451  0.00  0.00    +0.000 A 
ATOM      2  C   UNL     1       2.168   3.053  18.173  0.00  0.00    +0.000 A 
ATOM      3  C   UNL     1       1.141   2.525  18.953  0.00  0.00    +0.000 A 
ATOM      4  C   UNL     1       0.687   3.236  20.053  0.00  0.00    +0.000 A 
ATOM      5  C   UNL     1       1.219   4.497  20.330  0.00  0.00    +0.000 A 
ATOM      6  C   UNL     1       2.200   5.102  19.514  0.00  0.00    +0.000 A 
ENDROOT
BRANCH   1   8
ATOM      7  O   UNL     1       3.953   5.785  17.018  0.00  0.00    +0.000 OA
ATOM      8  C   UNL     1       3.915   4.727  17.635  0.00  0.00    +0.000 C 
ATOM      9  N   UNL     1       4.968   3.835  17.607  0.00  0.00    +0.000 N 
ATOM     10  H   UNL     1       4.970   3.003  18.182  0.00  0.00    +0.000 HD
BRANCH   9  11
ATOM     11  C   UNL     1       6.179   4.113  16.869  0.00  0.00    +0.000 C 
BRANCH  11  12
ATOM     12  C   UNL     1       6.926   5.174  17.590  0.00  0.00    +0.000 A 
ATOM     13  C   UNL     1       7.297   6.461  17.260  0.00  0.00    +0.000 A 
ATOM     14  C   UNL     1       8.023   6.965  18.366  0.00  0.00    +0.000 A 
ATOM     15  C   UNL     1       8.048   5.956  19.300  0.00  0.00    +0.000 A 
ATOM     16  O   UNL     1       7.388   4.863  18.839  0.00  0.00    +0.000 OA
ENDBRANCH  11  12
ENDBRANCH   9  11
ENDBRANCH   1   8
BRANCH   6  17
ATOM     17  N   UNL     1       2.567   6.399  19.875  0.00  0.00    +0.000 N 
ATOM     18  H   UNL     1       2.388   6.671  20.837  0.00  0.00    +0.000 HD
BRANCH  17  19
ATOM     19  C   UNL     1       2.505   7.526  18.957  0.00  0.00    +0.000 C 
BRANCH  19  20
ATOM     20  C   UNL     1       1.523   8.564  19.483  0.00  0.00    +0.000 A 
ATOM     21  C   UNL     1       1.174   9.604  18.717  0.00  0.00    +0.000 A 
ATOM     22  C   UNL     1       0.307  10.648  19.277  0.00  0.00    +0.000 A 
ATOM     23  O   UNL     1      -0.016  11.595  18.560  0.00  0.00    +0.000 OA
ATOM     24  N   UNL     1      -0.052  10.482  20.603  0.00  0.00    +0.000 N 
ATOM     25  C   UNL     1      -0.816  11.464  21.230  0.00  0.00    +0.000 A 
ATOM     26  C   UNL     1      -1.176  11.359  22.515  0.00  0.00    +0.000 A 
ATOM     27 CL   UNL     1      -2.109  12.582  23.284  0.00  0.00    +0.000 Cl
ATOM     28  C   UNL     1      -0.781  10.206  23.280  0.00  0.00    +0.000 A 
ATOM     29  C   UNL     1      -0.061   9.229  22.713  0.00  0.00    +0.000 A 
ATOM     30  C   UNL     1       0.363   9.344  21.289  0.00  0.00    +0.000 A 
ATOM     31  N   UNL     1       1.085   8.401  20.777  0.00  0.00    +0.000 NA
ENDBRANCH  19  20
ENDBRANCH  17  19
ENDBRANCH   6  17
TORSDOF 6
ENDMDL
MODEL 7
REMARK VINA RESULT:      -9.0      1.550      4.490
REMARK  Name = 
REMARK  6 active torsions:
REMARK  status: ('A' for Active; 'I' for Inactive)
REMARK    1  A    between atoms: C_2  and  C_10
REMARK    2  A    between atoms: N_3  and  C_4
REMARK    3  A    between atoms: C_4  and  C_5
REMARK    4  A    between atoms: C_15  and  N_16
REMARK    5  A    between atoms: N_16  and  C_17
REMARK    6  A    between atoms: C_17  and  C_18
REMARK                            x       y       z     vdW  Elec       q    Type
REMARK                         _______ _______ _______ _____ _____    ______ ____
ROOT
ATOM      1  C   UNL     1       5.783   4.864  17.458  0.00  0.00    +0.000 A 
ATOM      2  C   UNL     1       6.656   4.158  16.600  0.00  0.00    +0.000 A 
ATOM      3  C   UNL     1       6.808   4.521  15.264  0.00  0.00    +0.000 A 
ATOM      4  C   UNL     1       6.052   5.563  14.751  0.00  0.00    +0.000 A 
ATOM      5  C   UNL     1       5.194   6.275  15.591  0.00  0.00    +0.000 A 
ATOM      6  C   UNL     1       5.076   5.993  16.970  0.00  0.00    +0.000 A 
ENDROOT
BRANCH   1   8
ATOM      7  O   UNL     1       6.013   4.869  19.835  0.00  0.00    +0.000 OA
ATOM      8  C   UNL     1       5.592   4.300  18.835  0.00  0.00    +0.000 C 
ATOM      9  N   UNL     1       4.925   3.094  18.914  0.00  0.00    +0.000 N 
ATOM     10  H   UNL     1       4.505   2.668  18.099  0.00  0.00    +0.000 HD
BRANCH   9  11
ATOM     11  C   UNL     1       4.665   2.453  20.184  0.00  0.00    +0.000 C 
BRANCH  11  12
ATOM     12  C   UNL     1       3.232   2.646  20.515  0.00  0.00    +0.000 A 
ATOM     13  C   UNL     1       2.122   2.977  19.765  0.00  0.00    +0.000 A 
ATOM     14  C   UNL     1       1.032   3.034  20.665  0.00  0.00    +0.000 A 
ATOM     15  C   UNL     1       1.543   2.733  21.906  0.00  0.00    +0.000 A 
ATOM     16  O   UNL     1       2.877   2.498  21.828  0.00  0.00    +0.000 OA
ENDBRANCH  11  12
ENDBRANCH   9  11
ENDBRANCH   1   8
BRANCH   6  17
ATOM     17  N   UNL     1       4.243   6.849  17.691  0.00  0.00    +0.000 N 
ATOM     18  H   UNL     1       4.700   7.564  18.250  0.00  0.00    +0.000 HD
BRANCH  17  19
ATOM     19  C   UNL     1       2.970   6.428  18.258  0.00  0.00    +0.000 C 
BRANCH  19  20
ATOM     20  C   UNL     1       2.211   7.643  18.772  0.00  0.00    +0.000 A 
ATOM     21  C   UNL     1       2.122   8.745  18.018  0.00  0.00    +0.000 A 
ATOM     22  C   UNL     1       1.475   9.942  18.570  0.00  0.00    +0.000 A 
ATOM     23  O   UNL     1       1.389  10.945  17.864  0.00  0.00    +0.000 OA
ATOM     24  N   UNL     1       1.036   9.836  19.878  0.00  0.00    +0.000 N 
ATOM     25  C   UNL     1       0.473  10.948  20.499  0.00  0.00    +0.000 A 
ATOM     26  C   UNL     1       0.047  10.904  21.768  0.00  0.00    +0.000 A 
ATOM     27 CL   UNL     1      -0.635  12.286  22.530  0.00  0.00    +0.000 Cl
ATOM     28  C   UNL     1       0.157   9.682  22.519  0.00  0.00    +0.000 A 
ATOM     29  C   UNL     1       0.675   8.583  21.956  0.00  0.00    +0.000 A 
ATOM     30  C   UNL     1       1.171   8.626  20.553  0.00  0.00    +0.000 A 
ATOM     31  N   UNL     1       1.696   7.558  20.046  0.00  0.00    +0.000 NA
ENDBRANCH  19  20
ENDBRANCH  17  19
ENDBRANCH   6  17
TORSDOF 6
ENDMDL
MODEL 8
REMARK VINA RESULT:      -8.8      1.907      2.657
REMARK  Name = 
REMARK  6 active torsions:
REMARK  status: ('A' for Active; 'I' for Inactive)
REMARK    1  A    between atoms: C_2  and  C_10
REMARK    2  A    between atoms: N_3  and  C_4
REMARK    3  A    between atoms: C_4  and  C_5
REMARK    4  A    between atoms: C_15  and  N_16
REMARK    5  A    between atoms: N_16  and  C_17
REMARK    6  A    between atoms: C_17  and  C_18
REMARK                            x       y       z     vdW  Elec       q    Type
REMARK                         _______ _______ _______ _____ _____    ______ ____
ROOT
ATOM      1  C   UNL     1       2.679   4.199  18.394  0.00  0.00    +0.000 A 
ATOM      2  C   UNL     1       2.139   2.964  17.969  0.00  0.00    +0.000 A 
ATOM      3  C   UNL     1       1.160   2.308  18.712  0.00  0.00    +0.000 A 
ATOM      4  C   UNL     1       0.742   2.851  19.917  0.00  0.00    +0.000 A 
ATOM      5  C   UNL     1       1.260   4.076  20.342  0.00  0.00    +0.000 A 
ATOM      6  C   UNL     1       2.190   4.812  19.575  0.00  0.00    +0.000 A 
ENDROOT
BRANCH   1   8
ATOM      7  O   UNL     1       3.828   5.887  17.156  0.00  0.00    +0.000 OA
ATOM      8  C   UNL     1       3.825   4.742  17.592  0.00  0.00    +0.000 C 
ATOM      9  N   UNL     1       4.874   3.876  17.360  0.00  0.00    +0.000 N 
ATOM     10  H   UNL     1       4.908   2.961  17.790  0.00  0.00    +0.000 HD
BRANCH   9  11
ATOM     11  C   UNL     1       6.043   4.282  16.614  0.00  0.00    +0.000 C 
BRANCH  11  12
ATOM     12  C   UNL     1       6.824   5.225  17.453  0.00  0.00    +0.000 A 
ATOM     13  C   UNL     1       7.275   6.514  17.259  0.00  0.00    +0.000 A 
ATOM     14  C   UNL     1       7.993   6.867  18.427  0.00  0.00    +0.000 A 
ATOM     15  C   UNL     1       7.933   5.774  19.259  0.00  0.00    +0.000 A 
ATOM     16  O   UNL     1       7.229   4.770  18.677  0.00  0.00    +0.000 OA
ENDBRANCH  11  12
ENDBRANCH   9  11
ENDBRANCH   1   8
BRANCH   6  17
ATOM     17  N   UNL     1       2.546   6.057  20.094  0.00  0.00    +0.000 N 
ATOM     18  H   UNL     1       3.526   6.191  20.325  0.00  0.00    +0.000 HD
BRANCH  17  19
ATOM     19  C   UNL     1       1.663   6.847  20.940  0.00  0.00    +0.000 C 
BRANCH  19  20
ATOM     20  C   UNL     1       1.401   8.198  20.290  0.00  0.00    +0.000 A 
ATOM     21  C   UNL     1       1.825   8.432  19.042  0.00  0.00    +0.000 A 
ATOM     22  C   UNL     1       1.656   9.773  18.467  0.00  0.00    +0.000 A 
ATOM     23  O   UNL     1       2.040   9.974  17.315  0.00  0.00    +0.000 OA
ATOM     24  N   UNL     1       1.092  10.718  19.306  0.00  0.00    +0.000 N 
ATOM     25  C   UNL     1       0.960  12.031  18.860  0.00  0.00    +0.000 A 
ATOM     26  C   UNL     1       0.436  12.987  19.637  0.00  0.00    +0.000 A 
ATOM     27 CL   UNL     1       0.288  14.608  19.083  0.00  0.00    +0.000 Cl
ATOM     28  C   UNL     1      -0.016  12.664  20.965  0.00  0.00    +0.000 A 
ATOM     29  C   UNL     1       0.075  11.411  21.428  0.00  0.00    +0.000 A 
ATOM     30  C   UNL     1       0.676  10.344  20.580  0.00  0.00    +0.000 A 
ATOM     31  N   UNL     1       0.780   9.150  21.065  0.00  0.00    +0.000 NA
ENDBRANCH  19  20
ENDBRANCH  17  19
ENDBRANCH   6  17
TORSDOF 6
ENDMDL
MODEL 9
REMARK VINA RESULT:      -8.7      1.674      2.148
REMARK  Name = 
REMARK  6 active torsions:
REMARK  status: ('A' for Active; 'I' for Inactive)
REMARK    1  A    between atoms: C_2  and  C_10
REMARK    2  A    between atoms: N_3  and  C_4
REMARK    3  A    between atoms: C_4  and  C_5
REMARK    4  A    between atoms: C_15  and  N_16
REMARK    5  A    between atoms: N_16  and  C_17
REMARK    6  A    between atoms: C_17  and  C_18
REMARK                            x       y       z     vdW  Elec       q    Type
REMARK                         _______ _______ _______ _____ _____    ______ ____
ROOT
ATOM      1  C   UNL     1       2.859   4.755  18.875  0.00  0.00    +0.000 A 
ATOM      2  C   UNL     1       2.468   3.476  18.418  0.00  0.00    +0.000 A 
ATOM      3  C   UNL     1       1.364   2.821  18.958  0.00  0.00    +0.000 A 
ATOM      4  C   UNL     1       0.665   3.410  19.999  0.00  0.00    +0.000 A 
ATOM      5  C   UNL     1       1.035   4.678  20.453  0.00  0.00    +0.000 A 
ATOM      6  C   UNL     1       2.094   5.410  19.873  0.00  0.00    +0.000 A 
ENDROOT
BRANCH   1   8
ATOM      7  O   UNL     1       4.209   6.415  17.814  0.00  0.00    +0.000 OA
ATOM      8  C   UNL     1       4.143   5.302  18.323  0.00  0.00    +0.000 C 
ATOM      9  N   UNL     1       5.246   4.477  18.408  0.00  0.00    +0.000 N 
ATOM     10  H   UNL     1       5.209   3.596  18.902  0.00  0.00    +0.000 HD
BRANCH   9  11
ATOM     11  C   UNL     1       6.543   4.893  17.924  0.00  0.00    +0.000 C 
BRANCH  11  12
ATOM     12  C   UNL     1       6.583   4.676  16.457  0.00  0.00    +0.000 A 
ATOM     13  C   UNL     1       7.268   5.287  15.427  0.00  0.00    +0.000 A 
ATOM     14  C   UNL     1       6.860   4.641  14.236  0.00  0.00    +0.000 A 
ATOM     15  C   UNL     1       5.955   3.677  14.612  0.00  0.00    +0.000 A 
ATOM     16  O   UNL     1       5.777   3.690  15.958  0.00  0.00    +0.000 OA
ENDBRANCH  11  12
ENDBRANCH   9  11
ENDBRANCH   1   8
BRANCH   6  17
ATOM     17  N   UNL     1       2.285   6.696  20.380  0.00  0.00    +0.000 N 
ATOM     18  H   UNL     1       2.163   6.814  21.381  0.00  0.00    +0.000 HD
BRANCH  17  19
ATOM     19  C   UNL     1       1.951   7.901  19.634  0.00  0.00    +0.000 C 
BRANCH  19  20
ATOM     20  C   UNL     1       1.194   8.868  20.534  0.00  0.00    +0.000 A 
ATOM     21  C   UNL     1       1.249   8.726  21.864  0.00  0.00    +0.000 A 
ATOM     22  C   UNL     1       0.431   9.603  22.713  0.00  0.00    +0.000 A 
ATOM     23  O   UNL     1       0.498   9.470  23.934  0.00  0.00    +0.000 OA
ATOM     24  N   UNL     1      -0.380  10.501  22.041  0.00  0.00    +0.000 N 
ATOM     25  C   UNL     1      -1.237  11.320  22.772  0.00  0.00    +0.000 A 
ATOM     26  C   UNL     1      -2.054  12.195  22.171  0.00  0.00    +0.000 A 
ATOM     27 CL   UNL     1      -3.117  13.194  23.079  0.00  0.00    +0.000 Cl
ATOM     28  C   UNL     1      -2.052  12.309  20.736  0.00  0.00    +0.000 A 
ATOM     29  C   UNL     1      -1.231  11.553  19.995  0.00  0.00    +0.000 A 
ATOM     30  C   UNL     1      -0.333  10.563  20.652  0.00  0.00    +0.000 A 
ATOM     31  N   UNL     1       0.425   9.823  19.910  0.00  0.00    +0.000 NA
ENDBRANCH  19  20
ENDBRANCH  17  19
ENDBRANCH   6  17
TORSDOF 6
ENDMDL
