MODEL 1
REMARK VINA RESULT:      -8.0      0.000      0.000
REMARK  Name = 
REMARK  1 active torsions:
REMARK  status: ('A' for Active; 'I' for Inactive)
REMARK    1  A    between atoms: C_2  and  C_3
REMARK                            x       y       z     vdW  Elec       q    Type
REMARK                         _______ _______ _______ _____ _____    ______ ____
ROOT
ATOM      1  O   UNL     1       2.031   8.653  17.115  0.00  0.00    +0.000 OA
ATOM      2  C   UNL     1       2.392   8.132  18.184  0.00  0.00    +0.000 C 
ATOM      3  N   UNL     1       3.394   7.150  18.191  0.00  0.00    +0.000 N 
ATOM      4  C   UNL     1       3.944   6.815  16.915  0.00  0.00    +0.000 C 
ATOM      5  C   UNL     1       4.707   5.493  17.093  0.00  0.00    +0.000 C 
ATOM      6  C   UNL     1       6.089   5.763  16.463  0.00  0.00    +0.000 C 
ATOM      7  C   UNL     1       7.110   4.700  16.774  0.00  0.00    +0.000 C 
ATOM      8  C   UNL     1       7.367   4.703  18.267  0.00  0.00    +0.000 C 
ATOM      9  C   UNL     1       6.105   4.622  19.142  0.00  0.00    +0.000 C 
ATOM     10  C   UNL     1       4.730   5.183  18.638  0.00  0.00    +0.000 C 
ATOM     11  C   UNL     1       4.161   6.504  19.265  0.00  0.00    +0.000 C 
ATOM     12  C   UNL     1       3.674   4.095  19.018  0.00  0.00    +0.000 C 
ATOM     13  S   UNL     1       2.852   3.594  17.555  0.00  0.00    +0.000 S 
ATOM     14  O   UNL     1       1.575   4.275  17.503  0.00  0.00    +0.000 OA
ATOM     15  O   UNL     1       2.961   2.153  17.456  0.00  0.00    +0.000 OA
ATOM     16  C   UNL     1       3.975   4.334  16.396  0.00  0.00    +0.000 C 
ENDROOT
BRANCH   2  17
ATOM     17  C   UNL     1       1.676   8.560  19.401  0.00  0.00    +0.000 A 
ATOM     18  C   UNL     1       1.623   7.663  20.476  0.00  0.00    +0.000 A 
ATOM     19  C   UNL     1       0.960   7.986  21.674  0.00  0.00    +0.000 A 
ATOM     20  C   UNL     1       0.348   9.248  21.783  0.00  0.00    +0.000 A 
ATOM     21  C   UNL     1      -0.368   9.915  22.819  0.00  0.00    +0.000 A 
ATOM     22  C   UNL     1      -0.735  11.153  22.343  0.00  0.00    +0.000 A 
ATOM     23  N   UNL     1      -0.290  11.254  21.050  0.00  0.00    +0.000 N 
ATOM     24  C   UNL     1       0.379  10.107  20.690  0.00  0.00    +0.000 A 
ATOM     25  C   UNL     1       0.998   9.781  19.475  0.00  0.00    +0.000 A 
ATOM     26  H   UNL     1      -0.405  12.060  20.459  0.00  0.00    +0.000 HD
ENDBRANCH   2  17
TORSDOF 1
ENDMDL
MODEL 2
REMARK VINA RESULT:      -7.6      6.531      8.826
REMARK  Name = 
REMARK  1 active torsions:
REMARK  status: ('A' for Active; 'I' for Inactive)
REMARK    1  A    between atoms: C_2  and  C_3
REMARK                            x       y       z     vdW  Elec       q    Type
REMARK                         _______ _______ _______ _____ _____    ______ ____
ROOT
ATOM      1  O   UNL     1       0.842  12.139  21.451  0.00  0.00    +0.000 OA
ATOM      2  C   UNL     1       1.061  12.326  20.242  0.00  0.00    +0.000 C 
ATOM      3  N   UNL     1       2.105  13.169  19.832  0.00  0.00    +0.000 N 
ATOM      4  C   UNL     1       2.866  13.769  20.882  0.00  0.00    +0.000 C 
ATOM      5  C   UNL     1       3.668  14.917  20.249  0.00  0.00    +0.000 C 
ATOM      6  C   UNL     1       5.113  14.687  20.736  0.00  0.00    +0.000 C 
ATOM      7  C   UNL     1       6.133  15.527  20.012  0.00  0.00    +0.000 C 
ATOM      8  C   UNL     1       6.153  15.109  18.555  0.00  0.00    +0.000 C 
ATOM      9  C   UNL     1       4.776  15.082  17.871  0.00  0.00    +0.000 C 
ATOM     10  C   UNL     1       3.466  14.810  18.690  0.00  0.00    +0.000 C 
ATOM     11  C   UNL     1       2.731  13.434  18.529  0.00  0.00    +0.000 C 
ATOM     12  C   UNL     1       2.429  15.859  18.174  0.00  0.00    +0.000 C 
ATOM     13  S   UNL     1       1.877  16.803  19.541  0.00  0.00    +0.000 S 
ATOM     14  O   UNL     1       0.586  16.287  19.949  0.00  0.00    +0.000 OA
ATOM     15  O   UNL     1       2.084  18.201  19.228  0.00  0.00    +0.000 OA
ATOM     16  C   UNL     1       3.122  16.284  20.696  0.00  0.00    +0.000 C 
ENDROOT
BRANCH   2  17
ATOM     17  C   UNL     1       0.139  11.667  19.297  0.00  0.00    +0.000 A 
ATOM     18  C   UNL     1       0.492  10.397  18.822  0.00  0.00    +0.000 A 
ATOM     19  C   UNL     1      -0.324   9.695  17.916  0.00  0.00    +0.000 A 
ATOM     20  C   UNL     1      -1.525  10.293  17.493  0.00  0.00    +0.000 A 
ATOM     21  C   UNL     1      -2.584   9.885  16.632  0.00  0.00    +0.000 A 
ATOM     22  C   UNL     1      -3.509  10.903  16.597  0.00  0.00    +0.000 A 
ATOM     23  N   UNL     1      -3.041  11.924  17.384  0.00  0.00    +0.000 N 
ATOM     24  C   UNL     1      -1.836  11.571  17.946  0.00  0.00    +0.000 A 
ATOM     25  C   UNL     1      -1.011  12.298  18.814  0.00  0.00    +0.000 A 
ATOM     26  H   UNL     1      -3.521  12.791  17.555  0.00  0.00    +0.000 HD
ENDBRANCH   2  17
TORSDOF 1
ENDMDL
MODEL 3
REMARK VINA RESULT:      -7.6      2.404      3.188
REMARK  Name = 
REMARK  1 active torsions:
REMARK  status: ('A' for Active; 'I' for Inactive)
REMARK    1  A    between atoms: C_2  and  C_3
REMARK                            x       y       z     vdW  Elec       q    Type
REMARK                         _______ _______ _______ _____ _____    ______ ____
ROOT
ATOM      1  O   UNL     1       1.803   5.178  19.278  0.00  0.00    +0.000 OA
ATOM      2  C   UNL     1       2.397   6.136  18.755  0.00  0.00    +0.000 C 
ATOM      3  N   UNL     1       3.458   5.913  17.865  0.00  0.00    +0.000 N 
ATOM      4  C   UNL     1       3.784   4.543  17.619  0.00  0.00    +0.000 C 
ATOM      5  C   UNL     1       5.170   4.528  16.957  0.00  0.00    +0.000 C 
ATOM      6  C   UNL     1       4.990   3.632  15.714  0.00  0.00    +0.000 C 
ATOM      7  C   UNL     1       6.146   3.700  14.750  0.00  0.00    +0.000 C 
ATOM      8  C   UNL     1       6.227   5.108  14.195  0.00  0.00    +0.000 C 
ATOM      9  C   UNL     1       6.239   6.222  15.254  0.00  0.00    +0.000 C 
ATOM     10  C   UNL     1       5.545   6.027  16.648  0.00  0.00    +0.000 C 
ATOM     11  C   UNL     1       4.210   6.789  16.956  0.00  0.00    +0.000 C 
ATOM     12  C   UNL     1       6.557   6.591  17.697  0.00  0.00    +0.000 C 
ATOM     13  S   UNL     1       6.927   5.318  18.842  0.00  0.00    +0.000 S 
ATOM     14  O   UNL     1       6.141   5.548  20.036  0.00  0.00    +0.000 OA
ATOM     15  O   UNL     1       8.366   5.164  18.884  0.00  0.00    +0.000 OA
ATOM     16  C   UNL     1       6.235   3.970  17.917  0.00  0.00    +0.000 C 
ENDROOT
BRANCH   2  17
ATOM     17  C   UNL     1       1.961   7.485  19.167  0.00  0.00    +0.000 A 
ATOM     18  C   UNL     1       1.629   7.679  20.514  0.00  0.00    +0.000 A 
ATOM     19  C   UNL     1       1.201   8.930  20.996  0.00  0.00    +0.000 A 
ATOM     20  C   UNL     1       1.119  10.004  20.091  0.00  0.00    +0.000 A 
ATOM     21  C   UNL     1       0.764  11.378  20.215  0.00  0.00    +0.000 A 
ATOM     22  C   UNL     1       0.870  11.952  18.969  0.00  0.00    +0.000 A 
ATOM     23  N   UNL     1       1.251  10.973  18.087  0.00  0.00    +0.000 N 
ATOM     24  C   UNL     1       1.416   9.779  18.751  0.00  0.00    +0.000 A 
ATOM     25  C   UNL     1       1.802   8.528  18.250  0.00  0.00    +0.000 A 
ATOM     26  H   UNL     1       1.419  11.111  17.105  0.00  0.00    +0.000 HD
ENDBRANCH   2  17
TORSDOF 1
ENDMDL
MODEL 4
REMARK VINA RESULT:      -7.4      6.262     11.238
REMARK  Name = 
REMARK  1 active torsions:
REMARK  status: ('A' for Active; 'I' for Inactive)
REMARK    1  A    between atoms: C_2  and  C_3
REMARK                            x       y       z     vdW  Elec       q    Type
REMARK                         _______ _______ _______ _____ _____    ______ ____
ROOT
ATOM      1  O   UNL     1      -0.956  13.658  23.769  0.00  0.00    +0.000 OA
ATOM      2  C   UNL     1      -1.542  13.041  22.864  0.00  0.00    +0.000 C 
ATOM      3  N   UNL     1      -2.761  13.514  22.357  0.00  0.00    +0.000 N 
ATOM      4  C   UNL     1      -3.253  14.720  22.947  0.00  0.00    +0.000 C 
ATOM      5  C   UNL     1      -4.731  14.840  22.545  0.00  0.00    +0.000 C 
ATOM      6  C   UNL     1      -4.862  16.277  21.999  0.00  0.00    +0.000 C 
ATOM      7  C   UNL     1      -6.160  16.531  21.279  0.00  0.00    +0.000 C 
ATOM      8  C   UNL     1      -6.207  15.651  20.046  0.00  0.00    +0.000 C 
ATOM      9  C   UNL     1      -5.924  14.162  20.303  0.00  0.00    +0.000 C 
ATOM     10  C   UNL     1      -5.013  13.701  21.493  0.00  0.00    +0.000 C 
ATOM     11  C   UNL     1      -3.578  13.143  21.193  0.00  0.00    +0.000 C 
ATOM     12  C   UNL     1      -5.763  12.494  22.146  0.00  0.00    +0.000 C 
ATOM     13  S   UNL     1      -6.039  12.867  23.834  0.00  0.00    +0.000 S 
ATOM     14  O   UNL     1      -5.033  12.178  24.615  0.00  0.00    +0.000 OA
ATOM     15  O   UNL     1      -7.455  12.717  24.096  0.00  0.00    +0.000 OA
ATOM     16  C   UNL     1      -5.654  14.599  23.752  0.00  0.00    +0.000 C 
ENDROOT
BRANCH   2  17
ATOM     17  C   UNL     1      -0.915  11.784  22.411  0.00  0.00    +0.000 A 
ATOM     18  C   UNL     1      -1.042  10.659  23.237  0.00  0.00    +0.000 A 
ATOM     19  C   UNL     1      -0.474   9.420  22.887  0.00  0.00    +0.000 A 
ATOM     20  C   UNL     1       0.227   9.322  21.672  0.00  0.00    +0.000 A 
ATOM     21  C   UNL     1       0.892   8.260  20.994  0.00  0.00    +0.000 A 
ATOM     22  C   UNL     1       1.404   8.767  19.822  0.00  0.00    +0.000 A 
ATOM     23  N   UNL     1       1.098  10.102  19.773  0.00  0.00    +0.000 N 
ATOM     24  C   UNL     1       0.375  10.461  20.886  0.00  0.00    +0.000 A 
ATOM     25  C   UNL     1      -0.149  11.712  21.244  0.00  0.00    +0.000 A 
ATOM     26  H   UNL     1       1.337  10.725  19.019  0.00  0.00    +0.000 HD
ENDBRANCH   2  17
TORSDOF 1
ENDMDL
MODEL 5
REMARK VINA RESULT:      -7.4      2.320      3.217
REMARK  Name = 
REMARK  1 active torsions:
REMARK  status: ('A' for Active; 'I' for Inactive)
REMARK    1  A    between atoms: C_2  and  C_3
REMARK                            x       y       z     vdW  Elec       q    Type
REMARK                         _______ _______ _______ _____ _____    ______ ____
ROOT
ATOM      1  O   UNL     1       1.808   5.201  19.015  0.00  0.00    +0.000 OA
ATOM      2  C   UNL     1       2.431   6.149  18.508  0.00  0.00    +0.000 C 
ATOM      3  N   UNL     1       3.535   5.908  17.676  0.00  0.00    +0.000 N 
ATOM      4  C   UNL     1       3.868   4.533  17.470  0.00  0.00    +0.000 C 
ATOM      5  C   UNL     1       5.287   4.504  16.880  0.00  0.00    +0.000 C 
ATOM      6  C   UNL     1       5.167   3.588  15.645  0.00  0.00    +0.000 C 
ATOM      7  C   UNL     1       6.371   3.637  14.740  0.00  0.00    +0.000 C 
ATOM      8  C   UNL     1       6.485   5.035  14.166  0.00  0.00    +0.000 C 
ATOM      9  C   UNL     1       6.446   6.167  15.206  0.00  0.00    +0.000 C 
ATOM     10  C   UNL     1       5.682   5.997  16.566  0.00  0.00    +0.000 C 
ATOM     11  C   UNL     1       4.335   6.767  16.792  0.00  0.00    +0.000 C 
ATOM     12  C   UNL     1       6.641   6.576  17.655  0.00  0.00    +0.000 C 
ATOM     13  S   UNL     1       6.949   5.322  18.839  0.00  0.00    +0.000 S 
ATOM     14  O   UNL     1       6.103   5.573  19.987  0.00  0.00    +0.000 OA
ATOM     15  O   UNL     1       8.383   5.165  18.957  0.00  0.00    +0.000 OA
ATOM     16  C   UNL     1       6.299   3.960  17.902  0.00  0.00    +0.000 C 
ENDROOT
BRANCH   2  17
ATOM     17  C   UNL     1       1.979   7.505  18.874  0.00  0.00    +0.000 A 
ATOM     18  C   UNL     1       1.915   8.467  17.857  0.00  0.00    +0.000 A 
ATOM     19  C   UNL     1       1.499   9.786  18.114  0.00  0.00    +0.000 A 
ATOM     20  C   UNL     1       1.133  10.129  19.429  0.00  0.00    +0.000 A 
ATOM     21  C   UNL     1       0.650  11.321  20.043  0.00  0.00    +0.000 A 
ATOM     22  C   UNL     1       0.462  11.055  21.380  0.00  0.00    +0.000 A 
ATOM     23  N   UNL     1       0.836   9.755  21.607  0.00  0.00    +0.000 N 
ATOM     24  C   UNL     1       1.241   9.170  20.430  0.00  0.00    +0.000 A 
ATOM     25  C   UNL     1       1.696   7.864  20.195  0.00  0.00    +0.000 A 
ATOM     26  H   UNL     1       0.790   9.286  22.495  0.00  0.00    +0.000 HD
ENDBRANCH   2  17
TORSDOF 1
ENDMDL
MODEL 6
REMARK VINA RESULT:      -7.3      3.608      8.360
REMARK  Name = 
REMARK  1 active torsions:
REMARK  status: ('A' for Active; 'I' for Inactive)
REMARK    1  A    between atoms: C_2  and  C_3
REMARK                            x       y       z     vdW  Elec       q    Type
REMARK                         _______ _______ _______ _____ _____    ______ ____
ROOT
ATOM      1  O   UNL     1      -0.061   8.790  21.570  0.00  0.00    +0.000 OA
ATOM      2  C   UNL     1       0.427   9.324  20.559  0.00  0.00    +0.000 C 
ATOM      3  N   UNL     1       0.021  10.609  20.170  0.00  0.00    +0.000 N 
ATOM      4  C   UNL     1      -0.963  11.228  21.003  0.00  0.00    +0.000 C 
ATOM      5  C   UNL     1      -1.536  12.412  20.208  0.00  0.00    +0.000 C 
ATOM      6  C   UNL     1      -1.458  13.602  21.187  0.00  0.00    +0.000 C 
ATOM      7  C   UNL     1      -1.701  14.936  20.533  0.00  0.00    +0.000 C 
ATOM      8  C   UNL     1      -0.590  15.192  19.535  0.00  0.00    +0.000 C 
ATOM      9  C   UNL     1      -0.341  14.050  18.536  0.00  0.00    +0.000 C 
ATOM     10  C   UNL     1      -0.656  12.560  18.910  0.00  0.00    +0.000 C 
ATOM     11  C   UNL     1       0.529  11.567  19.178  0.00  0.00    +0.000 C 
ATOM     12  C   UNL     1      -1.377  11.962  17.658  0.00  0.00    +0.000 C 
ATOM     13  S   UNL     1      -2.940  11.355  18.164  0.00  0.00    +0.000 S 
ATOM     14  O   UNL     1      -2.833   9.919  18.320  0.00  0.00    +0.000 OA
ATOM     15  O   UNL     1      -3.948  11.967  17.323  0.00  0.00    +0.000 OA
ATOM     16  C   UNL     1      -2.981  12.130  19.762  0.00  0.00    +0.000 C 
ENDROOT
BRANCH   2  17
ATOM     17  C   UNL     1       1.391   8.516  19.788  0.00  0.00    +0.000 A 
ATOM     18  C   UNL     1       1.644   8.894  18.463  0.00  0.00    +0.000 A 
ATOM     19  C   UNL     1       2.546   8.181  17.652  0.00  0.00    +0.000 A 
ATOM     20  C   UNL     1       3.209   7.069  18.203  0.00  0.00    +0.000 A 
ATOM     21  C   UNL     1       4.180   6.150  17.709  0.00  0.00    +0.000 A 
ATOM     22  C   UNL     1       4.460   5.257  18.718  0.00  0.00    +0.000 A 
ATOM     23  N   UNL     1       3.679   5.582  19.797  0.00  0.00    +0.000 N 
ATOM     24  C   UNL     1       2.914   6.688  19.508  0.00  0.00    +0.000 A 
ATOM     25  C   UNL     1       1.985   7.364  20.312  0.00  0.00    +0.000 A 
ATOM     26  H   UNL     1       3.686   5.106  20.683  0.00  0.00    +0.000 HD
ENDBRANCH   2  17
TORSDOF 1
ENDMDL
MODEL 7
REMARK VINA RESULT:      -7.2      6.608      8.646
REMARK  Name = 
REMARK  1 active torsions:
REMARK  status: ('A' for Active; 'I' for Inactive)
REMARK    1  A    between atoms: C_2  and  C_3
REMARK                            x       y       z     vdW  Elec       q    Type
REMARK                         _______ _______ _______ _____ _____    ______ ____
ROOT
ATOM      1  O   UNL     1       0.606  10.268  18.804  0.00  0.00    +0.000 OA
ATOM      2  C   UNL     1      -0.027  11.319  18.610  0.00  0.00    +0.000 C 
ATOM      3  N   UNL     1       0.629  12.558  18.639  0.00  0.00    +0.000 N 
ATOM      4  C   UNL     1       2.034  12.510  18.901  0.00  0.00    +0.000 C 
ATOM      5  C   UNL     1       2.466  13.937  19.271  0.00  0.00    +0.000 C 
ATOM      6  C   UNL     1       3.692  14.209  18.374  0.00  0.00    +0.000 C 
ATOM      7  C   UNL     1       4.115  15.655  18.355  0.00  0.00    +0.000 C 
ATOM      8  C   UNL     1       3.001  16.474  17.735  0.00  0.00    +0.000 C 
ATOM      9  C   UNL     1       1.610  16.245  18.348  0.00  0.00    +0.000 C 
ATOM     10  C   UNL     1       1.227  14.873  19.005  0.00  0.00    +0.000 C 
ATOM     11  C   UNL     1       0.224  13.921  18.266  0.00  0.00    +0.000 C 
ATOM     12  C   UNL     1       0.493  15.241  20.335  0.00  0.00    +0.000 C 
ATOM     13  S   UNL     1       1.347  14.481  21.662  0.00  0.00    +0.000 S 
ATOM     14  O   UNL     1       0.622  13.284  22.034  0.00  0.00    +0.000 OA
ATOM     15  O   UNL     1       1.681  15.510  22.624  0.00  0.00    +0.000 OA
ATOM     16  C   UNL     1       2.815  14.039  20.765  0.00  0.00    +0.000 C 
ENDROOT
BRANCH   2  17
ATOM     17  C   UNL     1      -1.483  11.183  18.410  0.00  0.00    +0.000 A 
ATOM     18  C   UNL     1      -1.933  10.142  17.587  0.00  0.00    +0.000 A 
ATOM     19  C   UNL     1      -3.303   9.939  17.337  0.00  0.00    +0.000 A 
ATOM     20  C   UNL     1      -4.231  10.806  17.944  0.00  0.00    +0.000 A 
ATOM     21  C   UNL     1      -5.654  10.889  17.945  0.00  0.00    +0.000 A 
ATOM     22  C   UNL     1      -6.008  11.962  18.730  0.00  0.00    +0.000 A 
ATOM     23  N   UNL     1      -4.856  12.549  19.186  0.00  0.00    +0.000 N 
ATOM     24  C   UNL     1      -3.761  11.856  18.725  0.00  0.00    +0.000 A 
ATOM     25  C   UNL     1      -2.397  12.096  18.947  0.00  0.00    +0.000 A 
ATOM     26  H   UNL     1      -4.814  13.348  19.796  0.00  0.00    +0.000 HD
ENDBRANCH   2  17
TORSDOF 1
ENDMDL
MODEL 8
REMARK VINA RESULT:      -7.2      6.298      8.790
REMARK  Name = 
REMARK  1 active torsions:
REMARK  status: ('A' for Active; 'I' for Inactive)
REMARK    1  A    between atoms: C_2  and  C_3
REMARK                            x       y       z     vdW  Elec       q    Type
REMARK                         _______ _______ _______ _____ _____    ______ ____
ROOT
ATOM      1  O   UNL     1       1.644  15.958  18.602  0.00  0.00    +0.000 OA
ATOM      2  C   UNL     1       2.213  14.863  18.743  0.00  0.00    +0.000 C 
ATOM      3  N   UNL     1       1.470  13.673  18.750  0.00  0.00    +0.000 N 
ATOM      4  C   UNL     1       0.058  13.822  18.588  0.00  0.00    +0.000 C 
ATOM      5  C   UNL     1      -0.580  12.489  19.009  0.00  0.00    +0.000 C 
ATOM      6  C   UNL     1      -1.528  12.136  17.844  0.00  0.00    +0.000 C 
ATOM      7  C   UNL     1      -2.052  10.725  17.901  0.00  0.00    +0.000 C 
ATOM      8  C   UNL     1      -0.885   9.771  17.743  0.00  0.00    +0.000 C 
ATOM      9  C   UNL     1       0.296  10.031  18.693  0.00  0.00    +0.000 C 
ATOM     10  C   UNL     1       0.599  11.470  19.240  0.00  0.00    +0.000 C 
ATOM     11  C   UNL     1       1.845  12.253  18.697  0.00  0.00    +0.000 C 
ATOM     12  C   UNL     1       0.901  11.281  20.761  0.00  0.00    +0.000 C 
ATOM     13  S   UNL     1      -0.219  12.273  21.671  0.00  0.00    +0.000 S 
ATOM     14  O   UNL     1       0.475  13.481  22.069  0.00  0.00    +0.000 OA
ATOM     15  O   UNL     1      -0.893  11.420  22.627  0.00  0.00    +0.000 OA
ATOM     16  C   UNL     1      -1.338  12.635  20.340  0.00  0.00    +0.000 C 
ENDROOT
BRANCH   2  17
ATOM     17  C   UNL     1       3.673  14.902  18.952  0.00  0.00    +0.000 A 
ATOM     18  C   UNL     1       4.139  15.100  20.258  0.00  0.00    +0.000 A 
ATOM     19  C   UNL     1       5.514  15.154  20.551  0.00  0.00    +0.000 A 
ATOM     20  C   UNL     1       6.431  14.995  19.496  0.00  0.00    +0.000 A 
ATOM     21  C   UNL     1       7.854  14.964  19.417  0.00  0.00    +0.000 A 
ATOM     22  C   UNL     1       8.194  14.775  18.097  0.00  0.00    +0.000 A 
ATOM     23  N   UNL     1       7.035  14.713  17.368  0.00  0.00    +0.000 N 
ATOM     24  C   UNL     1       5.947  14.838  18.201  0.00  0.00    +0.000 A 
ATOM     25  C   UNL     1       4.580  14.826  17.890  0.00  0.00    +0.000 A 
ATOM     26  H   UNL     1       6.981  14.566  16.375  0.00  0.00    +0.000 HD
ENDBRANCH   2  17
TORSDOF 1
ENDMDL
MODEL 9
REMARK VINA RESULT:      -7.2      7.042      9.015
REMARK  Name = 
REMARK  1 active torsions:
REMARK  status: ('A' for Active; 'I' for Inactive)
REMARK    1  A    between atoms: C_2  and  C_3
REMARK                            x       y       z     vdW  Elec       q    Type
REMARK                         _______ _______ _______ _____ _____    ______ ____
ROOT
ATOM      1  O   UNL     1      -0.260  10.738  19.221  0.00  0.00    +0.000 OA
ATOM      2  C   UNL     1      -0.726  11.880  19.075  0.00  0.00    +0.000 C 
ATOM      3  N   UNL     1       0.129  12.986  18.963  0.00  0.00    +0.000 N 
ATOM      4  C   UNL     1       1.528  12.698  19.027  0.00  0.00    +0.000 C 
ATOM      5  C   UNL     1       2.245  14.034  19.275  0.00  0.00    +0.000 C 
ATOM      6  C   UNL     1       3.357  14.075  18.206  0.00  0.00    +0.000 C 
ATOM      7  C   UNL     1       4.013  15.424  18.070  0.00  0.00    +0.000 C 
ATOM      8  C   UNL     1       2.977  16.415  17.579  0.00  0.00    +0.000 C 
ATOM      9  C   UNL     1       1.671  16.441  18.389  0.00  0.00    +0.000 C 
ATOM     10  C   UNL     1       1.158  15.168  19.148  0.00  0.00    +0.000 C 
ATOM     11  C   UNL     1      -0.088  14.393  18.595  0.00  0.00    +0.000 C 
ATOM     12  C   UNL     1       0.697  15.678  20.551  0.00  0.00    +0.000 C 
ATOM     13  S   UNL     1       1.592  14.801  21.775  0.00  0.00    +0.000 S 
ATOM     14  O   UNL     1       0.735  13.755  22.293  0.00  0.00    +0.000 OA
ATOM     15  O   UNL     1       2.231  15.772  22.639  0.00  0.00    +0.000 OA
ATOM     16  C   UNL     1       2.819  14.097  20.701  0.00  0.00    +0.000 C 
ENDROOT
BRANCH   2  17
ATOM     17  C   UNL     1      -2.197  11.997  19.086  0.00  0.00    +0.000 A 
ATOM     18  C   UNL     1      -2.799  12.542  20.228  0.00  0.00    +0.000 A 
ATOM     19  C   UNL     1      -4.195  12.690  20.327  0.00  0.00    +0.000 A 
ATOM     20  C   UNL     1      -4.991  12.283  19.241  0.00  0.00    +0.000 A 
ATOM     21  C   UNL     1      -6.391  12.304  18.976  0.00  0.00    +0.000 A 
ATOM     22  C   UNL     1      -6.589  11.766  17.726  0.00  0.00    +0.000 A 
ATOM     23  N   UNL     1      -5.365  11.396  17.229  0.00  0.00    +0.000 N 
ATOM     24  C   UNL     1      -4.376  11.709  18.133  0.00  0.00    +0.000 A 
ATOM     25  C   UNL     1      -2.990  11.517  18.039  0.00  0.00    +0.000 A 
ATOM     26  H   UNL     1      -5.206  10.987  16.324  0.00  0.00    +0.000 HD
ENDBRANCH   2  17
TORSDOF 1
ENDMDL
