MODEL 1
REMARK VINA RESULT:      -8.5      0.000      0.000
REMARK  Name = 
REMARK  3 active torsions:
REMARK  status: ('A' for Active; 'I' for Inactive)
REMARK    1  A    between atoms: C_2  and  C_14
REMARK    2  A    between atoms: N_3  and  C_4
REMARK    3  A    between atoms: N_17  and  C_18
REMARK                            x       y       z     vdW  Elec       q    Type
REMARK                         _______ _______ _______ _____ _____    ______ ____
ROOT
ATOM      1  O   UNL     1       8.518   6.995  18.881  0.00  0.00    +0.000 OA
ATOM      2  C   UNL     1       7.655   7.351  18.079  0.00  0.00    +0.000 C 
ATOM      3  N   UNL     1       7.458   8.656  17.651  0.00  0.00    +0.000 N 
ATOM      4  H   UNL     1       6.605   8.819  17.124  0.00  0.00    +0.000 HD
ENDROOT
BRANCH   3   5
ATOM      5  C   UNL     1       8.254   9.758  18.053  0.00  0.00    +0.000 A 
ATOM      6  C   UNL     1       9.155   9.662  19.149  0.00  0.00    +0.000 A 
ATOM      7  C   UNL     1       9.902  10.749  19.608  0.00  0.00    +0.000 A 
ATOM      8  C   UNL     1       9.734  11.927  18.935  0.00  0.00    +0.000 A 
ATOM      9  N   UNL     1      10.312  13.165  19.172  0.00  0.00    +0.000 N 
ATOM     10  C   UNL     1       9.820  14.075  18.229  0.00  0.00    +0.000 A 
ATOM     11  O   UNL     1      10.104  15.257  18.145  0.00  0.00    +0.000 OA
ATOM     12  N   UNL     1       8.935  13.361  17.404  0.00  0.00    +0.000 N 
ATOM     13  C   UNL     1       8.880  12.039  17.839  0.00  0.00    +0.000 A 
ATOM     14  C   UNL     1       8.139  10.974  17.362  0.00  0.00    +0.000 A 
ATOM     15  H   UNL     1      10.965  13.404  19.901  0.00  0.00    +0.000 HD
ATOM     16  H   UNL     1       8.428  13.782  16.644  0.00  0.00    +0.000 HD
ENDBRANCH   3   5
BRANCH   2  17
ATOM     17  C   UNL     1       6.717   6.345  17.562  0.00  0.00    +0.000 A 
ATOM     18  C   UNL     1       6.802   5.824  16.250  0.00  0.00    +0.000 A 
ATOM     19  C   UNL     1       5.756   4.955  16.134  0.00  0.00    +0.000 A 
ATOM     20  N   UNL     1       5.075   4.979  17.329  0.00  0.00    +0.000 N 
ATOM     21  N   UNL     1       5.682   5.807  18.240  0.00  0.00    +0.000 NA
BRANCH  20  22
ATOM     22  C   UNL     1       3.885   4.257  17.633  0.00  0.00    +0.000 A 
ATOM     23  C   UNL     1       2.674   4.939  17.860  0.00  0.00    +0.000 A 
ATOM     24  C   UNL     1       1.508   4.232  18.146  0.00  0.00    +0.000 A 
ATOM     25  C   UNL     1       1.553   2.846  18.221  0.00  0.00    +0.000 A 
ATOM     26  F   UNL     1       0.432   2.169  18.494  0.00  0.00    +0.000 F 
ATOM     27  C   UNL     1       2.740   2.155  18.009  0.00  0.00    +0.000 A 
ATOM     28  C   UNL     1       3.912   2.857  17.713  0.00  0.00    +0.000 A 
ENDBRANCH  20  22
ENDBRANCH   2  17
TORSDOF 3
ENDMDL
MODEL 2
REMARK VINA RESULT:      -8.5      6.306      8.890
REMARK  Name = 
REMARK  3 active torsions:
REMARK  status: ('A' for Active; 'I' for Inactive)
REMARK    1  A    between atoms: C_2  and  C_14
REMARK    2  A    between atoms: N_3  and  C_4
REMARK    3  A    between atoms: N_17  and  C_18
REMARK                            x       y       z     vdW  Elec       q    Type
REMARK                         _______ _______ _______ _____ _____    ______ ____
ROOT
ATOM      1  O   UNL     1       1.990   8.627  17.668  0.00  0.00    +0.000 OA
ATOM      2  C   UNL     1       2.050   8.101  18.779  0.00  0.00    +0.000 C 
ATOM      3  N   UNL     1       2.714   6.917  19.063  0.00  0.00    +0.000 N 
ATOM      4  H   UNL     1       2.533   6.523  19.981  0.00  0.00    +0.000 HD
ENDROOT
BRANCH   3   5
ATOM      5  C   UNL     1       3.452   6.166  18.112  0.00  0.00    +0.000 A 
ATOM      6  C   UNL     1       3.158   4.799  17.857  0.00  0.00    +0.000 A 
ATOM      7  C   UNL     1       3.910   4.018  16.976  0.00  0.00    +0.000 A 
ATOM      8  C   UNL     1       4.951   4.645  16.350  0.00  0.00    +0.000 A 
ATOM      9  N   UNL     1       5.876   4.129  15.454  0.00  0.00    +0.000 N 
ATOM     10  C   UNL     1       6.766   5.148  15.095  0.00  0.00    +0.000 A 
ATOM     11  O   UNL     1       7.713   5.050  14.335  0.00  0.00    +0.000 OA
ATOM     12  N   UNL     1       6.357   6.301  15.785  0.00  0.00    +0.000 N 
ATOM     13  C   UNL     1       5.240   5.992  16.560  0.00  0.00    +0.000 A 
ATOM     14  C   UNL     1       4.503   6.785  17.419  0.00  0.00    +0.000 A 
ATOM     15  H   UNL     1       5.934   3.182  15.114  0.00  0.00    +0.000 HD
ATOM     16  H   UNL     1       6.834   7.184  15.718  0.00  0.00    +0.000 HD
ENDBRANCH   3   5
BRANCH   2  17
ATOM     17  C   UNL     1       1.327   8.727  19.894  0.00  0.00    +0.000 A 
ATOM     18  C   UNL     1       1.319   8.186  21.200  0.00  0.00    +0.000 A 
ATOM     19  C   UNL     1       0.527   9.018  21.937  0.00  0.00    +0.000 A 
ATOM     20  N   UNL     1       0.074  10.001  21.088  0.00  0.00    +0.000 N 
ATOM     21  N   UNL     1       0.595   9.858  19.825  0.00  0.00    +0.000 NA
BRANCH  20  22
ATOM     22  C   UNL     1      -0.822  11.056  21.426  0.00  0.00    +0.000 A 
ATOM     23  C   UNL     1      -1.361  11.884  20.421  0.00  0.00    +0.000 A 
ATOM     24  C   UNL     1      -2.247  12.909  20.751  0.00  0.00    +0.000 A 
ATOM     25  C   UNL     1      -2.583  13.116  22.082  0.00  0.00    +0.000 A 
ATOM     26  F   UNL     1      -3.435  14.099  22.396  0.00  0.00    +0.000 F 
ATOM     27  C   UNL     1      -2.054  12.316  23.088  0.00  0.00    +0.000 A 
ATOM     28  C   UNL     1      -1.172  11.281  22.764  0.00  0.00    +0.000 A 
ENDBRANCH  20  22
ENDBRANCH   2  17
TORSDOF 3
ENDMDL
MODEL 3
REMARK VINA RESULT:      -8.5      6.324      8.810
REMARK  Name = 
REMARK  3 active torsions:
REMARK  status: ('A' for Active; 'I' for Inactive)
REMARK    1  A    between atoms: C_2  and  C_14
REMARK    2  A    between atoms: N_3  and  C_4
REMARK    3  A    between atoms: N_17  and  C_18
REMARK                            x       y       z     vdW  Elec       q    Type
REMARK                         _______ _______ _______ _____ _____    ______ ____
ROOT
ATOM      1  O   UNL     1       1.922   8.322  20.202  0.00  0.00    +0.000 OA
ATOM      2  C   UNL     1       1.664   8.609  19.033  0.00  0.00    +0.000 C 
ATOM      3  N   UNL     1       2.220   7.993  17.922  0.00  0.00    +0.000 N 
ATOM      4  H   UNL     1       2.039   8.449  17.033  0.00  0.00    +0.000 HD
ENDROOT
BRANCH   3   5
ATOM      5  C   UNL     1       3.139   6.915  17.982  0.00  0.00    +0.000 A 
ATOM      6  C   UNL     1       2.809   5.694  18.630  0.00  0.00    +0.000 A 
ATOM      7  C   UNL     1       3.718   4.641  18.762  0.00  0.00    +0.000 A 
ATOM      8  C   UNL     1       4.956   4.838  18.217  0.00  0.00    +0.000 A 
ATOM      9  N   UNL     1       6.058   3.996  18.212  0.00  0.00    +0.000 N 
ATOM     10  C   UNL     1       7.108   4.639  17.546  0.00  0.00    +0.000 A 
ATOM     11  O   UNL     1       8.229   4.198  17.363  0.00  0.00    +0.000 OA
ATOM     12  N   UNL     1       6.618   5.890  17.135  0.00  0.00    +0.000 N 
ATOM     13  C   UNL     1       5.294   6.014  17.549  0.00  0.00    +0.000 A 
ATOM     14  C   UNL     1       4.407   7.064  17.399  0.00  0.00    +0.000 A 
ATOM     15  H   UNL     1       6.127   3.080  18.625  0.00  0.00    +0.000 HD
ATOM     16  H   UNL     1       7.175   6.566  16.641  0.00  0.00    +0.000 HD
ENDBRANCH   3   5
BRANCH   2  17
ATOM     17  C   UNL     1       0.739   9.720  18.770  0.00  0.00    +0.000 A 
ATOM     18  C   UNL     1       1.096  11.074  18.966  0.00  0.00    +0.000 A 
ATOM     19  C   UNL     1      -0.018  11.796  18.650  0.00  0.00    +0.000 A 
ATOM     20  N   UNL     1      -0.997  10.896  18.297  0.00  0.00    +0.000 N 
ATOM     21  N   UNL     1      -0.530   9.605  18.327  0.00  0.00    +0.000 NA
BRANCH  20  22
ATOM     22  C   UNL     1      -2.339  11.211  17.940  0.00  0.00    +0.000 A 
ATOM     23  C   UNL     1      -2.798  10.991  16.626  0.00  0.00    +0.000 A 
ATOM     24  C   UNL     1      -4.115  11.289  16.279  0.00  0.00    +0.000 A 
ATOM     25  C   UNL     1      -4.969  11.819  17.238  0.00  0.00    +0.000 A 
ATOM     26  F   UNL     1      -6.233  12.103  16.903  0.00  0.00    +0.000 F 
ATOM     27  C   UNL     1      -4.531  12.052  18.537  0.00  0.00    +0.000 A 
ATOM     28  C   UNL     1      -3.214  11.748  18.894  0.00  0.00    +0.000 A 
ENDBRANCH  20  22
ENDBRANCH   2  17
TORSDOF 3
ENDMDL
MODEL 4
REMARK VINA RESULT:      -8.3      6.647      9.121
REMARK  Name = 
REMARK  3 active torsions:
REMARK  status: ('A' for Active; 'I' for Inactive)
REMARK    1  A    between atoms: C_2  and  C_14
REMARK    2  A    between atoms: N_3  and  C_4
REMARK    3  A    between atoms: N_17  and  C_18
REMARK                            x       y       z     vdW  Elec       q    Type
REMARK                         _______ _______ _______ _____ _____    ______ ____
ROOT
ATOM      1  O   UNL     1       1.993   7.727  20.458  0.00  0.00    +0.000 OA
ATOM      2  C   UNL     1       1.754   8.361  19.430  0.00  0.00    +0.000 C 
ATOM      3  N   UNL     1       2.265   8.063  18.176  0.00  0.00    +0.000 N 
ATOM      4  H   UNL     1       2.114   8.771  17.464  0.00  0.00    +0.000 HD
ENDROOT
BRANCH   3   5
ATOM      5  C   UNL     1       3.109   6.958  17.898  0.00  0.00    +0.000 A 
ATOM      6  C   UNL     1       2.620   5.623  17.939  0.00  0.00    +0.000 A 
ATOM      7  C   UNL     1       3.443   4.513  17.735  0.00  0.00    +0.000 A 
ATOM      8  C   UNL     1       4.760   4.775  17.477  0.00  0.00    +0.000 A 
ATOM      9  N   UNL     1       5.805   3.890  17.260  0.00  0.00    +0.000 N 
ATOM     10  C   UNL     1       6.978   4.626  17.053  0.00  0.00    +0.000 A 
ATOM     11  O   UNL     1       8.090   4.175  16.843  0.00  0.00    +0.000 OA
ATOM     12  N   UNL     1       6.621   5.983  17.138  0.00  0.00    +0.000 N 
ATOM     13  C   UNL     1       5.256   6.075  17.400  0.00  0.00    +0.000 A 
ATOM     14  C   UNL     1       4.458   7.188  17.589  0.00  0.00    +0.000 A 
ATOM     15  H   UNL     1       5.763   2.883  17.263  0.00  0.00    +0.000 HD
ATOM     16  H   UNL     1       7.282   6.734  17.038  0.00  0.00    +0.000 HD
ENDBRANCH   3   5
BRANCH   2  17
ATOM     17  C   UNL     1       0.907   9.558  19.523  0.00  0.00    +0.000 A 
ATOM     18  C   UNL     1       0.984  10.622  18.596  0.00  0.00    +0.000 A 
ATOM     19  C   UNL     1       0.080  11.550  19.027  0.00  0.00    +0.000 A 
ATOM     20  N   UNL     1      -0.494  11.052  20.174  0.00  0.00    +0.000 N 
ATOM     21  N   UNL     1      -0.021   9.798  20.473  0.00  0.00    +0.000 NA
BRANCH  20  22
ATOM     22  C   UNL     1      -1.460  11.714  20.986  0.00  0.00    +0.000 A 
ATOM     23  C   UNL     1      -1.410  11.601  22.389  0.00  0.00    +0.000 A 
ATOM     24  C   UNL     1      -2.349  12.258  23.184  0.00  0.00    +0.000 A 
ATOM     25  C   UNL     1      -3.344  13.014  22.578  0.00  0.00    +0.000 A 
ATOM     26  F   UNL     1      -4.243  13.645  23.343  0.00  0.00    +0.000 F 
ATOM     27  C   UNL     1      -3.415  13.129  21.195  0.00  0.00    +0.000 A 
ATOM     28  C   UNL     1      -2.472  12.480  20.392  0.00  0.00    +0.000 A 
ENDBRANCH  20  22
ENDBRANCH   2  17
TORSDOF 3
ENDMDL
MODEL 5
REMARK VINA RESULT:      -8.2      6.287      8.707
REMARK  Name = 
REMARK  3 active torsions:
REMARK  status: ('A' for Active; 'I' for Inactive)
REMARK    1  A    between atoms: C_2  and  C_14
REMARK    2  A    between atoms: N_3  and  C_4
REMARK    3  A    between atoms: N_17  and  C_18
REMARK                            x       y       z     vdW  Elec       q    Type
REMARK                         _______ _______ _______ _____ _____    ______ ____
ROOT
ATOM      1  O   UNL     1       2.762   9.414  17.465  0.00  0.00    +0.000 OA
ATOM      2  C   UNL     1       1.951   8.903  18.237  0.00  0.00    +0.000 C 
ATOM      3  N   UNL     1       2.055   7.626  18.769  0.00  0.00    +0.000 N 
ATOM      4  H   UNL     1       1.230   7.285  19.252  0.00  0.00    +0.000 HD
ENDROOT
BRANCH   3   5
ATOM      5  C   UNL     1       3.138   6.744  18.524  0.00  0.00    +0.000 A 
ATOM      6  C   UNL     1       3.500   5.737  19.460  0.00  0.00    +0.000 A 
ATOM      7  C   UNL     1       4.602   4.898  19.276  0.00  0.00    +0.000 A 
ATOM      8  C   UNL     1       5.319   5.084  18.127  0.00  0.00    +0.000 A 
ATOM      9  N   UNL     1       6.460   4.429  17.688  0.00  0.00    +0.000 N 
ATOM     10  C   UNL     1       6.843   4.977  16.458  0.00  0.00    +0.000 A 
ATOM     11  O   UNL     1       7.807   4.652  15.788  0.00  0.00    +0.000 OA
ATOM     12  N   UNL     1       5.903   5.976  16.151  0.00  0.00    +0.000 N 
ATOM     13  C   UNL     1       4.965   6.043  17.179  0.00  0.00    +0.000 A 
ATOM     14  C   UNL     1       3.874   6.877  17.337  0.00  0.00    +0.000 A 
ATOM     15  H   UNL     1       6.961   3.693  18.159  0.00  0.00    +0.000 HD
ATOM     16  H   UNL     1       5.949   6.541  15.321  0.00  0.00    +0.000 HD
ENDBRANCH   3   5
BRANCH   2  17
ATOM     17  C   UNL     1       0.746   9.664  18.596  0.00  0.00    +0.000 A 
ATOM     18  C   UNL     1       0.551  10.224  19.879  0.00  0.00    +0.000 A 
ATOM     19  C   UNL     1      -0.678  10.817  19.837  0.00  0.00    +0.000 A 
ATOM     20  N   UNL     1      -1.190  10.596  18.579  0.00  0.00    +0.000 N 
ATOM     21  N   UNL     1      -0.300   9.916  17.784  0.00  0.00    +0.000 NA
BRANCH  20  22
ATOM     22  C   UNL     1      -2.474  10.999  18.112  0.00  0.00    +0.000 A 
ATOM     23  C   UNL     1      -3.356  11.697  18.960  0.00  0.00    +0.000 A 
ATOM     24  C   UNL     1      -4.608  12.100  18.499  0.00  0.00    +0.000 A 
ATOM     25  C   UNL     1      -4.985  11.795  17.198  0.00  0.00    +0.000 A 
ATOM     26  F   UNL     1      -6.187  12.185  16.757  0.00  0.00    +0.000 F 
ATOM     27  C   UNL     1      -4.132  11.099  16.349  0.00  0.00    +0.000 A 
ATOM     28  C   UNL     1      -2.872  10.698  16.802  0.00  0.00    +0.000 A 
ENDBRANCH  20  22
ENDBRANCH   2  17
TORSDOF 3
ENDMDL
MODEL 6
REMARK VINA RESULT:      -8.2      6.583      9.187
REMARK  Name = 
REMARK  3 active torsions:
REMARK  status: ('A' for Active; 'I' for Inactive)
REMARK    1  A    between atoms: C_2  and  C_14
REMARK    2  A    between atoms: N_3  and  C_4
REMARK    3  A    between atoms: N_17  and  C_18
REMARK                            x       y       z     vdW  Elec       q    Type
REMARK                         _______ _______ _______ _____ _____    ______ ____
ROOT
ATOM      1  O   UNL     1       2.347   9.256  17.072  0.00  0.00    +0.000 OA
ATOM      2  C   UNL     1       1.761   8.870  18.083  0.00  0.00    +0.000 C 
ATOM      3  N   UNL     1       1.932   7.628  18.676  0.00  0.00    +0.000 N 
ATOM      4  H   UNL     1       1.260   7.393  19.400  0.00  0.00    +0.000 HD
ENDROOT
BRANCH   3   5
ATOM      5  C   UNL     1       2.840   6.641  18.216  0.00  0.00    +0.000 A 
ATOM      6  C   UNL     1       2.420   5.306  17.963  0.00  0.00    +0.000 A 
ATOM      7  C   UNL     1       3.305   4.298  17.574  0.00  0.00    +0.000 A 
ATOM      8  C   UNL     1       4.614   4.664  17.432  0.00  0.00    +0.000 A 
ATOM      9  N   UNL     1       5.710   3.888  17.087  0.00  0.00    +0.000 N 
ATOM     10  C   UNL     1       6.850   4.700  17.085  0.00  0.00    +0.000 A 
ATOM     11  O   UNL     1       7.990   4.351  16.838  0.00  0.00    +0.000 OA
ATOM     12  N   UNL     1       6.422   5.994  17.429  0.00  0.00    +0.000 N 
ATOM     13  C   UNL     1       5.046   5.972  17.644  0.00  0.00    +0.000 A 
ATOM     14  C   UNL     1       4.186   6.987  18.020  0.00  0.00    +0.000 A 
ATOM     15  H   UNL     1       5.719   2.901  16.883  0.00  0.00    +0.000 HD
ATOM     16  H   UNL     1       7.047   6.778  17.513  0.00  0.00    +0.000 HD
ENDBRANCH   3   5
BRANCH   2  17
ATOM     17  C   UNL     1       0.761   9.755  18.697  0.00  0.00    +0.000 A 
ATOM     18  C   UNL     1      -0.464  10.074  18.067  0.00  0.00    +0.000 A 
ATOM     19  C   UNL     1      -1.100  10.932  18.918  0.00  0.00    +0.000 A 
ATOM     20  N   UNL     1      -0.269  11.120  19.998  0.00  0.00    +0.000 N 
ATOM     21  N   UNL     1       0.873  10.363  19.895  0.00  0.00    +0.000 NA
BRANCH  20  22
ATOM     22  C   UNL     1      -0.514  11.979  21.108  0.00  0.00    +0.000 A 
ATOM     23  C   UNL     1       0.116  13.236  21.189  0.00  0.00    +0.000 A 
ATOM     24  C   UNL     1      -0.133  14.081  22.270  0.00  0.00    +0.000 A 
ATOM     25  C   UNL     1      -0.997  13.666  23.275  0.00  0.00    +0.000 A 
ATOM     26  F   UNL     1      -1.235  14.480  24.310  0.00  0.00    +0.000 F 
ATOM     27  C   UNL     1      -1.620  12.425  23.217  0.00  0.00    +0.000 A 
ATOM     28  C   UNL     1      -1.382  11.575  22.132  0.00  0.00    +0.000 A 
ENDBRANCH  20  22
ENDBRANCH   2  17
TORSDOF 3
ENDMDL
MODEL 7
REMARK VINA RESULT:      -8.1      6.532      8.990
REMARK  Name = 
REMARK  3 active torsions:
REMARK  status: ('A' for Active; 'I' for Inactive)
REMARK    1  A    between atoms: C_2  and  C_14
REMARK    2  A    between atoms: N_3  and  C_4
REMARK    3  A    between atoms: N_17  and  C_18
REMARK                            x       y       z     vdW  Elec       q    Type
REMARK                         _______ _______ _______ _____ _____    ______ ____
ROOT
ATOM      1  O   UNL     1       1.902   8.158  20.213  0.00  0.00    +0.000 OA
ATOM      2  C   UNL     1       1.661   8.642  19.107  0.00  0.00    +0.000 C 
ATOM      3  N   UNL     1       2.181   8.181  17.907  0.00  0.00    +0.000 N 
ATOM      4  H   UNL     1       2.027   8.783  17.104  0.00  0.00    +0.000 HD
ENDROOT
BRANCH   3   5
ATOM      5  C   UNL     1       3.038   7.058  17.786  0.00  0.00    +0.000 A 
ATOM      6  C   UNL     1       2.577   5.740  18.057  0.00  0.00    +0.000 A 
ATOM      7  C   UNL     1       3.415   4.624  18.011  0.00  0.00    +0.000 A 
ATOM      8  C   UNL     1       4.719   4.860  17.673  0.00  0.00    +0.000 A 
ATOM      9  N   UNL     1       5.775   3.966  17.571  0.00  0.00    +0.000 N 
ATOM     10  C   UNL     1       6.927   4.676  17.213  0.00  0.00    +0.000 A 
ATOM     11  O   UNL     1       8.041   4.213  17.045  0.00  0.00    +0.000 OA
ATOM     12  N   UNL     1       6.547   6.023  17.088  0.00  0.00    +0.000 N 
ATOM     13  C   UNL     1       5.188   6.137  17.373  0.00  0.00    +0.000 A 
ATOM     14  C   UNL     1       4.374   7.254  17.403  0.00  0.00    +0.000 A 
ATOM     15  H   UNL     1       5.752   2.973  17.738  0.00  0.00    +0.000 HD
ATOM     16  H   UNL     1       7.190   6.758  16.848  0.00  0.00    +0.000 HD
ENDBRANCH   3   5
BRANCH   2  17
ATOM     17  C   UNL     1       0.801   9.831  19.033  0.00  0.00    +0.000 A 
ATOM     18  C   UNL     1       1.319  11.144  18.949  0.00  0.00    +0.000 A 
ATOM     19  C   UNL     1       0.229  11.966  18.930  0.00  0.00    +0.000 A 
ATOM     20  N   UNL     1      -0.885  11.164  19.016  0.00  0.00    +0.000 N 
ATOM     21  N   UNL     1      -0.548   9.833  19.039  0.00  0.00    +0.000 NA
BRANCH  20  22
ATOM     22  C   UNL     1      -2.237  11.607  19.077  0.00  0.00    +0.000 A 
ATOM     23  C   UNL     1      -2.670  12.434  20.131  0.00  0.00    +0.000 A 
ATOM     24  C   UNL     1      -3.991  12.877  20.185  0.00  0.00    +0.000 A 
ATOM     25  C   UNL     1      -4.882  12.482  19.195  0.00  0.00    +0.000 A 
ATOM     26  F   UNL     1      -6.149  12.909  19.248  0.00  0.00    +0.000 F 
ATOM     27  C   UNL     1      -4.476  11.658  18.152  0.00  0.00    +0.000 A 
ATOM     28  C   UNL     1      -3.151  11.217  18.087  0.00  0.00    +0.000 A 
ENDBRANCH  20  22
ENDBRANCH   2  17
TORSDOF 3
ENDMDL
MODEL 8
REMARK VINA RESULT:      -8.1      6.788      9.309
REMARK  Name = 
REMARK  3 active torsions:
REMARK  status: ('A' for Active; 'I' for Inactive)
REMARK    1  A    between atoms: C_2  and  C_14
REMARK    2  A    between atoms: N_3  and  C_4
REMARK    3  A    between atoms: N_17  and  C_18
REMARK                            x       y       z     vdW  Elec       q    Type
REMARK                         _______ _______ _______ _____ _____    ______ ____
ROOT
ATOM      1  O   UNL     1       1.901   7.543  20.588  0.00  0.00    +0.000 OA
ATOM      2  C   UNL     1       1.680   8.255  19.608  0.00  0.00    +0.000 C 
ATOM      3  N   UNL     1       2.198   8.045  18.339  0.00  0.00    +0.000 N 
ATOM      4  H   UNL     1       2.064   8.806  17.681  0.00  0.00    +0.000 HD
ENDROOT
BRANCH   3   5
ATOM      5  C   UNL     1       3.028   6.951  17.986  0.00  0.00    +0.000 A 
ATOM      6  C   UNL     1       2.526   5.621  17.945  0.00  0.00    +0.000 A 
ATOM      7  C   UNL     1       3.336   4.518  17.665  0.00  0.00    +0.000 A 
ATOM      8  C   UNL     1       4.653   4.782  17.414  0.00  0.00    +0.000 A 
ATOM      9  N   UNL     1       5.688   3.902  17.135  0.00  0.00    +0.000 N 
ATOM     10  C   UNL     1       6.867   4.637  16.967  0.00  0.00    +0.000 A 
ATOM     11  O   UNL     1       7.973   4.189  16.721  0.00  0.00    +0.000 OA
ATOM     12  N   UNL     1       6.525   5.990  17.140  0.00  0.00    +0.000 N 
ATOM     13  C   UNL     1       5.163   6.079  17.418  0.00  0.00    +0.000 A 
ATOM     14  C   UNL     1       4.378   7.186  17.682  0.00  0.00    +0.000 A 
ATOM     15  H   UNL     1       5.634   2.897  17.074  0.00  0.00    +0.000 HD
ATOM     16  H   UNL     1       7.194   6.739  17.084  0.00  0.00    +0.000 HD
ENDBRANCH   3   5
BRANCH   2  17
ATOM     17  C   UNL     1       0.850   9.455  19.785  0.00  0.00    +0.000 A 
ATOM     18  C   UNL     1       0.209  10.105  18.705  0.00  0.00    +0.000 A 
ATOM     19  C   UNL     1      -0.431  11.179  19.253  0.00  0.00    +0.000 A 
ATOM     20  N   UNL     1      -0.160  11.166  20.602  0.00  0.00    +0.000 N 
ATOM     21  N   UNL     1       0.600  10.078  20.954  0.00  0.00    +0.000 NA
BRANCH  20  22
ATOM     22  C   UNL     1      -0.590  12.134  21.555  0.00  0.00    +0.000 A 
ATOM     23  C   UNL     1      -1.670  11.858  22.416  0.00  0.00    +0.000 A 
ATOM     24  C   UNL     1      -2.083  12.801  23.355  0.00  0.00    +0.000 A 
ATOM     25  C   UNL     1      -1.428  14.024  23.426  0.00  0.00    +0.000 A 
ATOM     26  F   UNL     1      -1.825  14.927  24.330  0.00  0.00    +0.000 F 
ATOM     27  C   UNL     1      -0.366  14.318  22.578  0.00  0.00    +0.000 A 
ATOM     28  C   UNL     1       0.058  13.374  21.639  0.00  0.00    +0.000 A 
ENDBRANCH  20  22
ENDBRANCH   2  17
TORSDOF 3
ENDMDL
MODEL 9
REMARK VINA RESULT:      -8.1      6.827      9.837
REMARK  Name = 
REMARK  3 active torsions:
REMARK  status: ('A' for Active; 'I' for Inactive)
REMARK    1  A    between atoms: C_2  and  C_14
REMARK    2  A    between atoms: N_3  and  C_4
REMARK    3  A    between atoms: N_17  and  C_18
REMARK                            x       y       z     vdW  Elec       q    Type
REMARK                         _______ _______ _______ _____ _____    ______ ____
ROOT
ATOM      1  O   UNL     1       1.835   8.954  17.188  0.00  0.00    +0.000 OA
ATOM      2  C   UNL     1       1.710   8.980  18.412  0.00  0.00    +0.000 C 
ATOM      3  N   UNL     1       2.116   7.972  19.274  0.00  0.00    +0.000 N 
ATOM      4  H   UNL     1       1.795   8.062  20.233  0.00  0.00    +0.000 HD
ENDROOT
BRANCH   3   5
ATOM      5  C   UNL     1       2.768   6.782  18.862  0.00  0.00    +0.000 A 
ATOM      6  C   UNL     1       3.813   6.805  17.898  0.00  0.00    +0.000 A 
ATOM      7  C   UNL     1       4.427   5.642  17.425  0.00  0.00    +0.000 A 
ATOM      8  C   UNL     1       3.978   4.464  17.952  0.00  0.00    +0.000 A 
ATOM      9  N   UNL     1       4.373   3.166  17.663  0.00  0.00    +0.000 N 
ATOM     10  C   UNL     1       3.615   2.285  18.443  0.00  0.00    +0.000 A 
ATOM     11  O   UNL     1       3.688   1.068  18.442  0.00  0.00    +0.000 OA
ATOM     12  N   UNL     1       2.755   3.076  19.224  0.00  0.00    +0.000 N 
ATOM     13  C   UNL     1       2.977   4.417  18.920  0.00  0.00    +0.000 A 
ATOM     14  C   UNL     1       2.363   5.555  19.409  0.00  0.00    +0.000 A 
ATOM     15  H   UNL     1       5.071   2.874  16.997  0.00  0.00    +0.000 HD
ATOM     16  H   UNL     1       2.088   2.692  19.871  0.00  0.00    +0.000 HD
ENDBRANCH   3   5
BRANCH   2  17
ATOM     17  C   UNL     1       1.037  10.133  19.026  0.00  0.00    +0.000 A 
ATOM     18  C   UNL     1       1.475  11.464  18.835  0.00  0.00    +0.000 A 
ATOM     19  C   UNL     1       0.630  12.237  19.578  0.00  0.00    +0.000 A 
ATOM     20  N   UNL     1      -0.259  11.387  20.194  0.00  0.00    +0.000 N 
ATOM     21  N   UNL     1      -0.045  10.081  19.830  0.00  0.00    +0.000 NA
BRANCH  20  22
ATOM     22  C   UNL     1      -1.288  11.764  21.104  0.00  0.00    +0.000 A 
ATOM     23  C   UNL     1      -2.410  12.487  20.654  0.00  0.00    +0.000 A 
ATOM     24  C   UNL     1      -3.422  12.846  21.543  0.00  0.00    +0.000 A 
ATOM     25  C   UNL     1      -3.308  12.496  22.882  0.00  0.00    +0.000 A 
ATOM     26  F   UNL     1      -4.282  12.840  23.733  0.00  0.00    +0.000 F 
ATOM     27  C   UNL     1      -2.204  11.791  23.347  0.00  0.00    +0.000 A 
ATOM     28  C   UNL     1      -1.189  11.421  22.460  0.00  0.00    +0.000 A 
ENDBRANCH  20  22
ENDBRANCH   2  17
TORSDOF 3
ENDMDL
