MODEL 1
REMARK VINA RESULT:      -8.5      0.000      0.000
REMARK  Name = 
REMARK  6 active torsions:
REMARK  status: ('A' for Active; 'I' for Inactive)
REMARK    1  A    between atoms: C_1  and  N_2
REMARK    2  A    between atoms: C_3  and  C_5
REMARK    3  A    between atoms: C_8  and  N_9
REMARK    4  A    between atoms: N_9  and  C_10
REMARK    5  A    between atoms: C_10  and  C_11
REMARK    6  A    between atoms: N_15  and  C_16
REMARK                            x       y       z     vdW  Elec       q    Type
REMARK                         _______ _______ _______ _____ _____    ______ ____
ROOT
ATOM      1  C   UNL     1       0.845   9.392  17.860  0.00  0.00    +0.000 C 
ENDROOT
BRANCH   1   2
ATOM      2  C   UNL     1       0.276  10.326  18.887  0.00  0.00    +0.000 A 
ATOM      3  N   UNL     1       0.943  10.681  19.974  0.00  0.00    +0.000 NA
ATOM      4  N   UNL     1       0.139  11.466  20.745  0.00  0.00    +0.000 NA
ATOM      5  C   UNL     1      -1.010  11.595  20.128  0.00  0.00    +0.000 A 
ATOM      6  N   UNL     1      -2.120  12.283  20.581  0.00  0.00    +0.000 N 
ATOM      7  C   UNL     1      -2.131  12.984  21.850  0.00  0.00    +0.000 C 
ATOM      8  C   UNL     1      -3.270  12.307  19.804  0.00  0.00    +0.000 A 
ATOM      9  O   UNL     1      -4.298  12.885  20.150  0.00  0.00    +0.000 OA
ATOM     10  C   UNL     1      -3.233  11.611  18.487  0.00  0.00    +0.000 A 
ATOM     11  C   UNL     1      -4.392  11.631  17.696  0.00  0.00    +0.000 A 
ATOM     12  C   UNL     1      -4.389  11.033  16.441  0.00  0.00    +0.000 A 
ATOM     13  C   UNL     1      -3.225  10.433  15.965  0.00  0.00    +0.000 A 
ATOM     14  C   UNL     1      -2.064  10.395  16.750  0.00  0.00    +0.000 A 
ATOM     15  C   UNL     1      -2.073  10.962  18.027  0.00  0.00    +0.000 A 
ATOM     16  N   UNL     1      -0.972  10.933  18.912  0.00  0.00    +0.000 N 
ENDBRANCH   1   2
BRANCH   1  17
ATOM     17  N   UNL     1       2.268   9.090  18.102  0.00  0.00    +0.000 N 
ATOM     18  H   UNL     1       2.849   9.572  17.410  0.00  0.00    +0.000 HD
BRANCH  17  22
ATOM     19  C   UNL     1       3.654   5.148  18.827  0.00  0.00    +0.000 A 
ATOM     20  C   UNL     1       4.157   5.923  17.771  0.00  0.00    +0.000 A 
ATOM     21  C   UNL     1       3.690   7.224  17.551  0.00  0.00    +0.000 A 
ATOM     22  C   UNL     1       2.691   7.786  18.354  0.00  0.00    +0.000 A 
ATOM     23  C   UNL     1       2.252   7.042  19.451  0.00  0.00    +0.000 A 
ATOM     24  C   UNL     1       2.720   5.736  19.690  0.00  0.00    +0.000 A 
ATOM     25 CL   UNL     1       2.107   4.959  21.111  0.00  0.00    +0.000 Cl
BRANCH  19  28
ATOM     26  C   UNL     1       3.725   1.362  18.446  0.00  0.00    +0.000 C 
ATOM     27  N   UNL     1       3.320   2.744  18.469  0.00  0.00    +0.000 N 
ATOM     28  C   UNL     1       4.157   3.743  18.912  0.00  0.00    +0.000 C 
ATOM     29  O   UNL     1       5.301   3.522  19.300  0.00  0.00    +0.000 OA
ATOM     30  H   UNL     1       2.366   2.973  18.214  0.00  0.00    +0.000 HD
ENDBRANCH  19  28
ENDBRANCH  17  22
ENDBRANCH   1  17
TORSDOF 4
ENDMDL
MODEL 2
REMARK VINA RESULT:      -8.4      3.451      9.169
REMARK  Name = 
REMARK  6 active torsions:
REMARK  status: ('A' for Active; 'I' for Inactive)
REMARK    1  A    between atoms: C_1  and  N_2
REMARK    2  A    between atoms: C_3  and  C_5
REMARK    3  A    between atoms: C_8  and  N_9
REMARK    4  A    between atoms: N_9  and  C_10
REMARK    5  A    between atoms: C_10  and  C_11
REMARK    6  A    between atoms: N_15  and  C_16
REMARK                            x       y       z     vdW  Elec       q    Type
REMARK                         _______ _______ _______ _____ _____    ______ ____
ROOT
ATOM      1  C   UNL     1       2.028   7.841  20.167  0.00  0.00    +0.000 C 
ENDROOT
BRANCH   1   2
ATOM      2  C   UNL     1       1.851   6.356  20.030  0.00  0.00    +0.000 A 
ATOM      3  N   UNL     1       1.035   5.663  20.809  0.00  0.00    +0.000 NA
ATOM      4  N   UNL     1       1.151   4.342  20.497  0.00  0.00    +0.000 NA
ATOM      5  C   UNL     1       2.027   4.231  19.529  0.00  0.00    +0.000 A 
ATOM      6  N   UNL     1       2.465   3.060  18.939  0.00  0.00    +0.000 N 
ATOM      7  C   UNL     1       1.968   1.758  19.341  0.00  0.00    +0.000 C 
ATOM      8  C   UNL     1       3.416   3.120  17.930  0.00  0.00    +0.000 A 
ATOM      9  O   UNL     1       3.864   2.120  17.372  0.00  0.00    +0.000 OA
ATOM     10  C   UNL     1       3.893   4.466  17.505  0.00  0.00    +0.000 A 
ATOM     11  C   UNL     1       4.854   4.535  16.485  0.00  0.00    +0.000 A 
ATOM     12  C   UNL     1       5.295   5.771  16.025  0.00  0.00    +0.000 A 
ATOM     13  C   UNL     1       4.761   6.939  16.567  0.00  0.00    +0.000 A 
ATOM     14  C   UNL     1       3.810   6.884  17.596  0.00  0.00    +0.000 A 
ATOM     15  C   UNL     1       3.392   5.645  18.087  0.00  0.00    +0.000 A 
ATOM     16  N   UNL     1       2.476   5.484  19.150  0.00  0.00    +0.000 N 
ENDBRANCH   1   2
BRANCH   1  17
ATOM     17  N   UNL     1       1.721   8.321  21.527  0.00  0.00    +0.000 N 
ATOM     18  H   UNL     1       1.617   7.524  22.162  0.00  0.00    +0.000 HD
BRANCH  17  22
ATOM     19  C   UNL     1      -1.165  11.338  22.276  0.00  0.00    +0.000 A 
ATOM     20  C   UNL     1      -0.861  10.356  23.230  0.00  0.00    +0.000 A 
ATOM     21  C   UNL     1       0.099   9.371  22.967  0.00  0.00    +0.000 A 
ATOM     22  C   UNL     1       0.766   9.313  21.737  0.00  0.00    +0.000 A 
ATOM     23  C   UNL     1       0.519  10.339  20.822  0.00  0.00    +0.000 A 
ATOM     24  C   UNL     1      -0.436  11.341  21.079  0.00  0.00    +0.000 A 
ATOM     25 CL   UNL     1      -0.601  12.561  19.861  0.00  0.00    +0.000 Cl
BRANCH  19  28
ATOM     26  C   UNL     1      -4.223  12.731  24.061  0.00  0.00    +0.000 C 
ATOM     27  N   UNL     1      -3.159  11.877  23.597  0.00  0.00    +0.000 N 
ATOM     28  C   UNL     1      -2.268  12.282  22.629  0.00  0.00    +0.000 C 
ATOM     29  O   UNL     1      -2.315  13.394  22.112  0.00  0.00    +0.000 OA
ATOM     30  H   UNL     1      -3.112  10.929  23.950  0.00  0.00    +0.000 HD
ENDBRANCH  19  28
ENDBRANCH  17  22
ENDBRANCH   1  17
TORSDOF 4
ENDMDL
MODEL 3
REMARK VINA RESULT:      -8.2      1.097      1.422
REMARK  Name = 
REMARK  6 active torsions:
REMARK  status: ('A' for Active; 'I' for Inactive)
REMARK    1  A    between atoms: C_1  and  N_2
REMARK    2  A    between atoms: C_3  and  C_5
REMARK    3  A    between atoms: C_8  and  N_9
REMARK    4  A    between atoms: N_9  and  C_10
REMARK    5  A    between atoms: C_10  and  C_11
REMARK    6  A    between atoms: N_15  and  C_16
REMARK                            x       y       z     vdW  Elec       q    Type
REMARK                         _______ _______ _______ _____ _____    ______ ____
ROOT
ATOM      1  C   UNL     1       0.838   9.450  17.996  0.00  0.00    +0.000 C 
ENDROOT
BRANCH   1   2
ATOM      2  C   UNL     1       0.225  10.384  18.999  0.00  0.00    +0.000 A 
ATOM      3  N   UNL     1       0.854  10.754  20.103  0.00  0.00    +0.000 NA
ATOM      4  N   UNL     1       0.016  11.534  20.843  0.00  0.00    +0.000 NA
ATOM      5  C   UNL     1      -1.115  11.645  20.190  0.00  0.00    +0.000 A 
ATOM      6  N   UNL     1      -2.247  12.321  20.603  0.00  0.00    +0.000 N 
ATOM      7  C   UNL     1      -2.306  13.031  21.867  0.00  0.00    +0.000 C 
ATOM      8  C   UNL     1      -3.372  12.326  19.791  0.00  0.00    +0.000 A 
ATOM      9  O   UNL     1      -4.418  12.893  20.100  0.00  0.00    +0.000 OA
ATOM     10  C   UNL     1      -3.285  11.621  18.481  0.00  0.00    +0.000 A 
ATOM     11  C   UNL     1      -4.419  11.622  17.654  0.00  0.00    +0.000 A 
ATOM     12  C   UNL     1      -4.369  11.016  16.404  0.00  0.00    +0.000 A 
ATOM     13  C   UNL     1      -3.183  10.428  15.968  0.00  0.00    +0.000 A 
ATOM     14  C   UNL     1      -2.047  10.409  16.790  0.00  0.00    +0.000 A 
ATOM     15  C   UNL     1      -2.103  10.984  18.062  0.00  0.00    +0.000 A 
ATOM     16  N   UNL     1      -1.031  10.975  18.981  0.00  0.00    +0.000 N 
ENDBRANCH   1   2
BRANCH   1  17
ATOM     17  N   UNL     1       2.261   9.183  18.274  0.00  0.00    +0.000 N 
ATOM     18  H   UNL     1       2.849   9.794  17.700  0.00  0.00    +0.000 HD
BRANCH  17  22
ATOM     19  C   UNL     1       3.636   5.181  18.552  0.00  0.00    +0.000 A 
ATOM     20  C   UNL     1       2.734   5.716  19.483  0.00  0.00    +0.000 A 
ATOM     21  C   UNL     1       2.287   7.038  19.372  0.00  0.00    +0.000 A 
ATOM     22  C   UNL     1       2.744   7.878  18.350  0.00  0.00    +0.000 A 
ATOM     23  C   UNL     1       3.578   7.317  17.380  0.00  0.00    +0.000 A 
ATOM     24  C   UNL     1       4.027   5.986  17.474  0.00  0.00    +0.000 A 
ATOM     25 CL   UNL     1       5.027   5.429  16.175  0.00  0.00    +0.000 Cl
BRANCH  19  28
ATOM     26  C   UNL     1       3.676   1.375  18.595  0.00  0.00    +0.000 C 
ATOM     27  N   UNL     1       3.290   2.755  18.441  0.00  0.00    +0.000 N 
ATOM     28  C   UNL     1       4.114   3.790  18.821  0.00  0.00    +0.000 C 
ATOM     29  O   UNL     1       5.230   3.605  19.300  0.00  0.00    +0.000 OA
ATOM     30  H   UNL     1       2.357   2.961  18.106  0.00  0.00    +0.000 HD
ENDBRANCH  19  28
ENDBRANCH  17  22
ENDBRANCH   1  17
TORSDOF 4
ENDMDL
MODEL 4
REMARK VINA RESULT:      -8.2      1.449      1.572
REMARK  Name = 
REMARK  6 active torsions:
REMARK  status: ('A' for Active; 'I' for Inactive)
REMARK    1  A    between atoms: C_1  and  N_2
REMARK    2  A    between atoms: C_3  and  C_5
REMARK    3  A    between atoms: C_8  and  N_9
REMARK    4  A    between atoms: N_9  and  C_10
REMARK    5  A    between atoms: C_10  and  C_11
REMARK    6  A    between atoms: N_15  and  C_16
REMARK                            x       y       z     vdW  Elec       q    Type
REMARK                         _______ _______ _______ _____ _____    ______ ____
ROOT
ATOM      1  C   UNL     1       1.400   9.638  19.745  0.00  0.00    +0.000 C 
ENDROOT
BRANCH   1   2
ATOM      2  C   UNL     1       0.620  10.748  20.389  0.00  0.00    +0.000 A 
ATOM      3  N   UNL     1       1.048  11.384  21.469  0.00  0.00    +0.000 NA
ATOM      4  N   UNL     1       0.093  12.274  21.859  0.00  0.00    +0.000 NA
ATOM      5  C   UNL     1      -0.908  12.187  21.018  0.00  0.00    +0.000 A 
ATOM      6  N   UNL     1      -2.097  12.891  21.068  0.00  0.00    +0.000 N 
ATOM      7  C   UNL     1      -2.375  13.864  22.107  0.00  0.00    +0.000 C 
ATOM      8  C   UNL     1      -3.065  12.664  20.101  0.00  0.00    +0.000 A 
ATOM      9  O   UNL     1      -4.150  13.241  20.092  0.00  0.00    +0.000 OA
ATOM     10  C   UNL     1      -2.751  11.686  19.020  0.00  0.00    +0.000 A 
ATOM     11  C   UNL     1      -3.725  11.452  18.038  0.00  0.00    +0.000 A 
ATOM     12  C   UNL     1      -3.458  10.581  16.987  0.00  0.00    +0.000 A 
ATOM     13  C   UNL     1      -2.213   9.961  16.903  0.00  0.00    +0.000 A 
ATOM     14  C   UNL     1      -1.236  10.177  17.885  0.00  0.00    +0.000 A 
ATOM     15  C   UNL     1      -1.513  11.021  18.963  0.00  0.00    +0.000 A 
ATOM     16  N   UNL     1      -0.615  11.265  20.026  0.00  0.00    +0.000 N 
ENDBRANCH   1   2
BRANCH   1  17
ATOM     17  N   UNL     1       1.522   8.456  20.618  0.00  0.00    +0.000 N 
ATOM     18  H   UNL     1       2.114   8.678  21.423  0.00  0.00    +0.000 HD
BRANCH  17  22
ATOM     19  C   UNL     1       2.387   4.659  18.940  0.00  0.00    +0.000 A 
ATOM     20  C   UNL     1       2.715   5.850  18.275  0.00  0.00    +0.000 A 
ATOM     21  C   UNL     1       2.426   7.094  18.848  0.00  0.00    +0.000 A 
ATOM     22  C   UNL     1       1.778   7.195  20.084  0.00  0.00    +0.000 A 
ATOM     23  C   UNL     1       1.527   6.009  20.778  0.00  0.00    +0.000 A 
ATOM     24  C   UNL     1       1.822   4.751  20.219  0.00  0.00    +0.000 A 
ATOM     25 CL   UNL     1       1.485   3.379  21.219  0.00  0.00    +0.000 Cl
BRANCH  19  28
ATOM     26  C   UNL     1       3.835   1.225  18.165  0.00  0.00    +0.000 C 
ATOM     27  N   UNL     1       3.546   2.504  18.763  0.00  0.00    +0.000 N 
ATOM     28  C   UNL     1       2.660   3.391  18.195  0.00  0.00    +0.000 C 
ATOM     29  O   UNL     1       2.053   3.146  17.157  0.00  0.00    +0.000 OA
ATOM     30  H   UNL     1       4.064   2.779  19.589  0.00  0.00    +0.000 HD
ENDBRANCH  19  28
ENDBRANCH  17  22
ENDBRANCH   1  17
TORSDOF 4
ENDMDL
MODEL 5
REMARK VINA RESULT:      -8.2      2.500      9.084
REMARK  Name = 
REMARK  6 active torsions:
REMARK  status: ('A' for Active; 'I' for Inactive)
REMARK    1  A    between atoms: C_1  and  N_2
REMARK    2  A    between atoms: C_3  and  C_5
REMARK    3  A    between atoms: C_8  and  N_9
REMARK    4  A    between atoms: N_9  and  C_10
REMARK    5  A    between atoms: C_10  and  C_11
REMARK    6  A    between atoms: N_15  and  C_16
REMARK                            x       y       z     vdW  Elec       q    Type
REMARK                         _______ _______ _______ _____ _____    ______ ____
ROOT
ATOM      1  C   UNL     1       2.088   8.134  18.905  0.00  0.00    +0.000 C 
ENDROOT
BRANCH   1   2
ATOM      2  C   UNL     1       3.037   7.217  18.190  0.00  0.00    +0.000 A 
ATOM      3  N   UNL     1       3.931   7.658  17.319  0.00  0.00    +0.000 NA
ATOM      4  N   UNL     1       4.584   6.589  16.783  0.00  0.00    +0.000 NA
ATOM      5  C   UNL     1       4.096   5.502  17.329  0.00  0.00    +0.000 A 
ATOM      6  N   UNL     1       4.454   4.198  17.043  0.00  0.00    +0.000 N 
ATOM      7  C   UNL     1       5.472   3.874  16.063  0.00  0.00    +0.000 C 
ATOM      8  C   UNL     1       3.822   3.156  17.706  0.00  0.00    +0.000 A 
ATOM      9  O   UNL     1       4.077   1.974  17.492  0.00  0.00    +0.000 OA
ATOM     10  C   UNL     1       2.801   3.506  18.735  0.00  0.00    +0.000 A 
ATOM     11  C   UNL     1       2.158   2.458  19.411  0.00  0.00    +0.000 A 
ATOM     12  C   UNL     1       1.232   2.738  20.409  0.00  0.00    +0.000 A 
ATOM     13  C   UNL     1       0.963   4.063  20.750  0.00  0.00    +0.000 A 
ATOM     14  C   UNL     1       1.589   5.119  20.074  0.00  0.00    +0.000 A 
ATOM     15  C   UNL     1       2.493   4.844  19.044  0.00  0.00    +0.000 A 
ATOM     16  N   UNL     1       3.138   5.835  18.272  0.00  0.00    +0.000 N 
ENDBRANCH   1   2
BRANCH   1  17
ATOM     17  N   UNL     1       1.747   9.325  18.106  0.00  0.00    +0.000 N 
ATOM     18  H   UNL     1       2.531   9.983  18.111  0.00  0.00    +0.000 HD
BRANCH  17  22
ATOM     19  C   UNL     1      -2.068  11.136  18.503  0.00  0.00    +0.000 A 
ATOM     20  C   UNL     1      -1.846  10.072  17.616  0.00  0.00    +0.000 A 
ATOM     21  C   UNL     1      -0.581   9.483  17.503  0.00  0.00    +0.000 A 
ATOM     22  C   UNL     1       0.510   9.951  18.245  0.00  0.00    +0.000 A 
ATOM     23  C   UNL     1       0.265  10.955  19.185  0.00  0.00    +0.000 A 
ATOM     24  C   UNL     1      -1.005  11.548  19.316  0.00  0.00    +0.000 A 
ATOM     25 CL   UNL     1      -1.154  12.754  20.549  0.00  0.00    +0.000 Cl
BRANCH  19  28
ATOM     26  C   UNL     1      -5.410  12.320  17.119  0.00  0.00    +0.000 C 
ATOM     27  N   UNL     1      -4.069  11.811  17.255  0.00  0.00    +0.000 N 
ATOM     28  C   UNL     1      -3.433  11.745  18.474  0.00  0.00    +0.000 C 
ATOM     29  O   UNL     1      -3.969  12.101  19.519  0.00  0.00    +0.000 OA
ATOM     30  H   UNL     1      -3.561  11.559  16.415  0.00  0.00    +0.000 HD
ENDBRANCH  19  28
ENDBRANCH  17  22
ENDBRANCH   1  17
TORSDOF 4
ENDMDL
MODEL 6
REMARK VINA RESULT:      -8.2      3.177      9.236
REMARK  Name = 
REMARK  6 active torsions:
REMARK  status: ('A' for Active; 'I' for Inactive)
REMARK    1  A    between atoms: C_1  and  N_2
REMARK    2  A    between atoms: C_3  and  C_5
REMARK    3  A    between atoms: C_8  and  N_9
REMARK    4  A    between atoms: N_9  and  C_10
REMARK    5  A    between atoms: C_10  and  C_11
REMARK    6  A    between atoms: N_15  and  C_16
REMARK                            x       y       z     vdW  Elec       q    Type
REMARK                         _______ _______ _______ _____ _____    ______ ____
ROOT
ATOM      1  C   UNL     1       1.773   7.963  20.078  0.00  0.00    +0.000 C 
ENDROOT
BRANCH   1   2
ATOM      2  C   UNL     1       2.633   7.295  19.045  0.00  0.00    +0.000 A 
ATOM      3  N   UNL     1       3.269   7.973  18.102  0.00  0.00    +0.000 NA
ATOM      4  N   UNL     1       3.896   7.089  17.276  0.00  0.00    +0.000 NA
ATOM      5  C   UNL     1       3.650   5.880  17.717  0.00  0.00    +0.000 A 
ATOM      6  N   UNL     1       4.069   4.691  17.150  0.00  0.00    +0.000 N 
ATOM      7  C   UNL     1       4.879   4.650  15.948  0.00  0.00    +0.000 C 
ATOM      8  C   UNL     1       3.704   3.489  17.740  0.00  0.00    +0.000 A 
ATOM      9  O   UNL     1       4.026   2.394  17.284  0.00  0.00    +0.000 OA
ATOM     10  C   UNL     1       2.900   3.547  18.994  0.00  0.00    +0.000 A 
ATOM     11  C   UNL     1       2.528   2.336  19.597  0.00  0.00    +0.000 A 
ATOM     12  C   UNL     1       1.815   2.343  20.791  0.00  0.00    +0.000 A 
ATOM     13  C   UNL     1       1.493   3.556  21.396  0.00  0.00    +0.000 A 
ATOM     14  C   UNL     1       1.848   4.773  20.797  0.00  0.00    +0.000 A 
ATOM     15  C   UNL     1       2.531   4.772  19.578  0.00  0.00    +0.000 A 
ATOM     16  N   UNL     1       2.890   5.942  18.872  0.00  0.00    +0.000 N 
ENDBRANCH   1   2
BRANCH   1  17
ATOM     17  N   UNL     1       0.947   9.044  19.508  0.00  0.00    +0.000 N 
ATOM     18  H   UNL     1       1.470   9.532  18.775  0.00  0.00    +0.000 HD
BRANCH  17  22
ATOM     19  C   UNL     1      -1.170  11.648  22.100  0.00  0.00    +0.000 A 
ATOM     20  C   UNL     1      -0.547  10.484  22.574  0.00  0.00    +0.000 A 
ATOM     21  C   UNL     1       0.152   9.640  21.703  0.00  0.00    +0.000 A 
ATOM     22  C   UNL     1       0.231   9.909  20.332  0.00  0.00    +0.000 A 
ATOM     23  C   UNL     1      -0.322  11.110  19.879  0.00  0.00    +0.000 A 
ATOM     24  C   UNL     1      -1.018  11.973  20.746  0.00  0.00    +0.000 A 
ATOM     25 CL   UNL     1      -1.613  13.438  20.040  0.00  0.00    +0.000 Cl
BRANCH  19  28
ATOM     26  C   UNL     1      -4.042  12.585  24.415  0.00  0.00    +0.000 C 
ATOM     27  N   UNL     1      -3.216  11.952  23.418  0.00  0.00    +0.000 N 
ATOM     28  C   UNL     1      -1.963  12.425  23.101  0.00  0.00    +0.000 C 
ATOM     29  O   UNL     1      -1.467  13.403  23.654  0.00  0.00    +0.000 OA
ATOM     30  H   UNL     1      -3.602  11.177  22.892  0.00  0.00    +0.000 HD
ENDBRANCH  19  28
ENDBRANCH  17  22
ENDBRANCH   1  17
TORSDOF 4
ENDMDL
MODEL 7
REMARK VINA RESULT:      -8.2      3.688      9.302
REMARK  Name = 
REMARK  6 active torsions:
REMARK  status: ('A' for Active; 'I' for Inactive)
REMARK    1  A    between atoms: C_1  and  N_2
REMARK    2  A    between atoms: C_3  and  C_5
REMARK    3  A    between atoms: C_8  and  N_9
REMARK    4  A    between atoms: N_9  and  C_10
REMARK    5  A    between atoms: C_10  and  C_11
REMARK    6  A    between atoms: N_15  and  C_16
REMARK                            x       y       z     vdW  Elec       q    Type
REMARK                         _______ _______ _______ _____ _____    ______ ____
ROOT
ATOM      1  C   UNL     1       1.235   7.394  20.567  0.00  0.00    +0.000 C 
ENDROOT
BRANCH   1   2
ATOM      2  C   UNL     1       2.208   7.312  19.427  0.00  0.00    +0.000 A 
ATOM      3  N   UNL     1       2.459   8.339  18.631  0.00  0.00    +0.000 NA
ATOM      4  N   UNL     1       3.316   7.936  17.652  0.00  0.00    +0.000 NA
ATOM      5  C   UNL     1       3.593   6.671  17.855  0.00  0.00    +0.000 A 
ATOM      6  N   UNL     1       4.397   5.864  17.072  0.00  0.00    +0.000 N 
ATOM      7  C   UNL     1       5.068   6.358  15.885  0.00  0.00    +0.000 C 
ATOM      8  C   UNL     1       4.573   4.532  17.422  0.00  0.00    +0.000 A 
ATOM      9  O   UNL     1       5.260   3.753  16.766  0.00  0.00    +0.000 OA
ATOM     10  C   UNL     1       3.905   4.047  18.664  0.00  0.00    +0.000 A 
ATOM     11  C   UNL     1       4.078   2.702  19.025  0.00  0.00    +0.000 A 
ATOM     12  C   UNL     1       3.510   2.218  20.198  0.00  0.00    +0.000 A 
ATOM     13  C   UNL     1       2.788   3.078  21.022  0.00  0.00    +0.000 A 
ATOM     14  C   UNL     1       2.597   4.421  20.666  0.00  0.00    +0.000 A 
ATOM     15  C   UNL     1       3.134   4.903  19.470  0.00  0.00    +0.000 A 
ATOM     16  N   UNL     1       2.957   6.224  19.000  0.00  0.00    +0.000 N 
ENDBRANCH   1   2
BRANCH   1  17
ATOM     17  N   UNL     1       1.613   8.419  21.557  0.00  0.00    +0.000 N 
ATOM     18  H   UNL     1       2.020   7.972  22.383  0.00  0.00    +0.000 HD
BRANCH  17  22
ATOM     19  C   UNL     1      -1.021  11.566  22.627  0.00  0.00    +0.000 A 
ATOM     20  C   UNL     1      -0.982  10.361  23.345  0.00  0.00    +0.000 A 
ATOM     21  C   UNL     1      -0.102   9.336  22.979  0.00  0.00    +0.000 A 
ATOM     22  C   UNL     1       0.747   9.463  21.874  0.00  0.00    +0.000 A 
ATOM     23  C   UNL     1       0.762  10.693  21.212  0.00  0.00    +0.000 A 
ATOM     24  C   UNL     1      -0.110  11.736  21.576  0.00  0.00    +0.000 A 
ATOM     25 CL   UNL     1       0.056  13.210  20.683  0.00  0.00    +0.000 Cl
BRANCH  19  28
ATOM     26  C   UNL     1      -4.461  13.014  23.370  0.00  0.00    +0.000 C 
ATOM     27  N   UNL     1      -3.379  12.169  22.935  0.00  0.00    +0.000 N 
ATOM     28  C   UNL     1      -2.062  12.552  23.050  0.00  0.00    +0.000 C 
ATOM     29  O   UNL     1      -1.727  13.627  23.540  0.00  0.00    +0.000 OA
ATOM     30  H   UNL     1      -3.603  11.297  22.470  0.00  0.00    +0.000 HD
ENDBRANCH  19  28
ENDBRANCH  17  22
ENDBRANCH   1  17
TORSDOF 4
ENDMDL
MODEL 8
REMARK VINA RESULT:      -8.1      2.548      9.037
REMARK  Name = 
REMARK  6 active torsions:
REMARK  status: ('A' for Active; 'I' for Inactive)
REMARK    1  A    between atoms: C_1  and  N_2
REMARK    2  A    between atoms: C_3  and  C_5
REMARK    3  A    between atoms: C_8  and  N_9
REMARK    4  A    between atoms: N_9  and  C_10
REMARK    5  A    between atoms: C_10  and  C_11
REMARK    6  A    between atoms: N_15  and  C_16
REMARK                            x       y       z     vdW  Elec       q    Type
REMARK                         _______ _______ _______ _____ _____    ______ ____
ROOT
ATOM      1  C   UNL     1       1.501   8.331  19.460  0.00  0.00    +0.000 C 
ENDROOT
BRANCH   1   2
ATOM      2  C   UNL     1       2.518   7.638  18.602  0.00  0.00    +0.000 A 
ATOM      3  N   UNL     1       3.285   8.289  17.742  0.00  0.00    +0.000 NA
ATOM      4  N   UNL     1       4.043   7.384  17.060  0.00  0.00    +0.000 NA
ATOM      5  C   UNL     1       3.744   6.189  17.507  0.00  0.00    +0.000 A 
ATOM      6  N   UNL     1       4.259   4.986  17.061  0.00  0.00    +0.000 N 
ATOM      7  C   UNL     1       5.246   4.912  16.002  0.00  0.00    +0.000 C 
ATOM      8  C   UNL     1       3.820   3.802  17.637  0.00  0.00    +0.000 A 
ATOM      9  O   UNL     1       4.220   2.696  17.282  0.00  0.00    +0.000 OA
ATOM     10  C   UNL     1       2.830   3.895  18.748  0.00  0.00    +0.000 A 
ATOM     11  C   UNL     1       2.382   2.703  19.336  0.00  0.00    +0.000 A 
ATOM     12  C   UNL     1       1.492   2.745  20.404  0.00  0.00    +0.000 A 
ATOM     13  C   UNL     1       1.067   3.975  20.901  0.00  0.00    +0.000 A 
ATOM     14  C   UNL     1       1.497   5.174  20.314  0.00  0.00    +0.000 A 
ATOM     15  C   UNL     1       2.361   5.136  19.217  0.00  0.00    +0.000 A 
ATOM     16  N   UNL     1       2.813   6.284  18.527  0.00  0.00    +0.000 N 
ENDBRANCH   1   2
BRANCH   1  17
ATOM     17  N   UNL     1       1.156   9.671  18.951  0.00  0.00    +0.000 N 
ATOM     18  H   UNL     1       1.636  10.388  19.503  0.00  0.00    +0.000 HD
BRANCH  17  22
ATOM     19  C   UNL     1      -2.847  10.788  18.104  0.00  0.00    +0.000 A 
ATOM     20  C   UNL     1      -2.196  11.211  19.272  0.00  0.00    +0.000 A 
ATOM     21  C   UNL     1      -0.872  10.837  19.531  0.00  0.00    +0.000 A 
ATOM     22  C   UNL     1      -0.163  10.007  18.654  0.00  0.00    +0.000 A 
ATOM     23  C   UNL     1      -0.788   9.655  17.456  0.00  0.00    +0.000 A 
ATOM     24  C   UNL     1      -2.115  10.034  17.178  0.00  0.00    +0.000 A 
ATOM     25 CL   UNL     1      -2.734   9.549  15.635  0.00  0.00    +0.000 Cl
BRANCH  19  28
ATOM     26  C   UNL     1      -5.932  12.709  16.973  0.00  0.00    +0.000 C 
ATOM     27  N   UNL     1      -4.577  12.284  17.217  0.00  0.00    +0.000 N 
ATOM     28  C   UNL     1      -4.286  11.172  17.975  0.00  0.00    +0.000 C 
ATOM     29  O   UNL     1      -5.158  10.468  18.478  0.00  0.00    +0.000 OA
ATOM     30  H   UNL     1      -3.820  12.862  16.874  0.00  0.00    +0.000 HD
ENDBRANCH  19  28
ENDBRANCH  17  22
ENDBRANCH   1  17
TORSDOF 4
ENDMDL
MODEL 9
REMARK VINA RESULT:      -8.1      1.401      1.777
REMARK  Name = 
REMARK  6 active torsions:
REMARK  status: ('A' for Active; 'I' for Inactive)
REMARK    1  A    between atoms: C_1  and  N_2
REMARK    2  A    between atoms: C_3  and  C_5
REMARK    3  A    between atoms: C_8  and  N_9
REMARK    4  A    between atoms: N_9  and  C_10
REMARK    5  A    between atoms: C_10  and  C_11
REMARK    6  A    between atoms: N_15  and  C_16
REMARK                            x       y       z     vdW  Elec       q    Type
REMARK                         _______ _______ _______ _____ _____    ______ ____
ROOT
ATOM      1  C   UNL     1       1.089   9.682  19.862  0.00  0.00    +0.000 C 
ENDROOT
BRANCH   1   2
ATOM      2  C   UNL     1       0.218  10.748  20.460  0.00  0.00    +0.000 A 
ATOM      3  N   UNL     1       0.524  11.365  21.591  0.00  0.00    +0.000 NA
ATOM      4  N   UNL     1      -0.491  12.215  21.914  0.00  0.00    +0.000 NA
ATOM      5  C   UNL     1      -1.408  12.122  20.982  0.00  0.00    +0.000 A 
ATOM      6  N   UNL     1      -2.618  12.788  20.942  0.00  0.00    +0.000 N 
ATOM      7  C   UNL     1      -3.022  13.722  21.975  0.00  0.00    +0.000 C 
ATOM      8  C   UNL     1      -3.486  12.561  19.883  0.00  0.00    +0.000 A 
ATOM      9  O   UNL     1      -4.584  13.105  19.789  0.00  0.00    +0.000 OA
ATOM     10  C   UNL     1      -3.043  11.625  18.810  0.00  0.00    +0.000 A 
ATOM     11  C   UNL     1      -3.915  11.391  17.736  0.00  0.00    +0.000 A 
ATOM     12  C   UNL     1      -3.525  10.560  16.692  0.00  0.00    +0.000 A 
ATOM     13  C   UNL     1      -2.258   9.980  16.707  0.00  0.00    +0.000 A 
ATOM     14  C   UNL     1      -1.382  10.195  17.781  0.00  0.00    +0.000 A 
ATOM     15  C   UNL     1      -1.784  10.999  18.851  0.00  0.00    +0.000 A 
ATOM     16  N   UNL     1      -0.995  11.239  19.998  0.00  0.00    +0.000 N 
ENDBRANCH   1   2
BRANCH   1  17
ATOM     17  N   UNL     1       1.104   8.449  20.670  0.00  0.00    +0.000 N 
ATOM     18  H   UNL     1       1.272   8.679  21.653  0.00  0.00    +0.000 HD
BRANCH  17  22
ATOM     19  C   UNL     1       3.163   4.959  19.419  0.00  0.00    +0.000 A 
ATOM     20  C   UNL     1       2.282   4.943  20.511  0.00  0.00    +0.000 A 
ATOM     21  C   UNL     1       1.607   6.104  20.905  0.00  0.00    +0.000 A 
ATOM     22  C   UNL     1       1.807   7.323  20.247  0.00  0.00    +0.000 A 
ATOM     23  C   UNL     1       2.622   7.316  19.112  0.00  0.00    +0.000 A 
ATOM     24  C   UNL     1       3.298   6.153  18.698  0.00  0.00    +0.000 A 
ATOM     25 CL   UNL     1       4.241   6.298  17.253  0.00  0.00    +0.000 Cl
BRANCH  19  28
ATOM     26  C   UNL     1       3.760   1.349  18.372  0.00  0.00    +0.000 C 
ATOM     27  N   UNL     1       3.152   2.607  18.725  0.00  0.00    +0.000 N 
ATOM     28  C   UNL     1       3.896   3.686  19.145  0.00  0.00    +0.000 C 
ATOM     29  O   UNL     1       5.121   3.650  19.232  0.00  0.00    +0.000 OA
ATOM     30  H   UNL     1       2.141   2.670  18.726  0.00  0.00    +0.000 HD
ENDBRANCH  19  28
ENDBRANCH  17  22
ENDBRANCH   1  17
TORSDOF 4
ENDMDL
