MODEL 1
REMARK VINA RESULT:      -8.5      0.000      0.000
REMARK  Name = 
REMARK  9 active torsions:
REMARK  status: ('A' for Active; 'I' for Inactive)
REMARK    1  A    between atoms: C_1  and  C_2
REMARK    2  A    between atoms: C_2  and  C_3
REMARK    3  A    between atoms: C_2  and  N_24
REMARK    4  A    between atoms: N_5  and  C_6
REMARK    5  A    between atoms: N_5  and  C_7
REMARK    6  A    between atoms: C_7  and  C_8
REMARK    7  A    between atoms: N_10  and  C_11
REMARK    8  A    between atoms: C_11  and  C_12
REMARK    9  A    between atoms: C_11  and  C_18
REMARK                            x       y       z     vdW  Elec       q    Type
REMARK                         _______ _______ _______ _____ _____    ______ ____
ROOT
ATOM      1  C   UNL     1       1.967   8.870  19.845  0.00  0.00    +0.000 C 
ENDROOT
BRANCH   1   4
ATOM      2  C   UNL     1       0.529  10.753  20.253  0.00  0.00    +0.000 C 
ATOM      3  O   UNL     1       1.378  11.481  19.734  0.00  0.00    +0.000 OA
ATOM      4  N   UNL     1       0.751   9.401  20.466  0.00  0.00    +0.000 N 
ATOM      5  C   UNL     1      -0.252   8.483  21.006  0.00  0.00    +0.000 C 
BRANCH   2   7
ATOM      6  C   UNL     1      -1.555  11.891  19.427  0.00  0.00    +0.000 C 
ATOM      7  C   UNL     1      -0.837  11.300  20.653  0.00  0.00    +0.000 C 
BRANCH   7   8
ATOM      8  N   UNL     1      -0.768  12.250  21.765  0.00  0.00    +0.000 N 
ATOM      9  C   UNL     1      -1.300  11.771  22.936  0.00  0.00    +0.000 C 
ATOM     10  O   UNL     1      -1.008  10.758  23.541  0.00  0.00    +0.000 OA
ATOM     11  C   UNL     1      -2.430  12.634  23.247  0.00  0.00    +0.000 A 
ATOM     12  C   UNL     1      -3.603  12.291  23.888  0.00  0.00    +0.000 A 
ATOM     13  C   UNL     1      -4.681  13.161  23.734  0.00  0.00    +0.000 A 
ATOM     14  C   UNL     1      -4.555  14.353  22.984  0.00  0.00    +0.000 A 
ATOM     15  C   UNL     1      -3.369  14.662  22.321  0.00  0.00    +0.000 A 
ATOM     16  C   UNL     1      -2.333  13.755  22.447  0.00  0.00    +0.000 A 
ATOM     17  C   UNL     1      -1.186  13.546  21.564  0.00  0.00    +0.000 C 
ATOM     18  O   UNL     1      -0.752  14.381  20.800  0.00  0.00    +0.000 OA
ENDBRANCH   7   8
ENDBRANCH   2   7
ENDBRANCH   1   4
BRANCH   1  19
ATOM     19  C   UNL     1       1.816   8.483  18.374  0.00  0.00    +0.000 C 
ATOM     20  O   UNL     1       1.196   9.183  17.575  0.00  0.00    +0.000 OA
ATOM     21  N   UNL     1       2.272   7.249  17.987  0.00  0.00    +0.000 N 
ATOM     22  H   UNL     1       2.124   7.026  17.013  0.00  0.00    +0.000 HD
BRANCH  21  23
ATOM     23  C   UNL     1       3.072   6.350  18.804  0.00  0.00    +0.000 C 
BRANCH  23  24
ATOM     24  C   UNL     1       2.311   5.093  19.171  0.00  0.00    +0.000 A 
ATOM     25  C   UNL     1       1.917   4.827  20.490  0.00  0.00    +0.000 A 
ATOM     26  C   UNL     1       1.162   3.688  20.779  0.00  0.00    +0.000 A 
ATOM     27  C   UNL     1       0.802   2.802  19.763  0.00  0.00    +0.000 A 
ATOM     28  C   UNL     1       1.202   3.051  18.453  0.00  0.00    +0.000 A 
ATOM     29  C   UNL     1       1.959   4.185  18.159  0.00  0.00    +0.000 A 
ENDBRANCH  23  24
BRANCH  23  30
ATOM     30  C   UNL     1       4.429   6.069  18.168  0.00  0.00    +0.000 A 
ATOM     31  C   UNL     1       4.654   6.474  16.845  0.00  0.00    +0.000 A 
ATOM     32  C   UNL     1       5.867   6.192  16.220  0.00  0.00    +0.000 A 
ATOM     33  C   UNL     1       6.865   5.511  16.910  0.00  0.00    +0.000 A 
ATOM     34  C   UNL     1       6.655   5.109  18.228  0.00  0.00    +0.000 A 
ATOM     35  C   UNL     1       5.444   5.388  18.857  0.00  0.00    +0.000 A 
ENDBRANCH  23  30
ENDBRANCH  21  23
ENDBRANCH   1  19
TORSDOF 7
ENDMDL
MODEL 2
REMARK VINA RESULT:      -8.5      0.161      1.177
REMARK  Name = 
REMARK  9 active torsions:
REMARK  status: ('A' for Active; 'I' for Inactive)
REMARK    1  A    between atoms: C_1  and  C_2
REMARK    2  A    between atoms: C_2  and  C_3
REMARK    3  A    between atoms: C_2  and  N_24
REMARK    4  A    between atoms: N_5  and  C_6
REMARK    5  A    between atoms: N_5  and  C_7
REMARK    6  A    between atoms: C_7  and  C_8
REMARK    7  A    between atoms: N_10  and  C_11
REMARK    8  A    between atoms: C_11  and  C_12
REMARK    9  A    between atoms: C_11  and  C_18
REMARK                            x       y       z     vdW  Elec       q    Type
REMARK                         _______ _______ _______ _____ _____    ______ ____
ROOT
ATOM      1  C   UNL     1       2.029   8.899  19.743  0.00  0.00    +0.000 C 
ENDROOT
BRANCH   1   4
ATOM      2  C   UNL     1       0.549  10.739  20.198  0.00  0.00    +0.000 C 
ATOM      3  O   UNL     1       1.356  11.490  19.645  0.00  0.00    +0.000 OA
ATOM      4  N   UNL     1       0.821   9.396  20.408  0.00  0.00    +0.000 N 
ATOM      5  C   UNL     1      -0.133   8.450  20.987  0.00  0.00    +0.000 C 
BRANCH   2   7
ATOM      6  C   UNL     1      -1.594  11.817  19.447  0.00  0.00    +0.000 C 
ATOM      7  C   UNL     1      -0.817  11.247  20.647  0.00  0.00    +0.000 C 
BRANCH   7   8
ATOM      8  N   UNL     1      -0.736  12.198  21.756  0.00  0.00    +0.000 N 
ATOM      9  C   UNL     1      -1.282  11.732  22.926  0.00  0.00    +0.000 C 
ATOM     10  O   UNL     1      -1.013  10.716  23.535  0.00  0.00    +0.000 OA
ATOM     11  C   UNL     1      -2.398  12.617  23.229  0.00  0.00    +0.000 A 
ATOM     12  C   UNL     1      -3.580  12.297  23.864  0.00  0.00    +0.000 A 
ATOM     13  C   UNL     1      -4.642  13.187  23.703  0.00  0.00    +0.000 A 
ATOM     14  C   UNL     1      -4.490  14.373  22.950  0.00  0.00    +0.000 A 
ATOM     15  C   UNL     1      -3.295  14.659  22.292  0.00  0.00    +0.000 A 
ATOM     16  C   UNL     1      -2.276  13.733  22.426  0.00  0.00    +0.000 A 
ATOM     17  C   UNL     1      -1.129  13.501  21.549  0.00  0.00    +0.000 C 
ATOM     18  O   UNL     1      -0.675  14.325  20.786  0.00  0.00    +0.000 OA
ENDBRANCH   7   8
ENDBRANCH   2   7
ENDBRANCH   1   4
BRANCH   1  19
ATOM     19  C   UNL     1       1.822   8.445  18.298  0.00  0.00    +0.000 C 
ATOM     20  O   UNL     1       1.183   9.114  17.489  0.00  0.00    +0.000 OA
ATOM     21  N   UNL     1       2.249   7.188  17.956  0.00  0.00    +0.000 N 
ATOM     22  H   UNL     1       2.064   6.920  16.999  0.00  0.00    +0.000 HD
BRANCH  21  23
ATOM     23  C   UNL     1       3.065   6.317  18.787  0.00  0.00    +0.000 C 
BRANCH  23  24
ATOM     24  C   UNL     1       2.301   5.090  19.240  0.00  0.00    +0.000 A 
ATOM     25  C   UNL     1       1.754   4.180  18.325  0.00  0.00    +0.000 A 
ATOM     26  C   UNL     1       1.111   3.028  18.782  0.00  0.00    +0.000 A 
ATOM     27  C   UNL     1       0.998   2.777  20.149  0.00  0.00    +0.000 A 
ATOM     28  C   UNL     1       1.525   3.682  21.066  0.00  0.00    +0.000 A 
ATOM     29  C   UNL     1       2.166   4.836  20.615  0.00  0.00    +0.000 A 
ENDBRANCH  23  24
BRANCH  23  30
ATOM     30  C   UNL     1       4.396   5.987  18.120  0.00  0.00    +0.000 A 
ATOM     31  C   UNL     1       5.397   5.363  18.877  0.00  0.00    +0.000 A 
ATOM     32  C   UNL     1       6.639   5.089  18.310  0.00  0.00    +0.000 A 
ATOM     33  C   UNL     1       6.891   5.430  16.984  0.00  0.00    +0.000 A 
ATOM     34  C   UNL     1       5.902   6.045  16.220  0.00  0.00    +0.000 A 
ATOM     35  C   UNL     1       4.658   6.322  16.783  0.00  0.00    +0.000 A 
ENDBRANCH  23  30
ENDBRANCH  21  23
ENDBRANCH   1  19
TORSDOF 7
ENDMDL
MODEL 3
REMARK VINA RESULT:      -8.1      1.184      2.012
REMARK  Name = 
REMARK  9 active torsions:
REMARK  status: ('A' for Active; 'I' for Inactive)
REMARK    1  A    between atoms: C_1  and  C_2
REMARK    2  A    between atoms: C_2  and  C_3
REMARK    3  A    between atoms: C_2  and  N_24
REMARK    4  A    between atoms: N_5  and  C_6
REMARK    5  A    between atoms: N_5  and  C_7
REMARK    6  A    between atoms: C_7  and  C_8
REMARK    7  A    between atoms: N_10  and  C_11
REMARK    8  A    between atoms: C_11  and  C_12
REMARK    9  A    between atoms: C_11  and  C_18
REMARK                            x       y       z     vdW  Elec       q    Type
REMARK                         _______ _______ _______ _____ _____    ______ ____
ROOT
ATOM      1  C   UNL     1       1.595   8.844  19.436  0.00  0.00    +0.000 C 
ENDROOT
BRANCH   1   4
ATOM      2  C   UNL     1       0.716  10.748  20.612  0.00  0.00    +0.000 C 
ATOM      3  O   UNL     1       1.570  10.571  21.483  0.00  0.00    +0.000 OA
ATOM      4  N   UNL     1       0.552   9.867  19.554  0.00  0.00    +0.000 N 
ATOM      5  C   UNL     1      -0.393  10.073  18.456  0.00  0.00    +0.000 C 
BRANCH   2   7
ATOM      6  C   UNL     1       0.543  13.163  21.288  0.00  0.00    +0.000 C 
ATOM      7  C   UNL     1      -0.187  11.977  20.633  0.00  0.00    +0.000 C 
BRANCH   7   8
ATOM      8  N   UNL     1      -1.488  11.718  21.251  0.00  0.00    +0.000 N 
ATOM      9  C   UNL     1      -2.529  12.382  20.650  0.00  0.00    +0.000 C 
ATOM     10  O   UNL     1      -2.870  12.356  19.484  0.00  0.00    +0.000 OA
ATOM     11  C   UNL     1      -3.065  13.286  21.658  0.00  0.00    +0.000 A 
ATOM     12  C   UNL     1      -3.638  14.525  21.461  0.00  0.00    +0.000 A 
ATOM     13  C   UNL     1      -3.724  15.362  22.572  0.00  0.00    +0.000 A 
ATOM     14  C   UNL     1      -3.271  14.937  23.842  0.00  0.00    +0.000 A 
ATOM     15  C   UNL     1      -2.667  13.692  24.009  0.00  0.00    +0.000 A 
ATOM     16  C   UNL     1      -2.548  12.903  22.880  0.00  0.00    +0.000 A 
ATOM     17  C   UNL     1      -1.609  11.813  22.619  0.00  0.00    +0.000 C 
ATOM     18  O   UNL     1      -1.051  11.171  23.483  0.00  0.00    +0.000 OA
ENDBRANCH   7   8
ENDBRANCH   2   7
ENDBRANCH   1   4
BRANCH   1  19
ATOM     19  C   UNL     1       2.114   8.621  18.015  0.00  0.00    +0.000 C 
ATOM     20  O   UNL     1       1.791   9.352  17.081  0.00  0.00    +0.000 OA
ATOM     21  N   UNL     1       2.844   7.487  17.771  0.00  0.00    +0.000 N 
ATOM     22  H   UNL     1       3.140   7.367  16.813  0.00  0.00    +0.000 HD
BRANCH  21  23
ATOM     23  C   UNL     1       3.347   6.572  18.784  0.00  0.00    +0.000 C 
BRANCH  23  24
ATOM     24  C   UNL     1       2.425   5.386  18.982  0.00  0.00    +0.000 A 
ATOM     25  C   UNL     1       2.115   4.508  17.933  0.00  0.00    +0.000 A 
ATOM     26  C   UNL     1       1.312   3.391  18.170  0.00  0.00    +0.000 A 
ATOM     27  C   UNL     1       0.803   3.143  19.445  0.00  0.00    +0.000 A 
ATOM     28  C   UNL     1       1.093   4.017  20.488  0.00  0.00    +0.000 A 
ATOM     29  C   UNL     1       1.893   5.137  20.258  0.00  0.00    +0.000 A 
ENDBRANCH  23  24
BRANCH  23  30
ATOM     30  C   UNL     1       4.794   6.173  18.515  0.00  0.00    +0.000 A 
ATOM     31  C   UNL     1       5.444   6.702  17.391  0.00  0.00    +0.000 A 
ATOM     32  C   UNL     1       6.750   6.323  17.092  0.00  0.00    +0.000 A 
ATOM     33  C   UNL     1       7.420   5.419  17.912  0.00  0.00    +0.000 A 
ATOM     34  C   UNL     1       6.786   4.892  19.035  0.00  0.00    +0.000 A 
ATOM     35  C   UNL     1       5.479   5.268  19.338  0.00  0.00    +0.000 A 
ENDBRANCH  23  30
ENDBRANCH  21  23
ENDBRANCH   1  19
TORSDOF 7
ENDMDL
MODEL 4
REMARK VINA RESULT:      -8.1      2.211      4.379
REMARK  Name = 
REMARK  9 active torsions:
REMARK  status: ('A' for Active; 'I' for Inactive)
REMARK    1  A    between atoms: C_1  and  C_2
REMARK    2  A    between atoms: C_2  and  C_3
REMARK    3  A    between atoms: C_2  and  N_24
REMARK    4  A    between atoms: N_5  and  C_6
REMARK    5  A    between atoms: N_5  and  C_7
REMARK    6  A    between atoms: C_7  and  C_8
REMARK    7  A    between atoms: N_10  and  C_11
REMARK    8  A    between atoms: C_11  and  C_12
REMARK    9  A    between atoms: C_11  and  C_18
REMARK                            x       y       z     vdW  Elec       q    Type
REMARK                         _______ _______ _______ _____ _____    ______ ____
ROOT
ATOM      1  C   UNL     1       1.210   8.847  19.493  0.00  0.00    +0.000 C 
ENDROOT
BRANCH   1   4
ATOM      2  C   UNL     1       0.756  11.174  19.094  0.00  0.00    +0.000 C 
ATOM      3  O   UNL     1       1.757  11.219  18.375  0.00  0.00    +0.000 OA
ATOM      4  N   UNL     1       0.419  10.038  19.814  0.00  0.00    +0.000 N 
ATOM      5  C   UNL     1      -0.796   9.911  20.618  0.00  0.00    +0.000 C 
BRANCH   2   7
ATOM      6  C   UNL     1      -0.786  12.694  17.818  0.00  0.00    +0.000 C 
ATOM      7  C   UNL     1      -0.191  12.365  19.198  0.00  0.00    +0.000 C 
BRANCH   7   8
ATOM      8  N   UNL     1       0.427  13.532  19.828  0.00  0.00    +0.000 N 
ATOM      9  C   UNL     1      -0.376  14.152  20.753  0.00  0.00    +0.000 C 
ATOM     10  O   UNL     1      -0.908  13.674  21.734  0.00  0.00    +0.000 OA
ATOM     11  C   UNL     1      -0.623  15.492  20.237  0.00  0.00    +0.000 A 
ATOM     12  C   UNL     1      -1.755  16.263  20.400  0.00  0.00    +0.000 A 
ATOM     13  C   UNL     1      -1.923  17.328  19.515  0.00  0.00    +0.000 A 
ATOM     14  C   UNL     1      -0.955  17.612  18.525  0.00  0.00    +0.000 A 
ATOM     15  C   UNL     1       0.164  16.799  18.360  0.00  0.00    +0.000 A 
ATOM     16  C   UNL     1       0.280  15.720  19.217  0.00  0.00    +0.000 A 
ATOM     17  C   UNL     1       1.031  14.479  19.032  0.00  0.00    +0.000 C 
ATOM     18  O   UNL     1       1.977  14.359  18.284  0.00  0.00    +0.000 OA
ENDBRANCH   7   8
ENDBRANCH   2   7
ENDBRANCH   1   4
BRANCH   1  19
ATOM     19  C   UNL     1       1.769   8.105  20.707  0.00  0.00    +0.000 C 
ATOM     20  O   UNL     1       1.751   8.594  21.836  0.00  0.00    +0.000 OA
ATOM     21  N   UNL     1       2.430   6.924  20.487  0.00  0.00    +0.000 N 
ATOM     22  H   UNL     1       2.807   6.486  21.315  0.00  0.00    +0.000 HD
BRANCH  21  23
ATOM     23  C   UNL     1       2.476   6.205  19.224  0.00  0.00    +0.000 C 
BRANCH  23  24
ATOM     24  C   UNL     1       3.870   6.194  18.630  0.00  0.00    +0.000 A 
ATOM     25  C   UNL     1       4.182   6.909  17.466  0.00  0.00    +0.000 A 
ATOM     26  C   UNL     1       5.493   6.924  16.984  0.00  0.00    +0.000 A 
ATOM     27  C   UNL     1       6.498   6.222  17.650  0.00  0.00    +0.000 A 
ATOM     28  C   UNL     1       6.194   5.497  18.797  0.00  0.00    +0.000 A 
ATOM     29  C   UNL     1       4.886   5.475  19.282  0.00  0.00    +0.000 A 
ENDBRANCH  23  24
BRANCH  23  30
ATOM     30  C   UNL     1       1.861   4.815  19.345  0.00  0.00    +0.000 A 
ATOM     31  C   UNL     1       1.548   4.321  20.620  0.00  0.00    +0.000 A 
ATOM     32  C   UNL     1       1.027   3.038  20.768  0.00  0.00    +0.000 A 
ATOM     33  C   UNL     1       0.809   2.240  19.649  0.00  0.00    +0.000 A 
ATOM     34  C   UNL     1       1.110   2.722  18.377  0.00  0.00    +0.000 A 
ATOM     35  C   UNL     1       1.632   4.004  18.223  0.00  0.00    +0.000 A 
ENDBRANCH  23  30
ENDBRANCH  21  23
ENDBRANCH   1  19
TORSDOF 7
ENDMDL
MODEL 5
REMARK VINA RESULT:      -8.0      2.079      4.171
REMARK  Name = 
REMARK  9 active torsions:
REMARK  status: ('A' for Active; 'I' for Inactive)
REMARK    1  A    between atoms: C_1  and  C_2
REMARK    2  A    between atoms: C_2  and  C_3
REMARK    3  A    between atoms: C_2  and  N_24
REMARK    4  A    between atoms: N_5  and  C_6
REMARK    5  A    between atoms: N_5  and  C_7
REMARK    6  A    between atoms: C_7  and  C_8
REMARK    7  A    between atoms: N_10  and  C_11
REMARK    8  A    between atoms: C_11  and  C_12
REMARK    9  A    between atoms: C_11  and  C_18
REMARK                            x       y       z     vdW  Elec       q    Type
REMARK                         _______ _______ _______ _____ _____    ______ ____
ROOT
ATOM      1  C   UNL     1       3.251   7.389  17.801  0.00  0.00    +0.000 C 
ENDROOT
BRANCH   1   4
ATOM      2  C   UNL     1       1.676   9.054  18.527  0.00  0.00    +0.000 C 
ATOM      3  O   UNL     1       1.923   9.696  17.503  0.00  0.00    +0.000 OA
ATOM      4  N   UNL     1       2.368   7.898  18.854  0.00  0.00    +0.000 N 
ATOM      5  C   UNL     1       2.061   7.062  20.014  0.00  0.00    +0.000 C 
BRANCH   2   7
ATOM      6  C   UNL     1      -0.621  10.064  18.678  0.00  0.00    +0.000 C 
ATOM      7  C   UNL     1       0.561   9.484  19.475  0.00  0.00    +0.000 C 
BRANCH   7   8
ATOM      8  N   UNL     1       1.022  10.394  20.523  0.00  0.00    +0.000 N 
ATOM      9  C   UNL     1       0.587  10.057  21.780  0.00  0.00    +0.000 C 
ATOM     10  O   UNL     1       0.730   9.006  22.374  0.00  0.00    +0.000 OA
ATOM     11  C   UNL     1      -0.251  11.161  22.226  0.00  0.00    +0.000 A 
ATOM     12  C   UNL     1      -1.354  11.103  23.052  0.00  0.00    +0.000 A 
ATOM     13  C   UNL     1      -2.214  12.201  23.031  0.00  0.00    +0.000 A 
ATOM     14  C   UNL     1      -1.938  13.327  22.223  0.00  0.00    +0.000 A 
ATOM     15  C   UNL     1      -0.833  13.349  21.373  0.00  0.00    +0.000 A 
ATOM     16  C   UNL     1      -0.027  12.226  21.376  0.00  0.00    +0.000 A 
ATOM     17  C   UNL     1       0.886  11.752  20.336  0.00  0.00    +0.000 C 
ATOM     18  O   UNL     1       1.374  12.459  19.482  0.00  0.00    +0.000 OA
ENDBRANCH   7   8
ENDBRANCH   2   7
ENDBRANCH   1   4
BRANCH   1  19
ATOM     19  C   UNL     1       3.200   5.874  17.603  0.00  0.00    +0.000 C 
ATOM     20  O   UNL     1       2.315   5.180  18.099  0.00  0.00    +0.000 OA
ATOM     21  N   UNL     1       4.258   5.276  16.968  0.00  0.00    +0.000 N 
ATOM     22  H   UNL     1       4.195   4.271  16.886  0.00  0.00    +0.000 HD
BRANCH  21  23
ATOM     23  C   UNL     1       5.336   5.973  16.283  0.00  0.00    +0.000 C 
BRANCH  23  24
ATOM     24  C   UNL     1       6.460   6.344  17.228  0.00  0.00    +0.000 A 
ATOM     25  C   UNL     1       7.074   7.604  17.188  0.00  0.00    +0.000 A 
ATOM     26  C   UNL     1       8.064   7.930  18.117  0.00  0.00    +0.000 A 
ATOM     27  C   UNL     1       8.457   7.006  19.085  0.00  0.00    +0.000 A 
ATOM     28  C   UNL     1       7.863   5.748  19.123  0.00  0.00    +0.000 A 
ATOM     29  C   UNL     1       6.876   5.415  18.196  0.00  0.00    +0.000 A 
ENDBRANCH  23  24
BRANCH  23  30
ATOM     30  C   UNL     1       5.810   5.206  15.053  0.00  0.00    +0.000 A 
ATOM     31  C   UNL     1       7.089   5.469  14.543  0.00  0.00    +0.000 A 
ATOM     32  C   UNL     1       7.535   4.818  13.395  0.00  0.00    +0.000 A 
ATOM     33  C   UNL     1       6.713   3.898  12.751  0.00  0.00    +0.000 A 
ATOM     34  C   UNL     1       5.443   3.624  13.253  0.00  0.00    +0.000 A 
ATOM     35  C   UNL     1       4.992   4.272  14.400  0.00  0.00    +0.000 A 
ENDBRANCH  23  30
ENDBRANCH  21  23
ENDBRANCH   1  19
TORSDOF 7
ENDMDL
MODEL 6
REMARK VINA RESULT:      -8.0      0.967      1.054
REMARK  Name = 
REMARK  9 active torsions:
REMARK  status: ('A' for Active; 'I' for Inactive)
REMARK    1  A    between atoms: C_1  and  C_2
REMARK    2  A    between atoms: C_2  and  C_3
REMARK    3  A    between atoms: C_2  and  N_24
REMARK    4  A    between atoms: N_5  and  C_6
REMARK    5  A    between atoms: N_5  and  C_7
REMARK    6  A    between atoms: C_7  and  C_8
REMARK    7  A    between atoms: N_10  and  C_11
REMARK    8  A    between atoms: C_11  and  C_12
REMARK    9  A    between atoms: C_11  and  C_18
REMARK                            x       y       z     vdW  Elec       q    Type
REMARK                         _______ _______ _______ _____ _____    ______ ____
ROOT
ATOM      1  C   UNL     1       2.432   8.498  19.571  0.00  0.00    +0.000 C 
ENDROOT
BRANCH   1   4
ATOM      2  C   UNL     1       0.831  10.259  19.916  0.00  0.00    +0.000 C 
ATOM      3  O   UNL     1       1.501  10.978  19.171  0.00  0.00    +0.000 OA
ATOM      4  N   UNL     1       1.253   8.992  20.289  0.00  0.00    +0.000 N 
ATOM      5  C   UNL     1       0.460   8.074  21.105  0.00  0.00    +0.000 C 
BRANCH   2   7
ATOM      6  C   UNL     1      -1.477  11.013  19.264  0.00  0.00    +0.000 C 
ATOM      7  C   UNL     1      -0.527  10.717  20.438  0.00  0.00    +0.000 C 
BRANCH   7   8
ATOM      8  N   UNL     1      -0.430  11.841  21.369  0.00  0.00    +0.000 N 
ATOM      9  C   UNL     1      -0.866  11.549  22.638  0.00  0.00    +0.000 C 
ATOM     10  O   UNL     1      -0.492  10.662  23.380  0.00  0.00    +0.000 OA
ATOM     11  C   UNL     1      -2.012  12.413  22.880  0.00  0.00    +0.000 A 
ATOM     12  C   UNL     1      -3.126  12.143  23.648  0.00  0.00    +0.000 A 
ATOM     13  C   UNL     1      -4.249  12.938  23.428  0.00  0.00    +0.000 A 
ATOM     14  C   UNL     1      -4.225  13.990  22.484  0.00  0.00    +0.000 A 
ATOM     15  C   UNL     1      -3.097  14.223  21.698  0.00  0.00    +0.000 A 
ATOM     16  C   UNL     1      -2.015  13.386  21.900  0.00  0.00    +0.000 A 
ATOM     17  C   UNL     1      -0.918  13.070  20.986  0.00  0.00    +0.000 C 
ATOM     18  O   UNL     1      -0.571  13.779  20.067  0.00  0.00    +0.000 OA
ENDBRANCH   7   8
ENDBRANCH   2   7
ENDBRANCH   1   4
BRANCH   1  19
ATOM     19  C   UNL     1       2.128   7.815  18.238  0.00  0.00    +0.000 C 
ATOM     20  O   UNL     1       1.368   8.311  17.408  0.00  0.00    +0.000 OA
ATOM     21  N   UNL     1       2.617   6.549  18.042  0.00  0.00    +0.000 N 
ATOM     22  H   UNL     1       2.366   6.127  17.159  0.00  0.00    +0.000 HD
BRANCH  21  23
ATOM     23  C   UNL     1       3.570   5.869  18.905  0.00  0.00    +0.000 C 
BRANCH  23  24
ATOM     24  C   UNL     1       2.928   4.727  19.667  0.00  0.00    +0.000 A 
ATOM     25  C   UNL     1       1.582   4.764  20.056  0.00  0.00    +0.000 A 
ATOM     26  C   UNL     1       1.010   3.666  20.702  0.00  0.00    +0.000 A 
ATOM     27  C   UNL     1       1.773   2.530  20.974  0.00  0.00    +0.000 A 
ATOM     28  C   UNL     1       3.114   2.492  20.606  0.00  0.00    +0.000 A 
ATOM     29  C   UNL     1       3.692   3.586  19.963  0.00  0.00    +0.000 A 
ENDBRANCH  23  24
BRANCH  23  30
ATOM     30  C   UNL     1       4.824   5.455  18.142  0.00  0.00    +0.000 A 
ATOM     31  C   UNL     1       4.691   4.965  16.835  0.00  0.00    +0.000 A 
ATOM     32  C   UNL     1       5.812   4.537  16.127  0.00  0.00    +0.000 A 
ATOM     33  C   UNL     1       7.072   4.598  16.715  0.00  0.00    +0.000 A 
ATOM     34  C   UNL     1       7.217   5.089  18.010  0.00  0.00    +0.000 A 
ATOM     35  C   UNL     1       6.100   5.518  18.722  0.00  0.00    +0.000 A 
ENDBRANCH  23  30
ENDBRANCH  21  23
ENDBRANCH   1  19
TORSDOF 7
ENDMDL
MODEL 7
REMARK VINA RESULT:      -8.0      1.269      2.183
REMARK  Name = 
REMARK  9 active torsions:
REMARK  status: ('A' for Active; 'I' for Inactive)
REMARK    1  A    between atoms: C_1  and  C_2
REMARK    2  A    between atoms: C_2  and  C_3
REMARK    3  A    between atoms: C_2  and  N_24
REMARK    4  A    between atoms: N_5  and  C_6
REMARK    5  A    between atoms: N_5  and  C_7
REMARK    6  A    between atoms: C_7  and  C_8
REMARK    7  A    between atoms: N_10  and  C_11
REMARK    8  A    between atoms: C_11  and  C_12
REMARK    9  A    between atoms: C_11  and  C_18
REMARK                            x       y       z     vdW  Elec       q    Type
REMARK                         _______ _______ _______ _____ _____    ______ ____
ROOT
ATOM      1  C   UNL     1       1.606   8.799  19.649  0.00  0.00    +0.000 C 
ENDROOT
BRANCH   1   4
ATOM      2  C   UNL     1       0.080  10.124  20.952  0.00  0.00    +0.000 C 
ATOM      3  O   UNL     1      -0.419   9.080  21.380  0.00  0.00    +0.000 OA
ATOM      4  N   UNL     1       1.063  10.121  19.974  0.00  0.00    +0.000 N 
ATOM      5  C   UNL     1       1.739  11.325  19.491  0.00  0.00    +0.000 C 
BRANCH   2   7
ATOM      6  C   UNL     1      -1.260  11.296  22.726  0.00  0.00    +0.000 C 
ATOM      7  C   UNL     1      -0.336  11.481  21.509  0.00  0.00    +0.000 C 
BRANCH   7   8
ATOM      8  N   UNL     1      -0.924  12.358  20.496  0.00  0.00    +0.000 N 
ATOM      9  C   UNL     1      -1.123  13.646  20.926  0.00  0.00    +0.000 C 
ATOM     10  O   UNL     1      -0.311  14.421  21.392  0.00  0.00    +0.000 OA
ATOM     11  C   UNL     1      -2.561  13.868  20.881  0.00  0.00    +0.000 A 
ATOM     12  C   UNL     1      -3.318  14.668  21.713  0.00  0.00    +0.000 A 
ATOM     13  C   UNL     1      -4.692  14.432  21.732  0.00  0.00    +0.000 A 
ATOM     14  C   UNL     1      -5.273  13.441  20.909  0.00  0.00    +0.000 A 
ATOM     15  C   UNL     1      -4.483  12.625  20.101  0.00  0.00    +0.000 A 
ATOM     16  C   UNL     1      -3.119  12.846  20.140  0.00  0.00    +0.000 A 
ATOM     17  C   UNL     1      -2.032  11.927  19.801  0.00  0.00    +0.000 C 
ATOM     18  O   UNL     1      -2.151  10.970  19.068  0.00  0.00    +0.000 OA
ENDBRANCH   7   8
ENDBRANCH   2   7
ENDBRANCH   1   4
BRANCH   1  19
ATOM     19  C   UNL     1       1.863   8.563  18.161  0.00  0.00    +0.000 C 
ATOM     20  O   UNL     1       1.397   9.298  17.293  0.00  0.00    +0.000 OA
ATOM     21  N   UNL     1       2.517   7.413  17.799  0.00  0.00    +0.000 N 
ATOM     22  H   UNL     1       2.637   7.285  16.805  0.00  0.00    +0.000 HD
BRANCH  21  23
ATOM     23  C   UNL     1       3.171   6.490  18.714  0.00  0.00    +0.000 C 
BRANCH  23  24
ATOM     24  C   UNL     1       2.312   5.275  19.000  0.00  0.00    +0.000 A 
ATOM     25  C   UNL     1       1.996   4.342  18.003  0.00  0.00    +0.000 A 
ATOM     26  C   UNL     1       1.253   3.202  18.320  0.00  0.00    +0.000 A 
ATOM     27  C   UNL     1       0.812   2.987  19.625  0.00  0.00    +0.000 A 
ATOM     28  C   UNL     1       1.108   3.916  20.619  0.00  0.00    +0.000 A 
ATOM     29  C   UNL     1       1.846   5.057  20.308  0.00  0.00    +0.000 A 
ENDBRANCH  23  24
BRANCH  23  30
ATOM     30  C   UNL     1       4.578   6.137  18.247  0.00  0.00    +0.000 A 
ATOM     31  C   UNL     1       4.967   6.483  16.945  0.00  0.00    +0.000 A 
ATOM     32  C   UNL     1       6.230   6.135  16.472  0.00  0.00    +0.000 A 
ATOM     33  C   UNL     1       7.116   5.445  17.294  0.00  0.00    +0.000 A 
ATOM     34  C   UNL     1       6.744   5.101  18.592  0.00  0.00    +0.000 A 
ATOM     35  C   UNL     1       5.482   5.447  19.069  0.00  0.00    +0.000 A 
ENDBRANCH  23  30
ENDBRANCH  21  23
ENDBRANCH   1  19
TORSDOF 7
ENDMDL
MODEL 8
REMARK VINA RESULT:      -8.0      2.213      4.278
REMARK  Name = 
REMARK  9 active torsions:
REMARK  status: ('A' for Active; 'I' for Inactive)
REMARK    1  A    between atoms: C_1  and  C_2
REMARK    2  A    between atoms: C_2  and  C_3
REMARK    3  A    between atoms: C_2  and  N_24
REMARK    4  A    between atoms: N_5  and  C_6
REMARK    5  A    between atoms: N_5  and  C_7
REMARK    6  A    between atoms: C_7  and  C_8
REMARK    7  A    between atoms: N_10  and  C_11
REMARK    8  A    between atoms: C_11  and  C_12
REMARK    9  A    between atoms: C_11  and  C_18
REMARK                            x       y       z     vdW  Elec       q    Type
REMARK                         _______ _______ _______ _____ _____    ______ ____
ROOT
ATOM      1  C   UNL     1       1.160   8.846  19.562  0.00  0.00    +0.000 C 
ENDROOT
BRANCH   1   4
ATOM      2  C   UNL     1       0.728  11.171  19.124  0.00  0.00    +0.000 C 
ATOM      3  O   UNL     1       1.728  11.194  18.403  0.00  0.00    +0.000 OA
ATOM      4  N   UNL     1       0.381  10.050  19.864  0.00  0.00    +0.000 N 
ATOM      5  C   UNL     1      -0.834   9.948  20.672  0.00  0.00    +0.000 C 
BRANCH   2   7
ATOM      6  C   UNL     1      -0.771  12.709  17.817  0.00  0.00    +0.000 C 
ATOM      7  C   UNL     1      -0.208  12.372  19.210  0.00  0.00    +0.000 C 
BRANCH   7   8
ATOM      8  N   UNL     1       0.410  13.532  19.852  0.00  0.00    +0.000 N 
ATOM      9  C   UNL     1      -0.399  14.154  20.771  0.00  0.00    +0.000 C 
ATOM     10  O   UNL     1      -0.946  13.674  21.744  0.00  0.00    +0.000 OA
ATOM     11  C   UNL     1      -0.631  15.497  20.259  0.00  0.00    +0.000 A 
ATOM     12  C   UNL     1      -1.759  16.275  20.412  0.00  0.00    +0.000 A 
ATOM     13  C   UNL     1      -1.910  17.345  19.530  0.00  0.00    +0.000 A 
ATOM     14  C   UNL     1      -0.929  17.627  18.553  0.00  0.00    +0.000 A 
ATOM     15  C   UNL     1       0.187  16.807  18.398  0.00  0.00    +0.000 A 
ATOM     16  C   UNL     1       0.285  15.723  19.251  0.00  0.00    +0.000 A 
ATOM     17  C   UNL     1       1.031  14.479  19.068  0.00  0.00    +0.000 C 
ATOM     18  O   UNL     1       1.985  14.356  18.331  0.00  0.00    +0.000 OA
ENDBRANCH   7   8
ENDBRANCH   2   7
ENDBRANCH   1   4
BRANCH   1  19
ATOM     19  C   UNL     1       1.693   8.106  20.789  0.00  0.00    +0.000 C 
ATOM     20  O   UNL     1       1.664   8.602  21.914  0.00  0.00    +0.000 OA
ATOM     21  N   UNL     1       2.346   6.918  20.586  0.00  0.00    +0.000 N 
ATOM     22  H   UNL     1       2.706   6.480  21.422  0.00  0.00    +0.000 HD
BRANCH  21  23
ATOM     23  C   UNL     1       2.403   6.190  19.327  0.00  0.00    +0.000 C 
BRANCH  23  24
ATOM     24  C   UNL     1       3.787   6.236  18.711  0.00  0.00    +0.000 A 
ATOM     25  C   UNL     1       4.862   5.519  19.255  0.00  0.00    +0.000 A 
ATOM     26  C   UNL     1       6.106   5.537  18.622  0.00  0.00    +0.000 A 
ATOM     27  C   UNL     1       6.294   6.274  17.453  0.00  0.00    +0.000 A 
ATOM     28  C   UNL     1       5.237   7.001  16.915  0.00  0.00    +0.000 A 
ATOM     29  C   UNL     1       3.992   6.989  17.543  0.00  0.00    +0.000 A 
ENDBRANCH  23  24
BRANCH  23  30
ATOM     30  C   UNL     1       1.852   4.776  19.469  0.00  0.00    +0.000 A 
ATOM     31  C   UNL     1       1.590   4.032  18.311  0.00  0.00    +0.000 A 
ATOM     32  C   UNL     1       1.044   2.753  18.405  0.00  0.00    +0.000 A 
ATOM     33  C   UNL     1       0.761   2.206  19.653  0.00  0.00    +0.000 A 
ATOM     34  C   UNL     1       1.024   2.934  20.811  0.00  0.00    +0.000 A 
ATOM     35  C   UNL     1       1.569   4.213  20.723  0.00  0.00    +0.000 A 
ENDBRANCH  23  30
ENDBRANCH  21  23
ENDBRANCH   1  19
TORSDOF 7
ENDMDL
MODEL 9
REMARK VINA RESULT:      -7.9      2.504      4.619
REMARK  Name = 
REMARK  9 active torsions:
REMARK  status: ('A' for Active; 'I' for Inactive)
REMARK    1  A    between atoms: C_1  and  C_2
REMARK    2  A    between atoms: C_2  and  C_3
REMARK    3  A    between atoms: C_2  and  N_24
REMARK    4  A    between atoms: N_5  and  C_6
REMARK    5  A    between atoms: N_5  and  C_7
REMARK    6  A    between atoms: C_7  and  C_8
REMARK    7  A    between atoms: N_10  and  C_11
REMARK    8  A    between atoms: C_11  and  C_12
REMARK    9  A    between atoms: C_11  and  C_18
REMARK                            x       y       z     vdW  Elec       q    Type
REMARK                         _______ _______ _______ _____ _____    ______ ____
ROOT
ATOM      1  C   UNL     1       1.133   8.813  19.635  0.00  0.00    +0.000 C 
ENDROOT
BRANCH   1   4
ATOM      2  C   UNL     1       1.162  11.175  19.189  0.00  0.00    +0.000 C 
ATOM      3  O   UNL     1       2.046  10.980  18.351  0.00  0.00    +0.000 OA
ATOM      4  N   UNL     1       0.677  10.158  19.996  0.00  0.00    +0.000 N 
ATOM      5  C   UNL     1      -0.422  10.323  20.948  0.00  0.00    +0.000 C 
BRANCH   2   7
ATOM      6  C   UNL     1      -0.217  12.953  18.068  0.00  0.00    +0.000 C 
ATOM      7  C   UNL     1       0.526  12.551  19.354  0.00  0.00    +0.000 C 
BRANCH   7   8
ATOM      8  N   UNL     1       1.481  13.573  19.784  0.00  0.00    +0.000 N 
ATOM      9  C   UNL     1       1.072  14.287  20.883  0.00  0.00    +0.000 C 
ATOM     10  O   UNL     1       0.744  13.871  21.976  0.00  0.00    +0.000 OA
ATOM     11  C   UNL     1       0.933  15.667  20.438  0.00  0.00    +0.000 A 
ATOM     12  C   UNL     1       0.036  16.613  20.889  0.00  0.00    +0.000 A 
ATOM     13  C   UNL     1      -0.174  17.721  20.070  0.00  0.00    +0.000 A 
ATOM     14  C   UNL     1       0.531  17.873  18.854  0.00  0.00    +0.000 A 
ATOM     15  C   UNL     1       1.409  16.888  18.405  0.00  0.00    +0.000 A 
ATOM     16  C   UNL     1       1.559  15.775  19.212  0.00  0.00    +0.000 A 
ATOM     17  C   UNL     1       2.008  14.432  18.846  0.00  0.00    +0.000 C 
ATOM     18  O   UNL     1       2.687  14.181  17.874  0.00  0.00    +0.000 OA
ENDBRANCH   7   8
ENDBRANCH   2   7
ENDBRANCH   1   4
BRANCH   1  19
ATOM     19  C   UNL     1       1.731   8.010  20.790  0.00  0.00    +0.000 C 
ATOM     20  O   UNL     1       1.710   8.419  21.949  0.00  0.00    +0.000 OA
ATOM     21  N   UNL     1       2.430   6.871  20.483  0.00  0.00    +0.000 N 
ATOM     22  H   UNL     1       2.832   6.390  21.275  0.00  0.00    +0.000 HD
BRANCH  21  23
ATOM     23  C   UNL     1       2.486   6.241  19.173  0.00  0.00    +0.000 C 
BRANCH  23  24
ATOM     24  C   UNL     1       3.888   6.256  18.598  0.00  0.00    +0.000 A 
ATOM     25  C   UNL     1       4.944   5.565  19.208  0.00  0.00    +0.000 A 
ATOM     26  C   UNL     1       6.207   5.552  18.613  0.00  0.00    +0.000 A 
ATOM     27  C   UNL     1       6.432   6.232  17.417  0.00  0.00    +0.000 A 
ATOM     28  C   UNL     1       5.394   6.934  16.813  0.00  0.00    +0.000 A 
ATOM     29  C   UNL     1       4.130   6.953  17.403  0.00  0.00    +0.000 A 
ENDBRANCH  23  24
BRANCH  23  30
ATOM     30  C   UNL     1       1.855   4.853  19.188  0.00  0.00    +0.000 A 
ATOM     31  C   UNL     1       1.282   4.382  20.378  0.00  0.00    +0.000 A 
ATOM     32  C   UNL     1       0.738   3.101  20.437  0.00  0.00    +0.000 A 
ATOM     33  C   UNL     1       0.756   2.283  19.311  0.00  0.00    +0.000 A 
ATOM     34  C   UNL     1       1.316   2.743  18.121  0.00  0.00    +0.000 A 
ATOM     35  C   UNL     1       1.862   4.023  18.057  0.00  0.00    +0.000 A 
ENDBRANCH  23  30
ENDBRANCH  21  23
ENDBRANCH   1  19
TORSDOF 7
ENDMDL
