MODEL 1
REMARK VINA RESULT:      -8.4      0.000      0.000
REMARK  Name = 
REMARK  2 active torsions:
REMARK  status: ('A' for Active; 'I' for Inactive)
REMARK    1  A    between atoms: C_9  and  S_10
REMARK    2  A    between atoms: S_10  and  N_13
REMARK                            x       y       z     vdW  Elec       q    Type
REMARK                         _______ _______ _______ _____ _____    ______ ____
ROOT
ATOM      1  O   UNL     1       0.483  11.644  19.682  0.00  0.00    +0.000 OA
ATOM      2  C   UNL     1       0.670  10.436  19.806  0.00  0.00    +0.000 C 
ATOM      3  C   UNL     1      -0.142   9.589  20.723  0.00  0.00    +0.000 C 
ATOM      4  C   UNL     1       0.688   8.987  21.803  0.00  0.00    +0.000 C 
ATOM      5  O   UNL     1       0.518   9.253  22.992  0.00  0.00    +0.000 OA
ATOM      6  N   UNL     1       1.583   8.022  21.443  0.00  0.00    +0.000 N 
ATOM      7  C   UNL     1       1.932   7.610  20.146  0.00  0.00    +0.000 A 
ATOM      8  C   UNL     1       2.386   6.291  20.037  0.00  0.00    +0.000 A 
ATOM      9  C   UNL     1       2.760   5.783  18.793  0.00  0.00    +0.000 A 
ATOM     10  C   UNL     1       2.716   6.583  17.652  0.00  0.00    +0.000 A 
ATOM     11  C   UNL     1       2.330   7.917  17.768  0.00  0.00    +0.000 A 
ATOM     12  C   UNL     1       1.914   8.437  19.002  0.00  0.00    +0.000 A 
ATOM     13  N   UNL     1       1.563   9.798  18.996  0.00  0.00    +0.000 N 
ATOM     14  H   UNL     1       1.934   7.496  22.236  0.00  0.00    +0.000 HD
ATOM     15  H   UNL     1       1.910  10.389  18.248  0.00  0.00    +0.000 HD
ENDROOT
BRANCH   9  16
ATOM     16  S   UNL     1       3.220   4.066  18.655  0.00  0.00    +0.000 S 
ATOM     17  O   UNL     1       3.462   3.622  20.010  0.00  0.00    +0.000 OA
ATOM     18  O   UNL     1       2.193   3.430  17.849  0.00  0.00    +0.000 OA
BRANCH  16  19
ATOM     19  N   UNL     1       4.645   4.111  17.715  0.00  0.00    +0.000 N 
ATOM     20  C   UNL     1       4.542   3.607  16.324  0.00  0.00    +0.000 C 
ATOM     21  C   UNL     1       4.822   4.718  15.325  0.00  0.00    +0.000 C 
ATOM     22  C   UNL     1       6.212   5.293  15.541  0.00  0.00    +0.000 C 
ATOM     23  C   UNL     1       6.514   5.557  16.993  0.00  0.00    +0.000 A 
ATOM     24  C   UNL     1       7.651   6.327  17.299  0.00  0.00    +0.000 A 
ATOM     25  C   UNL     1       8.032   6.541  18.620  0.00  0.00    +0.000 A 
ATOM     26  C   UNL     1       7.297   5.962  19.645  0.00  0.00    +0.000 A 
ATOM     27  C   UNL     1       6.181   5.175  19.349  0.00  0.00    +0.000 A 
ATOM     28  C   UNL     1       5.750   4.988  18.031  0.00  0.00    +0.000 A 
ENDBRANCH  16  19
ENDBRANCH   9  16
TORSDOF 2
ENDMDL
MODEL 2
REMARK VINA RESULT:      -7.8      3.185      8.366
REMARK  Name = 
REMARK  2 active torsions:
REMARK  status: ('A' for Active; 'I' for Inactive)
REMARK    1  A    between atoms: C_9  and  S_10
REMARK    2  A    between atoms: S_10  and  N_13
REMARK                            x       y       z     vdW  Elec       q    Type
REMARK                         _______ _______ _______ _____ _____    ______ ____
ROOT
ATOM      1  O   UNL     1       2.442   3.291  20.356  0.00  0.00    +0.000 OA
ATOM      2  C   UNL     1       2.206   4.419  19.929  0.00  0.00    +0.000 C 
ATOM      3  C   UNL     1       2.012   4.702  18.479  0.00  0.00    +0.000 C 
ATOM      4  C   UNL     1       3.057   5.621  17.950  0.00  0.00    +0.000 C 
ATOM      5  O   UNL     1       3.859   5.279  17.082  0.00  0.00    +0.000 OA
ATOM      6  N   UNL     1       3.026   6.918  18.373  0.00  0.00    +0.000 N 
ATOM      7  C   UNL     1       2.210   7.481  19.368  0.00  0.00    +0.000 A 
ATOM      8  C   UNL     1       1.943   8.847  19.223  0.00  0.00    +0.000 A 
ATOM      9  C   UNL     1       1.144   9.505  20.160  0.00  0.00    +0.000 A 
ATOM     10  C   UNL     1       0.627   8.823  21.261  0.00  0.00    +0.000 A 
ATOM     11  C   UNL     1       0.947   7.479  21.445  0.00  0.00    +0.000 A 
ATOM     12  C   UNL     1       1.716   6.791  20.496  0.00  0.00    +0.000 A 
ATOM     13  N   UNL     1       1.985   5.445  20.799  0.00  0.00    +0.000 N 
ATOM     14  H   UNL     1       3.599   7.532  17.803  0.00  0.00    +0.000 HD
ATOM     15  H   UNL     1       1.908   5.136  21.763  0.00  0.00    +0.000 HD
ENDROOT
BRANCH   9  16
ATOM     16  S   UNL     1       0.717  11.214  19.893  0.00  0.00    +0.000 S 
ATOM     17  O   UNL     1       1.307  11.937  20.997  0.00  0.00    +0.000 OA
ATOM     18  O   UNL     1       1.100  11.524  18.527  0.00  0.00    +0.000 OA
BRANCH  16  19
ATOM     19  N   UNL     1      -0.990  11.209  19.951  0.00  0.00    +0.000 N 
ATOM     20  C   UNL     1      -1.619  11.854  21.130  0.00  0.00    +0.000 C 
ATOM     21  C   UNL     1      -2.449  13.056  20.710  0.00  0.00    +0.000 C 
ATOM     22  C   UNL     1      -3.538  12.638  19.734  0.00  0.00    +0.000 C 
ATOM     23  C   UNL     1      -3.032  11.717  18.656  0.00  0.00    +0.000 A 
ATOM     24  C   UNL     1      -3.870  11.475  17.552  0.00  0.00    +0.000 A 
ATOM     25  C   UNL     1      -3.498  10.574  16.559  0.00  0.00    +0.000 A 
ATOM     26  C   UNL     1      -2.299   9.885  16.677  0.00  0.00    +0.000 A 
ATOM     27  C   UNL     1      -1.472  10.101  17.783  0.00  0.00    +0.000 A 
ATOM     28  C   UNL     1      -1.802  11.039  18.767  0.00  0.00    +0.000 A 
ENDBRANCH  16  19
ENDBRANCH   9  16
TORSDOF 2
ENDMDL
MODEL 3
REMARK VINA RESULT:      -7.7      3.093      8.120
REMARK  Name = 
REMARK  2 active torsions:
REMARK  status: ('A' for Active; 'I' for Inactive)
REMARK    1  A    between atoms: C_9  and  S_10
REMARK    2  A    between atoms: S_10  and  N_13
REMARK                            x       y       z     vdW  Elec       q    Type
REMARK                         _______ _______ _______ _____ _____    ______ ____
ROOT
ATOM      1  O   UNL     1       3.754   4.155  17.778  0.00  0.00    +0.000 OA
ATOM      2  C   UNL     1       3.410   5.133  18.437  0.00  0.00    +0.000 C 
ATOM      3  C   UNL     1       3.732   5.278  19.884  0.00  0.00    +0.000 C 
ATOM      4  C   UNL     1       2.503   5.319  20.724  0.00  0.00    +0.000 C 
ATOM      5  O   UNL     1       2.247   4.456  21.561  0.00  0.00    +0.000 OA
ATOM      6  N   UNL     1       1.711   6.426  20.624  0.00  0.00    +0.000 N 
ATOM      7  C   UNL     1       1.827   7.490  19.715  0.00  0.00    +0.000 A 
ATOM      8  C   UNL     1       1.313   8.715  20.155  0.00  0.00    +0.000 A 
ATOM      9  C   UNL     1       1.376   9.836  19.327  0.00  0.00    +0.000 A 
ATOM     10  C   UNL     1       1.922   9.749  18.048  0.00  0.00    +0.000 A 
ATOM     11  C   UNL     1       2.374   8.516  17.580  0.00  0.00    +0.000 A 
ATOM     12  C   UNL     1       2.354   7.385  18.409  0.00  0.00    +0.000 A 
ATOM     13  N   UNL     1       2.820   6.198  17.821  0.00  0.00    +0.000 N 
ATOM     14  H   UNL     1       1.038   6.498  21.380  0.00  0.00    +0.000 HD
ATOM     15  H   UNL     1       2.838   6.128  16.809  0.00  0.00    +0.000 HD
ENDROOT
BRANCH   9  16
ATOM     16  S   UNL     1       0.826  11.412  19.952  0.00  0.00    +0.000 S 
ATOM     17  O   UNL     1       1.425  11.539  21.262  0.00  0.00    +0.000 OA
ATOM     18  O   UNL     1       1.117  12.388  18.916  0.00  0.00    +0.000 OA
BRANCH  16  19
ATOM     19  N   UNL     1      -0.872  11.240  20.022  0.00  0.00    +0.000 N 
ATOM     20  C   UNL     1      -1.545  11.753  21.241  0.00  0.00    +0.000 C 
ATOM     21  C   UNL     1      -2.491  12.892  20.897  0.00  0.00    +0.000 C 
ATOM     22  C   UNL     1      -3.547  12.427  19.907  0.00  0.00    +0.000 C 
ATOM     23  C   UNL     1      -2.970  11.623  18.773  0.00  0.00    +0.000 A 
ATOM     24  C   UNL     1      -3.794  11.365  17.663  0.00  0.00    +0.000 A 
ATOM     25  C   UNL     1      -3.350  10.562  16.617  0.00  0.00    +0.000 A 
ATOM     26  C   UNL     1      -2.089   9.986  16.686  0.00  0.00    +0.000 A 
ATOM     27  C   UNL     1      -1.273  10.217  17.796  0.00  0.00    +0.000 A 
ATOM     28  C   UNL     1      -1.679  11.061  18.835  0.00  0.00    +0.000 A 
ENDBRANCH  16  19
ENDBRANCH   9  16
TORSDOF 2
ENDMDL
MODEL 4
REMARK VINA RESULT:      -7.6      1.142      2.391
REMARK  Name = 
REMARK  2 active torsions:
REMARK  status: ('A' for Active; 'I' for Inactive)
REMARK    1  A    between atoms: C_9  and  S_10
REMARK    2  A    between atoms: S_10  and  N_13
REMARK                            x       y       z     vdW  Elec       q    Type
REMARK                         _______ _______ _______ _____ _____    ______ ____
ROOT
ATOM      1  O   UNL     1      -0.384  12.202  20.525  0.00  0.00    +0.000 OA
ATOM      2  C   UNL     1      -0.015  11.030  20.541  0.00  0.00    +0.000 C 
ATOM      3  C   UNL     1      -0.582  10.023  21.481  0.00  0.00    +0.000 C 
ATOM      4  C   UNL     1       0.449   9.494  22.416  0.00  0.00    +0.000 C 
ATOM      5  O   UNL     1       0.389   9.667  23.632  0.00  0.00    +0.000 OA
ATOM      6  N   UNL     1       1.421   8.693  21.890  0.00  0.00    +0.000 N 
ATOM      7  C   UNL     1       1.664   8.408  20.536  0.00  0.00    +0.000 A 
ATOM      8  C   UNL     1       2.282   7.178  20.283  0.00  0.00    +0.000 A 
ATOM      9  C   UNL     1       2.570   6.798  18.972  0.00  0.00    +0.000 A 
ATOM     10  C   UNL     1       2.276   7.644  17.903  0.00  0.00    +0.000 A 
ATOM     11  C   UNL     1       1.723   8.898  18.156  0.00  0.00    +0.000 A 
ATOM     12  C   UNL     1       1.390   9.283  19.463  0.00  0.00    +0.000 A 
ATOM     13  N   UNL     1       0.854  10.575  19.593  0.00  0.00    +0.000 N 
ATOM     14  H   UNL     1       1.936   8.182  22.599  0.00  0.00    +0.000 HD
ATOM     15  H   UNL     1       1.021  11.251  18.854  0.00  0.00    +0.000 HD
ENDROOT
BRANCH   9  16
ATOM     16  S   UNL     1       3.246   5.179  18.662  0.00  0.00    +0.000 S 
ATOM     17  O   UNL     1       3.215   4.497  19.936  0.00  0.00    +0.000 OA
ATOM     18  O   UNL     1       2.519   4.641  17.526  0.00  0.00    +0.000 OA
BRANCH  16  19
ATOM     19  N   UNL     1       4.837   5.507  18.134  0.00  0.00    +0.000 N 
ATOM     20  C   UNL     1       5.809   5.932  19.172  0.00  0.00    +0.000 C 
ATOM     21  C   UNL     1       6.935   4.919  19.304  0.00  0.00    +0.000 C 
ATOM     22  C   UNL     1       7.664   4.754  17.980  0.00  0.00    +0.000 C 
ATOM     23  C   UNL     1       6.725   4.618  16.811  0.00  0.00    +0.000 A 
ATOM     24  C   UNL     1       7.263   4.197  15.581  0.00  0.00    +0.000 A 
ATOM     25  C   UNL     1       6.466   4.126  14.442  0.00  0.00    +0.000 A 
ATOM     26  C   UNL     1       5.133   4.504  14.516  0.00  0.00    +0.000 A 
ATOM     27  C   UNL     1       4.596   4.946  15.729  0.00  0.00    +0.000 A 
ATOM     28  C   UNL     1       5.365   4.977  16.897  0.00  0.00    +0.000 A 
ENDBRANCH  16  19
ENDBRANCH   9  16
TORSDOF 2
ENDMDL
MODEL 5
REMARK VINA RESULT:      -7.4      3.620      8.714
REMARK  Name = 
REMARK  2 active torsions:
REMARK  status: ('A' for Active; 'I' for Inactive)
REMARK    1  A    between atoms: C_9  and  S_10
REMARK    2  A    between atoms: S_10  and  N_13
REMARK                            x       y       z     vdW  Elec       q    Type
REMARK                         _______ _______ _______ _____ _____    ______ ____
ROOT
ATOM      1  O   UNL     1       2.904   4.508  20.512  0.00  0.00    +0.000 OA
ATOM      2  C   UNL     1       2.452   5.549  20.040  0.00  0.00    +0.000 C 
ATOM      3  C   UNL     1       2.187   5.720  18.585  0.00  0.00    +0.000 C 
ATOM      4  C   UNL     1       3.031   6.794  17.991  0.00  0.00    +0.000 C 
ATOM      5  O   UNL     1       3.872   6.568  17.122  0.00  0.00    +0.000 OA
ATOM      6  N   UNL     1       2.760   8.080  18.357  0.00  0.00    +0.000 N 
ATOM      7  C   UNL     1       1.865   8.525  19.344  0.00  0.00    +0.000 A 
ATOM      8  C   UNL     1       1.341   9.808  19.145  0.00  0.00    +0.000 A 
ATOM      9  C   UNL     1       0.444  10.346  20.068  0.00  0.00    +0.000 A 
ATOM     10  C   UNL     1       0.081   9.633  21.210  0.00  0.00    +0.000 A 
ATOM     11  C   UNL     1       0.653   8.384  21.447  0.00  0.00    +0.000 A 
ATOM     12  C   UNL     1       1.527   7.809  20.513  0.00  0.00    +0.000 A 
ATOM     13  N   UNL     1       2.051   6.555  20.869  0.00  0.00    +0.000 N 
ATOM     14  H   UNL     1       3.198   8.764  17.747  0.00  0.00    +0.000 HD
ATOM     15  H   UNL     1       2.048   6.284  21.847  0.00  0.00    +0.000 HD
ENDROOT
BRANCH   9  16
ATOM     16  S   UNL     1      -0.304  11.929  19.735  0.00  0.00    +0.000 S 
ATOM     17  O   UNL     1      -0.020  12.742  20.896  0.00  0.00    +0.000 OA
ATOM     18  O   UNL     1       0.165  12.336  18.423  0.00  0.00    +0.000 OA
BRANCH  16  19
ATOM     19  N   UNL     1      -1.965  11.558  19.586  0.00  0.00    +0.000 N 
ATOM     20  C   UNL     1      -2.852  12.018  20.683  0.00  0.00    +0.000 C 
ATOM     21  C   UNL     1      -3.867  13.027  20.169  0.00  0.00    +0.000 C 
ATOM     22  C   UNL     1      -4.718  12.415  19.068  0.00  0.00    +0.000 C 
ATOM     23  C   UNL     1      -3.902  11.656  18.055  0.00  0.00    +0.000 A 
ATOM     24  C   UNL     1      -4.532  11.273  16.857  0.00  0.00    +0.000 A 
ATOM     25  C   UNL     1      -3.860  10.501  15.914  0.00  0.00    +0.000 A 
ATOM     26  C   UNL     1      -2.563  10.081  16.174  0.00  0.00    +0.000 A 
ATOM     27  C   UNL     1      -1.938  10.437  17.372  0.00  0.00    +0.000 A 
ATOM     28  C   UNL     1      -2.576  11.253  18.312  0.00  0.00    +0.000 A 
ENDBRANCH  16  19
ENDBRANCH   9  16
TORSDOF 2
ENDMDL
MODEL 6
REMARK VINA RESULT:      -7.3      7.363     11.423
REMARK  Name = 
REMARK  2 active torsions:
REMARK  status: ('A' for Active; 'I' for Inactive)
REMARK    1  A    between atoms: C_9  and  S_10
REMARK    2  A    between atoms: S_10  and  N_13
REMARK                            x       y       z     vdW  Elec       q    Type
REMARK                         _______ _______ _______ _____ _____    ______ ____
ROOT
ATOM      1  O   UNL     1       0.470   9.860  23.373  0.00  0.00    +0.000 OA
ATOM      2  C   UNL     1      -0.416  10.363  22.685  0.00  0.00    +0.000 C 
ATOM      3  C   UNL     1      -0.681   9.939  21.282  0.00  0.00    +0.000 C 
ATOM      4  C   UNL     1      -0.448  11.046  20.315  0.00  0.00    +0.000 C 
ATOM      5  O   UNL     1       0.424  10.995  19.450  0.00  0.00    +0.000 OA
ATOM      6  N   UNL     1      -1.325  12.092  20.335  0.00  0.00    +0.000 N 
ATOM      7  C   UNL     1      -2.356  12.335  21.258  0.00  0.00    +0.000 A 
ATOM      8  C   UNL     1      -3.432  13.086  20.771  0.00  0.00    +0.000 A 
ATOM      9  C   UNL     1      -4.508  13.386  21.607  0.00  0.00    +0.000 A 
ATOM     10  C   UNL     1      -4.515  12.970  22.938  0.00  0.00    +0.000 A 
ATOM     11  C   UNL     1      -3.415  12.281  23.445  0.00  0.00    +0.000 A 
ATOM     12  C   UNL     1      -2.341  11.936  22.612  0.00  0.00    +0.000 A 
ATOM     13  N   UNL     1      -1.284  11.256  23.240  0.00  0.00    +0.000 N 
ATOM     14  H   UNL     1      -1.256  12.680  19.511  0.00  0.00    +0.000 HD
ATOM     15  H   UNL     1      -1.188  11.326  24.248  0.00  0.00    +0.000 HD
ENDROOT
BRANCH   9  16
ATOM     16  S   UNL     1      -5.922  14.238  20.936  0.00  0.00    +0.000 S 
ATOM     17  O   UNL     1      -6.826  14.423  22.049  0.00  0.00    +0.000 OA
ATOM     18  O   UNL     1      -5.404  15.388  20.215  0.00  0.00    +0.000 OA
BRANCH  16  19
ATOM     19  N   UNL     1      -6.529  13.144  19.773  0.00  0.00    +0.000 N 
ATOM     20  C   UNL     1      -6.260  13.466  18.350  0.00  0.00    +0.000 C 
ATOM     21  C   UNL     1      -5.391  12.396  17.710  0.00  0.00    +0.000 C 
ATOM     22  C   UNL     1      -6.070  11.038  17.791  0.00  0.00    +0.000 C 
ATOM     23  C   UNL     1      -6.649  10.756  19.151  0.00  0.00    +0.000 A 
ATOM     24  C   UNL     1      -7.065   9.441  19.430  0.00  0.00    +0.000 A 
ATOM     25  C   UNL     1      -7.681   9.130  20.638  0.00  0.00    +0.000 A 
ATOM     26  C   UNL     1      -7.914  10.135  21.565  0.00  0.00    +0.000 A 
ATOM     27  C   UNL     1      -7.527  11.449  21.287  0.00  0.00    +0.000 A 
ATOM     28  C   UNL     1      -6.861  11.776  20.101  0.00  0.00    +0.000 A 
ENDBRANCH  16  19
ENDBRANCH   9  16
TORSDOF 2
ENDMDL
MODEL 7
REMARK VINA RESULT:      -7.3      1.357      2.319
REMARK  Name = 
REMARK  2 active torsions:
REMARK  status: ('A' for Active; 'I' for Inactive)
REMARK    1  A    between atoms: C_9  and  S_10
REMARK    2  A    between atoms: S_10  and  N_13
REMARK                            x       y       z     vdW  Elec       q    Type
REMARK                         _______ _______ _______ _____ _____    ______ ____
ROOT
ATOM      1  O   UNL     1       0.184   9.657  21.115  0.00  0.00    +0.000 OA
ATOM      2  C   UNL     1       0.988   8.921  20.547  0.00  0.00    +0.000 C 
ATOM      3  C   UNL     1       2.096   9.445  19.701  0.00  0.00    +0.000 C 
ATOM      4  C   UNL     1       1.963   9.012  18.283  0.00  0.00    +0.000 C 
ATOM      5  O   UNL     1       1.790   9.809  17.363  0.00  0.00    +0.000 OA
ATOM      6  N   UNL     1       2.162   7.690  18.008  0.00  0.00    +0.000 N 
ATOM      7  C   UNL     1       2.342   6.637  18.921  0.00  0.00    +0.000 A 
ATOM      8  C   UNL     1       3.078   5.547  18.442  0.00  0.00    +0.000 A 
ATOM      9  C   UNL     1       3.312   4.447  19.268  0.00  0.00    +0.000 A 
ATOM     10  C   UNL     1       2.797   4.405  20.564  0.00  0.00    +0.000 A 
ATOM     11  C   UNL     1       2.007   5.458  21.020  0.00  0.00    +0.000 A 
ATOM     12  C   UNL     1       1.791   6.589  20.220  0.00  0.00    +0.000 A 
ATOM     13  N   UNL     1       0.966   7.577  20.783  0.00  0.00    +0.000 N 
ATOM     14  H   UNL     1       2.294   7.509  17.018  0.00  0.00    +0.000 HD
ATOM     15  H   UNL     1       0.338   7.319  21.537  0.00  0.00    +0.000 HD
ENDROOT
BRANCH   9  16
ATOM     16  S   UNL     1       4.352   3.124  18.683  0.00  0.00    +0.000 S 
ATOM     17  O   UNL     1       5.045   2.631  19.852  0.00  0.00    +0.000 OA
ATOM     18  O   UNL     1       3.495   2.239  17.913  0.00  0.00    +0.000 OA
BRANCH  16  19
ATOM     19  N   UNL     1       5.398   3.901  17.579  0.00  0.00    +0.000 N 
ATOM     20  C   UNL     1       5.072   3.759  16.138  0.00  0.00    +0.000 C 
ATOM     21  C   UNL     1       4.746   5.111  15.523  0.00  0.00    +0.000 C 
ATOM     22  C   UNL     1       5.921   6.063  15.674  0.00  0.00    +0.000 C 
ATOM     23  C   UNL     1       6.515   6.042  17.057  0.00  0.00    +0.000 A 
ATOM     24  C   UNL     1       7.426   7.059  17.397  0.00  0.00    +0.000 A 
ATOM     25  C   UNL     1       8.072   7.054  18.630  0.00  0.00    +0.000 A 
ATOM     26  C   UNL     1       7.835   6.016  19.520  0.00  0.00    +0.000 A 
ATOM     27  C   UNL     1       6.951   4.989  19.181  0.00  0.00    +0.000 A 
ATOM     28  C   UNL     1       6.253   5.000  17.968  0.00  0.00    +0.000 A 
ENDBRANCH  16  19
ENDBRANCH   9  16
TORSDOF 2
ENDMDL
MODEL 8
REMARK VINA RESULT:      -7.1      3.412      7.216
REMARK  Name = 
REMARK  2 active torsions:
REMARK  status: ('A' for Active; 'I' for Inactive)
REMARK    1  A    between atoms: C_9  and  S_10
REMARK    2  A    between atoms: S_10  and  N_13
REMARK                            x       y       z     vdW  Elec       q    Type
REMARK                         _______ _______ _______ _____ _____    ______ ____
ROOT
ATOM      1  O   UNL     1       8.461   5.897  12.552  0.00  0.00    +0.000 OA
ATOM      2  C   UNL     1       7.743   5.184  13.249  0.00  0.00    +0.000 C 
ATOM      3  C   UNL     1       7.231   3.864  12.785  0.00  0.00    +0.000 C 
ATOM      4  C   UNL     1       5.745   3.847  12.695  0.00  0.00    +0.000 C 
ATOM      5  O   UNL     1       5.151   3.691  11.629  0.00  0.00    +0.000 OA
ATOM      6  N   UNL     1       5.044   3.889  13.865  0.00  0.00    +0.000 N 
ATOM      7  C   UNL     1       5.544   4.091  15.162  0.00  0.00    +0.000 A 
ATOM      8  C   UNL     1       4.779   3.533  16.193  0.00  0.00    +0.000 A 
ATOM      9  C   UNL     1       5.186   3.678  17.520  0.00  0.00    +0.000 A 
ATOM     10  C   UNL     1       6.335   4.400  17.839  0.00  0.00    +0.000 A 
ATOM     11  C   UNL     1       7.062   5.014  16.821  0.00  0.00    +0.000 A 
ATOM     12  C   UNL     1       6.692   4.849  15.478  0.00  0.00    +0.000 A 
ATOM     13  N   UNL     1       7.492   5.529  14.544  0.00  0.00    +0.000 N 
ATOM     14  H   UNL     1       4.069   3.635  13.748  0.00  0.00    +0.000 HD
ATOM     15  H   UNL     1       8.052   6.314  14.860  0.00  0.00    +0.000 HD
ENDROOT
BRANCH   9  16
ATOM     16  S   UNL     1       4.266   2.859  18.808  0.00  0.00    +0.000 S 
ATOM     17  O   UNL     1       3.912   1.566  18.267  0.00  0.00    +0.000 OA
ATOM     18  O   UNL     1       5.072   2.953  20.012  0.00  0.00    +0.000 OA
BRANCH  16  19
ATOM     19  N   UNL     1       2.907   3.871  19.029  0.00  0.00    +0.000 N 
ATOM     20  C   UNL     1       1.826   3.353  19.905  0.00  0.00    +0.000 C 
ATOM     21  C   UNL     1       1.660   4.232  21.133  0.00  0.00    +0.000 C 
ATOM     22  C   UNL     1       1.328   5.660  20.728  0.00  0.00    +0.000 C 
ATOM     23  C   UNL     1       2.201   6.166  19.610  0.00  0.00    +0.000 A 
ATOM     24  C   UNL     1       2.175   7.544  19.327  0.00  0.00    +0.000 A 
ATOM     25  C   UNL     1       2.896   8.066  18.258  0.00  0.00    +0.000 A 
ATOM     26  C   UNL     1       3.626   7.211  17.445  0.00  0.00    +0.000 A 
ATOM     27  C   UNL     1       3.639   5.837  17.704  0.00  0.00    +0.000 A 
ATOM     28  C   UNL     1       2.962   5.297  18.803  0.00  0.00    +0.000 A 
ENDBRANCH  16  19
ENDBRANCH   9  16
TORSDOF 2
ENDMDL
MODEL 9
REMARK VINA RESULT:      -7.1      7.935     11.066
REMARK  Name = 
REMARK  2 active torsions:
REMARK  status: ('A' for Active; 'I' for Inactive)
REMARK    1  A    between atoms: C_9  and  S_10
REMARK    2  A    between atoms: S_10  and  N_13
REMARK                            x       y       z     vdW  Elec       q    Type
REMARK                         _______ _______ _______ _____ _____    ______ ____
ROOT
ATOM      1  O   UNL     1      -2.671  10.772  15.008  0.00  0.00    +0.000 OA
ATOM      2  C   UNL     1      -2.691  10.949  16.224  0.00  0.00    +0.000 C 
ATOM      3  C   UNL     1      -3.622  10.215  17.126  0.00  0.00    +0.000 C 
ATOM      4  C   UNL     1      -4.570  11.135  17.813  0.00  0.00    +0.000 C 
ATOM      5  O   UNL     1      -5.785  11.086  17.632  0.00  0.00    +0.000 OA
ATOM      6  N   UNL     1      -4.057  11.974  18.759  0.00  0.00    +0.000 N 
ATOM      7  C   UNL     1      -2.706  12.188  19.080  0.00  0.00    +0.000 A 
ATOM      8  C   UNL     1      -2.460  12.605  20.394  0.00  0.00    +0.000 A 
ATOM      9  C   UNL     1      -1.152  12.848  20.815  0.00  0.00    +0.000 A 
ATOM     10  C   UNL     1      -0.081  12.708  19.934  0.00  0.00    +0.000 A 
ATOM     11  C   UNL     1      -0.328  12.358  18.608  0.00  0.00    +0.000 A 
ATOM     12  C   UNL     1      -1.630  12.073  18.173  0.00  0.00    +0.000 A 
ATOM     13  N   UNL     1      -1.755  11.748  16.812  0.00  0.00    +0.000 N 
ATOM     14  H   UNL     1      -4.772  12.391  19.345  0.00  0.00    +0.000 HD
ATOM     15  H   UNL     1      -1.020  12.031  16.173  0.00  0.00    +0.000 HD
ENDROOT
BRANCH   9  16
ATOM     16  S   UNL     1      -0.850  13.261  22.522  0.00  0.00    +0.000 S 
ATOM     17  O   UNL     1      -0.943  12.012  23.244  0.00  0.00    +0.000 OA
ATOM     18  O   UNL     1       0.382  14.030  22.546  0.00  0.00    +0.000 OA
BRANCH  16  19
ATOM     19  N   UNL     1      -2.123  14.335  22.902  0.00  0.00    +0.000 N 
ATOM     20  C   UNL     1      -1.990  15.728  22.409  0.00  0.00    +0.000 C 
ATOM     21  C   UNL     1      -3.096  16.058  21.420  0.00  0.00    +0.000 C 
ATOM     22  C   UNL     1      -4.461  15.890  22.070  0.00  0.00    +0.000 C 
ATOM     23  C   UNL     1      -4.578  14.614  22.859  0.00  0.00    +0.000 A 
ATOM     24  C   UNL     1      -5.860  14.217  23.282  0.00  0.00    +0.000 A 
ATOM     25  C   UNL     1      -6.029  13.091  24.082  0.00  0.00    +0.000 A 
ATOM     26  C   UNL     1      -4.916  12.369  24.489  0.00  0.00    +0.000 A 
ATOM     27  C   UNL     1      -3.637  12.770  24.094  0.00  0.00    +0.000 A 
ATOM     28  C   UNL     1      -3.447  13.869  23.249  0.00  0.00    +0.000 A 
ENDBRANCH  16  19
ENDBRANCH   9  16
TORSDOF 2
ENDMDL
