MODEL 1
REMARK VINA RESULT:      -8.9      0.000      0.000
REMARK  Name = 
REMARK  6 active torsions:
REMARK  status: ('A' for Active; 'I' for Inactive)
REMARK    1  A    between atoms: C_5  and  C_7
REMARK    2  A    between atoms: C_7  and  S_8
REMARK    3  A    between atoms: S_8  and  C_9
REMARK    4  A    between atoms: C_12  and  C_13
REMARK    5  A    between atoms: N_19  and  C_20
REMARK    6  A    between atoms: C_20  and  C_21
REMARK                            x       y       z     vdW  Elec       q    Type
REMARK                         _______ _______ _______ _____ _____    ______ ____
ROOT
ATOM      1  C   UNL     1       0.382   9.868  21.356  0.00  0.00    +0.000 A 
ATOM      2  N   UNL     1       0.399   9.429  22.589  0.00  0.00    +0.000 NA
ATOM      3  N   UNL     1      -0.369  10.274  23.340  0.00  0.00    +0.000 NA
ATOM      4  C   UNL     1      -0.868  11.226  22.564  0.00  0.00    +0.000 A 
ATOM      5  N   UNL     1      -0.444  10.971  21.262  0.00  0.00    +0.000 N 
ENDROOT
BRANCH   4   6
ATOM      6  C   UNL     1      -1.648  12.358  23.099  0.00  0.00    +0.000 A 
ATOM      7  C   UNL     1      -3.013  12.166  23.350  0.00  0.00    +0.000 A 
ATOM      8  C   UNL     1      -3.780  13.225  23.815  0.00  0.00    +0.000 A 
ATOM      9  N   UNL     1      -3.285  14.453  24.057  0.00  0.00    +0.000 NA
ATOM     10  C   UNL     1      -1.978  14.636  23.789  0.00  0.00    +0.000 A 
ATOM     11  C   UNL     1      -1.138  13.639  23.306  0.00  0.00    +0.000 A 
ENDBRANCH   4   6
BRANCH   1  12
ATOM     12  S   UNL     1       1.279   9.159  20.049  0.00  0.00    +0.000 S 
BRANCH  12  13
ATOM     13  C   UNL     1       1.570   7.452  20.681  0.00  0.00    +0.000 C 
BRANCH  13  18
ATOM     14  O   UNL     1       1.274   2.799  22.347  0.00  0.00    +0.000 OA
ATOM     15  C   UNL     1       1.704   3.238  21.283  0.00  0.00    +0.000 C 
ATOM     16  C   UNL     1       1.191   4.532  20.662  0.00  0.00    +0.000 C 
ATOM     17  N   UNL     1       2.117   5.178  19.714  0.00  0.00    +0.000 N 
ATOM     18  C   UNL     1       2.339   6.572  19.669  0.00  0.00    +0.000 C 
ATOM     19  O   UNL     1       3.176   7.086  18.922  0.00  0.00    +0.000 OA
ATOM     20  C   UNL     1       2.797   4.251  18.835  0.00  0.00    +0.000 A 
ATOM     21  C   UNL     1       3.282   4.607  17.572  0.00  0.00    +0.000 A 
ATOM     22  C   UNL     1       3.953   3.675  16.766  0.00  0.00    +0.000 A 
ATOM     23  C   UNL     1       4.166   2.372  17.213  0.00  0.00    +0.000 A 
ATOM     24  C   UNL     1       3.690   1.993  18.464  0.00  0.00    +0.000 A 
ATOM     25  C   UNL     1       2.993   2.917  19.254  0.00  0.00    +0.000 A 
ATOM     26  N   UNL     1       2.531   2.485  20.502  0.00  0.00    +0.000 N 
ATOM     27  H   UNL     1       2.775   1.569  20.855  0.00  0.00    +0.000 HD
ENDBRANCH  13  18
ENDBRANCH  12  13
ENDBRANCH   1  12
BRANCH   5  28
ATOM     28  C   UNL     1      -0.660  11.804  20.084  0.00  0.00    +0.000 C 
BRANCH  28  29
ATOM     29  C   UNL     1      -1.888  11.441  19.275  0.00  0.00    +0.000 A 
ATOM     30  C   UNL     1      -1.814  10.373  18.359  0.00  0.00    +0.000 A 
ATOM     31  C   UNL     1      -2.910  10.033  17.553  0.00  0.00    +0.000 A 
ATOM     32  C   UNL     1      -4.101  10.742  17.672  0.00  0.00    +0.000 A 
ATOM     33  C   UNL     1      -4.207  11.770  18.607  0.00  0.00    +0.000 A 
ATOM     34  C   UNL     1      -3.113  12.112  19.409  0.00  0.00    +0.000 A 
ENDBRANCH  28  29
ENDBRANCH   5  28
TORSDOF 6
ENDMDL
MODEL 2
REMARK VINA RESULT:      -8.9      2.937      9.882
REMARK  Name = 
REMARK  6 active torsions:
REMARK  status: ('A' for Active; 'I' for Inactive)
REMARK    1  A    between atoms: C_5  and  C_7
REMARK    2  A    between atoms: C_7  and  S_8
REMARK    3  A    between atoms: S_8  and  C_9
REMARK    4  A    between atoms: C_12  and  C_13
REMARK    5  A    between atoms: N_19  and  C_20
REMARK    6  A    between atoms: C_20  and  C_21
REMARK                            x       y       z     vdW  Elec       q    Type
REMARK                         _______ _______ _______ _____ _____    ______ ____
ROOT
ATOM      1  C   UNL     1       2.316   8.079  18.525  0.00  0.00    +0.000 A 
ATOM      2  N   UNL     1       2.549   8.708  17.401  0.00  0.00    +0.000 NA
ATOM      3  N   UNL     1       3.551   8.042  16.753  0.00  0.00    +0.000 NA
ATOM      4  C   UNL     1       3.924   6.994  17.475  0.00  0.00    +0.000 A 
ATOM      5  N   UNL     1       3.116   6.956  18.608  0.00  0.00    +0.000 N 
ENDROOT
BRANCH   4   6
ATOM      6  C   UNL     1       5.066   6.138  17.100  0.00  0.00    +0.000 A 
ATOM      7  C   UNL     1       6.313   6.400  17.684  0.00  0.00    +0.000 A 
ATOM      8  C   UNL     1       7.414   5.638  17.319  0.00  0.00    +0.000 A 
ATOM      9  N   UNL     1       7.360   4.630  16.428  0.00  0.00    +0.000 NA
ATOM     10  C   UNL     1       6.163   4.402  15.853  0.00  0.00    +0.000 A 
ATOM     11  C   UNL     1       5.013   5.125  16.144  0.00  0.00    +0.000 A 
ENDBRANCH   4   6
BRANCH   1  12
ATOM     12  S   UNL     1       1.172   8.601  19.723  0.00  0.00    +0.000 S 
BRANCH  12  13
ATOM     13  C   UNL     1       0.806  10.318  19.165  0.00  0.00    +0.000 C 
BRANCH  13  18
ATOM     14  O   UNL     1      -2.133  12.887  22.212  0.00  0.00    +0.000 OA
ATOM     15  C   UNL     1      -2.314  12.517  21.054  0.00  0.00    +0.000 C 
ATOM     16  C   UNL     1      -1.170  12.305  20.071  0.00  0.00    +0.000 C 
ATOM     17  N   UNL     1      -1.473  11.400  18.948  0.00  0.00    +0.000 N 
ATOM     18  C   UNL     1      -0.567  10.430  18.463  0.00  0.00    +0.000 C 
ATOM     19  O   UNL     1      -0.869   9.629  17.573  0.00  0.00    +0.000 OA
ATOM     20  C   UNL     1      -2.794  11.581  18.388  0.00  0.00    +0.000 A 
ATOM     21  C   UNL     1      -3.119  11.257  17.067  0.00  0.00    +0.000 A 
ATOM     22  C   UNL     1      -4.423  11.433  16.579  0.00  0.00    +0.000 A 
ATOM     23  C   UNL     1      -5.432  11.923  17.406  0.00  0.00    +0.000 A 
ATOM     24  C   UNL     1      -5.132  12.256  18.723  0.00  0.00    +0.000 A 
ATOM     25  C   UNL     1      -3.823  12.108  19.200  0.00  0.00    +0.000 A 
ATOM     26  N   UNL     1      -3.573  12.461  20.530  0.00  0.00    +0.000 N 
ATOM     27  H   UNL     1      -4.331  12.723  21.147  0.00  0.00    +0.000 HD
ENDBRANCH  13  18
ENDBRANCH  12  13
ENDBRANCH   1  12
BRANCH   5  28
ATOM     28  C   UNL     1       3.223   6.042  19.739  0.00  0.00    +0.000 C 
BRANCH  28  29
ATOM     29  C   UNL     1       2.363   4.799  19.627  0.00  0.00    +0.000 A 
ATOM     30  C   UNL     1       2.335   4.093  18.408  0.00  0.00    +0.000 A 
ATOM     31  C   UNL     1       1.516   2.967  18.242  0.00  0.00    +0.000 A 
ATOM     32  C   UNL     1       0.734   2.520  19.303  0.00  0.00    +0.000 A 
ATOM     33  C   UNL     1       0.785   3.179  20.530  0.00  0.00    +0.000 A 
ATOM     34  C   UNL     1       1.599   4.304  20.695  0.00  0.00    +0.000 A 
ENDBRANCH  28  29
ENDBRANCH   5  28
TORSDOF 6
ENDMDL
MODEL 3
REMARK VINA RESULT:      -8.9      2.903     10.113
REMARK  Name = 
REMARK  6 active torsions:
REMARK  status: ('A' for Active; 'I' for Inactive)
REMARK    1  A    between atoms: C_5  and  C_7
REMARK    2  A    between atoms: C_7  and  S_8
REMARK    3  A    between atoms: S_8  and  C_9
REMARK    4  A    between atoms: C_12  and  C_13
REMARK    5  A    between atoms: N_19  and  C_20
REMARK    6  A    between atoms: C_20  and  C_21
REMARK                            x       y       z     vdW  Elec       q    Type
REMARK                         _______ _______ _______ _____ _____    ______ ____
ROOT
ATOM      1  C   UNL     1       2.589   7.842  18.507  0.00  0.00    +0.000 A 
ATOM      2  N   UNL     1       2.798   8.460  17.372  0.00  0.00    +0.000 NA
ATOM      3  N   UNL     1       3.789   7.789  16.711  0.00  0.00    +0.000 NA
ATOM      4  C   UNL     1       4.180   6.751  17.437  0.00  0.00    +0.000 A 
ATOM      5  N   UNL     1       3.394   6.722  18.586  0.00  0.00    +0.000 N 
ENDROOT
BRANCH   4   6
ATOM      6  C   UNL     1       5.316   5.894  17.048  0.00  0.00    +0.000 A 
ATOM      7  C   UNL     1       6.379   5.749  17.951  0.00  0.00    +0.000 A 
ATOM      8  C   UNL     1       7.479   4.983  17.596  0.00  0.00    +0.000 A 
ATOM      9  N   UNL     1       7.593   4.343  16.416  0.00  0.00    +0.000 NA
ATOM     10  C   UNL     1       6.579   4.508  15.545  0.00  0.00    +0.000 A 
ATOM     11  C   UNL     1       5.447   5.270  15.808  0.00  0.00    +0.000 A 
ENDBRANCH   4   6
BRANCH   1  12
ATOM     12  S   UNL     1       1.468   8.374  19.722  0.00  0.00    +0.000 S 
BRANCH  12  13
ATOM     13  C   UNL     1       1.256  10.150  19.281  0.00  0.00    +0.000 C 
BRANCH  13  18
ATOM     14  O   UNL     1      -2.979  11.646  17.196  0.00  0.00    +0.000 OA
ATOM     15  C   UNL     1      -2.604  11.699  18.366  0.00  0.00    +0.000 C 
ATOM     16  C   UNL     1      -1.619  10.700  18.958  0.00  0.00    +0.000 C 
ATOM     17  N   UNL     1      -0.890  11.174  20.149  0.00  0.00    +0.000 N 
ATOM     18  C   UNL     1       0.486  10.939  20.364  0.00  0.00    +0.000 C 
ATOM     19  O   UNL     1       1.095  11.411  21.329  0.00  0.00    +0.000 OA
ATOM     20  C   UNL     1      -1.709  11.920  21.079  0.00  0.00    +0.000 A 
ATOM     21  C   UNL     1      -1.428  12.011  22.446  0.00  0.00    +0.000 A 
ATOM     22  C   UNL     1      -2.244  12.765  23.304  0.00  0.00    +0.000 A 
ATOM     23  C   UNL     1      -3.349  13.455  22.809  0.00  0.00    +0.000 A 
ATOM     24  C   UNL     1      -3.651  13.376  21.453  0.00  0.00    +0.000 A 
ATOM     25  C   UNL     1      -2.853  12.598  20.604  0.00  0.00    +0.000 A 
ATOM     26  N   UNL     1      -3.202  12.548  19.251  0.00  0.00    +0.000 N 
ATOM     27  H   UNL     1      -3.947  13.128  18.887  0.00  0.00    +0.000 HD
ENDBRANCH  13  18
ENDBRANCH  12  13
ENDBRANCH   1  12
BRANCH   5  28
ATOM     28  C   UNL     1       3.527   5.821  19.725  0.00  0.00    +0.000 C 
BRANCH  28  29
ATOM     29  C   UNL     1       2.563   4.652  19.717  0.00  0.00    +0.000 A 
ATOM     30  C   UNL     1       2.203   4.069  18.486  0.00  0.00    +0.000 A 
ATOM     31  C   UNL     1       1.276   3.019  18.425  0.00  0.00    +0.000 A 
ATOM     32  C   UNL     1       0.718   2.522  19.599  0.00  0.00    +0.000 A 
ATOM     33  C   UNL     1       1.099   3.055  20.829  0.00  0.00    +0.000 A 
ATOM     34  C   UNL     1       2.020   4.106  20.890  0.00  0.00    +0.000 A 
ENDBRANCH  28  29
ENDBRANCH   5  28
TORSDOF 6
ENDMDL
MODEL 4
REMARK VINA RESULT:      -8.8      2.931      9.836
REMARK  Name = 
REMARK  6 active torsions:
REMARK  status: ('A' for Active; 'I' for Inactive)
REMARK    1  A    between atoms: C_5  and  C_7
REMARK    2  A    between atoms: C_7  and  S_8
REMARK    3  A    between atoms: S_8  and  C_9
REMARK    4  A    between atoms: C_12  and  C_13
REMARK    5  A    between atoms: N_19  and  C_20
REMARK    6  A    between atoms: C_20  and  C_21
REMARK                            x       y       z     vdW  Elec       q    Type
REMARK                         _______ _______ _______ _____ _____    ______ ____
ROOT
ATOM      1  C   UNL     1       2.128   8.229  18.718  0.00  0.00    +0.000 A 
ATOM      2  N   UNL     1       2.347   8.847  17.585  0.00  0.00    +0.000 NA
ATOM      3  N   UNL     1       3.328   8.164  16.923  0.00  0.00    +0.000 NA
ATOM      4  C   UNL     1       3.702   7.117  17.645  0.00  0.00    +0.000 A 
ATOM      5  N   UNL     1       2.915   7.097  18.794  0.00  0.00    +0.000 N 
ENDROOT
BRANCH   4   6
ATOM      6  C   UNL     1       4.825   6.244  17.254  0.00  0.00    +0.000 A 
ATOM      7  C   UNL     1       4.531   5.006  16.665  0.00  0.00    +0.000 A 
ATOM      8  C   UNL     1       5.566   4.147  16.325  0.00  0.00    +0.000 A 
ATOM      9  N   UNL     1       6.868   4.435  16.517  0.00  0.00    +0.000 NA
ATOM     10  C   UNL     1       7.140   5.615  17.107  0.00  0.00    +0.000 A 
ATOM     11  C   UNL     1       6.168   6.529  17.496  0.00  0.00    +0.000 A 
ENDBRANCH   4   6
BRANCH   1  12
ATOM     12  S   UNL     1       1.014   8.774  19.934  0.00  0.00    +0.000 S 
BRANCH  12  13
ATOM     13  C   UNL     1       0.638  10.483  19.356  0.00  0.00    +0.000 C 
BRANCH  13  18
ATOM     14  O   UNL     1      -2.418  12.979  22.347  0.00  0.00    +0.000 OA
ATOM     15  C   UNL     1      -2.566  12.612  21.183  0.00  0.00    +0.000 C 
ATOM     16  C   UNL     1      -1.395  12.427  20.226  0.00  0.00    +0.000 C 
ATOM     17  N   UNL     1      -1.655  11.522  19.091  0.00  0.00    +0.000 N 
ATOM     18  C   UNL     1      -0.720  10.572  18.623  0.00  0.00    +0.000 C 
ATOM     19  O   UNL     1      -0.985   9.771  17.723  0.00  0.00    +0.000 OA
ATOM     20  C   UNL     1      -2.966  11.681  18.502  0.00  0.00    +0.000 A 
ATOM     21  C   UNL     1      -3.254  11.359  17.172  0.00  0.00    +0.000 A 
ATOM     22  C   UNL     1      -4.549  11.512  16.654  0.00  0.00    +0.000 A 
ATOM     23  C   UNL     1      -5.586  11.979  17.460  0.00  0.00    +0.000 A 
ATOM     24  C   UNL     1      -5.324  12.310  18.786  0.00  0.00    +0.000 A 
ATOM     25  C   UNL     1      -4.023  12.184  19.292  0.00  0.00    +0.000 A 
ATOM     26  N   UNL     1      -3.811  12.535  20.630  0.00  0.00    +0.000 N 
ATOM     27  H   UNL     1      -4.588  12.779  21.230  0.00  0.00    +0.000 HD
ENDBRANCH  13  18
ENDBRANCH  12  13
ENDBRANCH   1  12
BRANCH   5  28
ATOM     28  C   UNL     1       3.033   6.190  19.929  0.00  0.00    +0.000 C 
BRANCH  28  29
ATOM     29  C   UNL     1       2.234   4.909  19.796  0.00  0.00    +0.000 A 
ATOM     30  C   UNL     1       1.954   4.154  20.952  0.00  0.00    +0.000 A 
ATOM     31  C   UNL     1       1.261   2.937  20.872  0.00  0.00    +0.000 A 
ATOM     32  C   UNL     1       0.819   2.475  19.636  0.00  0.00    +0.000 A 
ATOM     33  C   UNL     1       1.046   3.233  18.489  0.00  0.00    +0.000 A 
ATOM     34  C   UNL     1       1.740   4.444  18.568  0.00  0.00    +0.000 A 
ENDBRANCH  28  29
ENDBRANCH   5  28
TORSDOF 6
ENDMDL
MODEL 5
REMARK VINA RESULT:      -8.8      3.645      9.868
REMARK  Name = 
REMARK  6 active torsions:
REMARK  status: ('A' for Active; 'I' for Inactive)
REMARK    1  A    between atoms: C_5  and  C_7
REMARK    2  A    between atoms: C_7  and  S_8
REMARK    3  A    between atoms: S_8  and  C_9
REMARK    4  A    between atoms: C_12  and  C_13
REMARK    5  A    between atoms: N_19  and  C_20
REMARK    6  A    between atoms: C_20  and  C_21
REMARK                            x       y       z     vdW  Elec       q    Type
REMARK                         _______ _______ _______ _____ _____    ______ ____
ROOT
ATOM      1  C   UNL     1       1.704   8.621  19.044  0.00  0.00    +0.000 A 
ATOM      2  N   UNL     1       2.198   8.906  17.865  0.00  0.00    +0.000 NA
ATOM      3  N   UNL     1       3.027   7.881  17.504  0.00  0.00    +0.000 NA
ATOM      4  C   UNL     1       3.029   6.958  18.456  0.00  0.00    +0.000 A 
ATOM      5  N   UNL     1       2.148   7.378  19.450  0.00  0.00    +0.000 N 
ENDROOT
BRANCH   4   6
ATOM      6  C   UNL     1       3.915   5.779  18.416  0.00  0.00    +0.000 A 
ATOM      7  C   UNL     1       5.102   5.813  19.161  0.00  0.00    +0.000 A 
ATOM      8  C   UNL     1       5.973   4.734  19.109  0.00  0.00    +0.000 A 
ATOM      9  N   UNL     1       5.744   3.625  18.382  0.00  0.00    +0.000 NA
ATOM     10  C   UNL     1       4.614   3.611  17.649  0.00  0.00    +0.000 A 
ATOM     11  C   UNL     1       3.692   4.652  17.626  0.00  0.00    +0.000 A 
ENDBRANCH   4   6
BRANCH   1  12
ATOM     12  S   UNL     1       0.652   9.667  19.947  0.00  0.00    +0.000 S 
BRANCH  12  13
ATOM     13  C   UNL     1       0.109  10.858  18.649  0.00  0.00    +0.000 C 
BRANCH  13  18
ATOM     14  O   UNL     1      -2.594  10.283  14.541  0.00  0.00    +0.000 OA
ATOM     15  C   UNL     1      -2.921  10.664  15.663  0.00  0.00    +0.000 C 
ATOM     16  C   UNL     1      -2.191  10.220  16.925  0.00  0.00    +0.000 C 
ATOM     17  N   UNL     1      -2.344  11.121  18.082  0.00  0.00    +0.000 N 
ATOM     18  C   UNL     1      -1.282  11.462  18.949  0.00  0.00    +0.000 C 
ATOM     19  O   UNL     1      -1.412  12.278  19.865  0.00  0.00    +0.000 OA
ATOM     20  C   UNL     1      -3.683  11.642  18.246  0.00  0.00    +0.000 A 
ATOM     21  C   UNL     1      -4.200  12.054  19.479  0.00  0.00    +0.000 A 
ATOM     22  C   UNL     1      -5.500  12.572  19.582  0.00  0.00    +0.000 A 
ATOM     23  C   UNL     1      -6.304  12.703  18.451  0.00  0.00    +0.000 A 
ATOM     24  C   UNL     1      -5.814  12.298  17.214  0.00  0.00    +0.000 A 
ATOM     25  C   UNL     1      -4.526  11.752  17.119  0.00  0.00    +0.000 A 
ATOM     26  N   UNL     1      -4.082  11.355  15.853  0.00  0.00    +0.000 N 
ATOM     27  H   UNL     1      -4.636  11.544  15.028  0.00  0.00    +0.000 HD
ENDBRANCH  13  18
ENDBRANCH  12  13
ENDBRANCH   1  12
BRANCH   5  28
ATOM     28  C   UNL     1       1.899   6.739  20.737  0.00  0.00    +0.000 C 
BRANCH  28  29
ATOM     29  C   UNL     1       1.793   5.228  20.678  0.00  0.00    +0.000 A 
ATOM     30  C   UNL     1       0.844   4.641  19.818  0.00  0.00    +0.000 A 
ATOM     31  C   UNL     1       0.675   3.250  19.767  0.00  0.00    +0.000 A 
ATOM     32  C   UNL     1       1.473   2.429  20.558  0.00  0.00    +0.000 A 
ATOM     33  C   UNL     1       2.449   2.990  21.379  0.00  0.00    +0.000 A 
ATOM     34  C   UNL     1       2.615   4.378  21.433  0.00  0.00    +0.000 A 
ENDBRANCH  28  29
ENDBRANCH   5  28
TORSDOF 6
ENDMDL
MODEL 6
REMARK VINA RESULT:      -8.8      2.820      9.935
REMARK  Name = 
REMARK  6 active torsions:
REMARK  status: ('A' for Active; 'I' for Inactive)
REMARK    1  A    between atoms: C_5  and  C_7
REMARK    2  A    between atoms: C_7  and  S_8
REMARK    3  A    between atoms: S_8  and  C_9
REMARK    4  A    between atoms: C_12  and  C_13
REMARK    5  A    between atoms: N_19  and  C_20
REMARK    6  A    between atoms: C_20  and  C_21
REMARK                            x       y       z     vdW  Elec       q    Type
REMARK                         _______ _______ _______ _____ _____    ______ ____
ROOT
ATOM      1  C   UNL     1       2.311   8.068  18.797  0.00  0.00    +0.000 A 
ATOM      2  N   UNL     1       1.749   7.717  19.925  0.00  0.00    +0.000 NA
ATOM      3  N   UNL     1       1.985   6.383  20.109  0.00  0.00    +0.000 NA
ATOM      4  C   UNL     1       2.706   5.919  19.098  0.00  0.00    +0.000 A 
ATOM      5  N   UNL     1       2.979   6.990  18.250  0.00  0.00    +0.000 N 
ENDROOT
BRANCH   4   6
ATOM      6  C   UNL     1       3.030   4.488  18.946  0.00  0.00    +0.000 A 
ATOM      7  C   UNL     1       2.210   3.704  18.122  0.00  0.00    +0.000 A 
ATOM      8  C   UNL     1       2.466   2.347  17.992  0.00  0.00    +0.000 A 
ATOM      9  N   UNL     1       3.483   1.718  18.612  0.00  0.00    +0.000 NA
ATOM     10  C   UNL     1       4.251   2.473  19.421  0.00  0.00    +0.000 A 
ATOM     11  C   UNL     1       4.058   3.835  19.624  0.00  0.00    +0.000 A 
ENDBRANCH   4   6
BRANCH   1  12
ATOM     12  S   UNL     1       2.214   9.658  18.105  0.00  0.00    +0.000 S 
BRANCH  12  13
ATOM     13  C   UNL     1       0.910  10.439  19.148  0.00  0.00    +0.000 C 
BRANCH  13  18
ATOM     14  O   UNL     1      -2.114  13.026  22.094  0.00  0.00    +0.000 OA
ATOM     15  C   UNL     1      -2.281  12.608  20.950  0.00  0.00    +0.000 C 
ATOM     16  C   UNL     1      -1.127  12.395  19.977  0.00  0.00    +0.000 C 
ATOM     17  N   UNL     1      -1.400  11.440  18.888  0.00  0.00    +0.000 N 
ATOM     18  C   UNL     1      -0.463  10.482  18.441  0.00  0.00    +0.000 C 
ATOM     19  O   UNL     1      -0.737   9.640  17.581  0.00  0.00    +0.000 OA
ATOM     20  C   UNL     1      -2.725  11.560  18.320  0.00  0.00    +0.000 A 
ATOM     21  C   UNL     1      -3.036  11.178  17.011  0.00  0.00    +0.000 A 
ATOM     22  C   UNL     1      -4.343  11.295  16.514  0.00  0.00    +0.000 A 
ATOM     23  C   UNL     1      -5.369  11.784  17.321  0.00  0.00    +0.000 A 
ATOM     24  C   UNL     1      -5.083  12.175  18.626  0.00  0.00    +0.000 A 
ATOM     25  C   UNL     1      -3.771  12.085  19.110  0.00  0.00    +0.000 A 
ATOM     26  N   UNL     1      -3.536  12.494  20.426  0.00  0.00    +0.000 N 
ATOM     27  H   UNL     1      -4.303  12.756  21.032  0.00  0.00    +0.000 HD
ENDBRANCH  13  18
ENDBRANCH  12  13
ENDBRANCH   1  12
BRANCH   5  28
ATOM     28  C   UNL     1       3.654   6.944  16.958  0.00  0.00    +0.000 C 
BRANCH  28  29
ATOM     29  C   UNL     1       4.956   6.170  16.957  0.00  0.00    +0.000 A 
ATOM     30  C   UNL     1       5.071   5.024  16.145  0.00  0.00    +0.000 A 
ATOM     31  C   UNL     1       6.240   4.248  16.149  0.00  0.00    +0.000 A 
ATOM     32  C   UNL     1       7.316   4.625  16.947  0.00  0.00    +0.000 A 
ATOM     33  C   UNL     1       7.236   5.782  17.719  0.00  0.00    +0.000 A 
ATOM     34  C   UNL     1       6.070   6.554  17.719  0.00  0.00    +0.000 A 
ENDBRANCH  28  29
ENDBRANCH   5  28
TORSDOF 6
ENDMDL
MODEL 7
REMARK VINA RESULT:      -8.8      3.657      9.864
REMARK  Name = 
REMARK  6 active torsions:
REMARK  status: ('A' for Active; 'I' for Inactive)
REMARK    1  A    between atoms: C_5  and  C_7
REMARK    2  A    between atoms: C_7  and  S_8
REMARK    3  A    between atoms: S_8  and  C_9
REMARK    4  A    between atoms: C_12  and  C_13
REMARK    5  A    between atoms: N_19  and  C_20
REMARK    6  A    between atoms: C_20  and  C_21
REMARK                            x       y       z     vdW  Elec       q    Type
REMARK                         _______ _______ _______ _____ _____    ______ ____
ROOT
ATOM      1  C   UNL     1       1.541   8.651  18.974  0.00  0.00    +0.000 A 
ATOM      2  N   UNL     1       1.988   8.975  17.787  0.00  0.00    +0.000 NA
ATOM      3  N   UNL     1       2.862   8.001  17.393  0.00  0.00    +0.000 NA
ATOM      4  C   UNL     1       2.942   7.071  18.335  0.00  0.00    +0.000 A 
ATOM      5  N   UNL     1       2.065   7.431  19.355  0.00  0.00    +0.000 N 
ENDROOT
BRANCH   4   6
ATOM      6  C   UNL     1       3.890   5.944  18.258  0.00  0.00    +0.000 A 
ATOM      7  C   UNL     1       3.538   4.831  17.481  0.00  0.00    +0.000 A 
ATOM      8  C   UNL     1       4.392   3.739  17.423  0.00  0.00    +0.000 A 
ATOM      9  N   UNL     1       5.571   3.680  18.071  0.00  0.00    +0.000 NA
ATOM     10  C   UNL     1       5.889   4.742  18.835  0.00  0.00    +0.000 A 
ATOM     11  C   UNL     1       5.088   5.871  18.966  0.00  0.00    +0.000 A 
ENDBRANCH   4   6
BRANCH   1  12
ATOM     12  S   UNL     1       0.458   9.629  19.916  0.00  0.00    +0.000 S 
BRANCH  12  13
ATOM     13  C   UNL     1       0.034  10.968  18.723  0.00  0.00    +0.000 C 
BRANCH  13  18
ATOM     14  O   UNL     1      -2.616  10.302  14.593  0.00  0.00    +0.000 OA
ATOM     15  C   UNL     1      -2.958  10.706  15.703  0.00  0.00    +0.000 C 
ATOM     16  C   UNL     1      -2.243  10.291  16.983  0.00  0.00    +0.000 C 
ATOM     17  N   UNL     1      -2.412  11.216  18.119  0.00  0.00    +0.000 N 
ATOM     18  C   UNL     1      -1.361  11.577  18.992  0.00  0.00    +0.000 C 
ATOM     19  O   UNL     1      -1.504  12.413  19.888  0.00  0.00    +0.000 OA
ATOM     20  C   UNL     1      -3.754  11.739  18.255  0.00  0.00    +0.000 A 
ATOM     21  C   UNL     1      -4.287  12.177  19.472  0.00  0.00    +0.000 A 
ATOM     22  C   UNL     1      -5.588  12.696  19.546  0.00  0.00    +0.000 A 
ATOM     23  C   UNL     1      -6.378  12.802  18.403  0.00  0.00    +0.000 A 
ATOM     24  C   UNL     1      -5.871  12.370  17.181  0.00  0.00    +0.000 A 
ATOM     25  C   UNL     1      -4.582  11.824  17.114  0.00  0.00    +0.000 A 
ATOM     26  N   UNL     1      -4.122  11.400  15.864  0.00  0.00    +0.000 N 
ATOM     27  H   UNL     1      -4.665  11.570  15.027  0.00  0.00    +0.000 HD
ENDBRANCH  13  18
ENDBRANCH  12  13
ENDBRANCH   1  12
BRANCH   5  28
ATOM     28  C   UNL     1       1.887   6.767  20.641  0.00  0.00    +0.000 C 
BRANCH  28  29
ATOM     29  C   UNL     1       1.770   5.259  20.559  0.00  0.00    +0.000 A 
ATOM     30  C   UNL     1       2.654   4.461  21.312  0.00  0.00    +0.000 A 
ATOM     31  C   UNL     1       2.616   3.062  21.230  0.00  0.00    +0.000 A 
ATOM     32  C   UNL     1       1.676   2.444  20.411  0.00  0.00    +0.000 A 
ATOM     33  C   UNL     1       0.763   3.216  19.696  0.00  0.00    +0.000 A 
ATOM     34  C   UNL     1       0.803   4.612  19.775  0.00  0.00    +0.000 A 
ENDBRANCH  28  29
ENDBRANCH   5  28
TORSDOF 6
ENDMDL
MODEL 8
REMARK VINA RESULT:      -8.7      3.692      9.941
REMARK  Name = 
REMARK  6 active torsions:
REMARK  status: ('A' for Active; 'I' for Inactive)
REMARK    1  A    between atoms: C_5  and  C_7
REMARK    2  A    between atoms: C_7  and  S_8
REMARK    3  A    between atoms: S_8  and  C_9
REMARK    4  A    between atoms: C_12  and  C_13
REMARK    5  A    between atoms: N_19  and  C_20
REMARK    6  A    between atoms: C_20  and  C_21
REMARK                            x       y       z     vdW  Elec       q    Type
REMARK                         _______ _______ _______ _____ _____    ______ ____
ROOT
ATOM      1  C   UNL     1       2.135   8.372  18.355  0.00  0.00    +0.000 A 
ATOM      2  N   UNL     1       2.490   8.844  17.187  0.00  0.00    +0.000 NA
ATOM      3  N   UNL     1       3.523   8.077  16.726  0.00  0.00    +0.000 NA
ATOM      4  C   UNL     1       3.794   7.125  17.608  0.00  0.00    +0.000 A 
ATOM      5  N   UNL     1       2.886   7.252  18.655  0.00  0.00    +0.000 N 
ENDROOT
BRANCH   4   6
ATOM      6  C   UNL     1       4.935   6.202  17.454  0.00  0.00    +0.000 A 
ATOM      7  C   UNL     1       5.165   5.634  16.193  0.00  0.00    +0.000 A 
ATOM      8  C   UNL     1       6.206   4.731  16.028  0.00  0.00    +0.000 A 
ATOM      9  N   UNL     1       7.038   4.365  17.021  0.00  0.00    +0.000 NA
ATOM     10  C   UNL     1       6.795   4.896  18.234  0.00  0.00    +0.000 A 
ATOM     11  C   UNL     1       5.766   5.793  18.495  0.00  0.00    +0.000 A 
ENDBRANCH   4   6
BRANCH   1  12
ATOM     12  S   UNL     1       0.906   9.070  19.364  0.00  0.00    +0.000 S 
BRANCH  12  13
ATOM     13  C   UNL     1       0.527  10.632  18.462  0.00  0.00    +0.000 C 
BRANCH  13  18
ATOM     14  O   UNL     1      -2.585  10.269  14.627  0.00  0.00    +0.000 OA
ATOM     15  C   UNL     1      -2.787  10.622  15.787  0.00  0.00    +0.000 C 
ATOM     16  C   UNL     1      -1.951  10.118  16.957  0.00  0.00    +0.000 C 
ATOM     17  N   UNL     1      -1.960  10.985  18.149  0.00  0.00    +0.000 N 
ATOM     18  C   UNL     1      -0.807  11.266  18.916  0.00  0.00    +0.000 C 
ATOM     19  O   UNL     1      -0.820  12.056  19.864  0.00  0.00    +0.000 OA
ATOM     20  C   UNL     1      -3.259  11.539  18.461  0.00  0.00    +0.000 A 
ATOM     21  C   UNL     1      -3.639  11.926  19.751  0.00  0.00    +0.000 A 
ATOM     22  C   UNL     1      -4.904  12.478  19.997  0.00  0.00    +0.000 A 
ATOM     23  C   UNL     1      -5.811  12.669  18.957  0.00  0.00    +0.000 A 
ATOM     24  C   UNL     1      -5.458  12.289  17.666  0.00  0.00    +0.000 A 
ATOM     25  C   UNL     1      -4.205  11.710  17.427  0.00  0.00    +0.000 A 
ATOM     26  N   UNL     1      -3.901  11.341  16.112  0.00  0.00    +0.000 N 
ATOM     27  H   UNL     1      -4.527  11.572  15.352  0.00  0.00    +0.000 HD
ENDBRANCH  13  18
ENDBRANCH  12  13
ENDBRANCH   1  12
BRANCH   5  28
ATOM     28  C   UNL     1       2.860   6.491  19.899  0.00  0.00    +0.000 C 
BRANCH  28  29
ATOM     29  C   UNL     1       2.156   5.153  19.803  0.00  0.00    +0.000 A 
ATOM     30  C   UNL     1       1.898   4.605  18.530  0.00  0.00    +0.000 A 
ATOM     31  C   UNL     1       1.205   3.394  18.390  0.00  0.00    +0.000 A 
ATOM     32  C   UNL     1       0.785   2.704  19.524  0.00  0.00    +0.000 A 
ATOM     33  C   UNL     1       1.074   3.207  20.790  0.00  0.00    +0.000 A 
ATOM     34  C   UNL     1       1.761   4.417  20.930  0.00  0.00    +0.000 A 
ENDBRANCH  28  29
ENDBRANCH   5  28
TORSDOF 6
ENDMDL
MODEL 9
REMARK VINA RESULT:      -8.7      2.914     10.162
REMARK  Name = 
REMARK  6 active torsions:
REMARK  status: ('A' for Active; 'I' for Inactive)
REMARK    1  A    between atoms: C_5  and  C_7
REMARK    2  A    between atoms: C_7  and  S_8
REMARK    3  A    between atoms: S_8  and  C_9
REMARK    4  A    between atoms: C_12  and  C_13
REMARK    5  A    between atoms: N_19  and  C_20
REMARK    6  A    between atoms: C_20  and  C_21
REMARK                            x       y       z     vdW  Elec       q    Type
REMARK                         _______ _______ _______ _____ _____    ______ ____
ROOT
ATOM      1  C   UNL     1       2.629   7.849  18.428  0.00  0.00    +0.000 A 
ATOM      2  N   UNL     1       2.932   8.513  17.342  0.00  0.00    +0.000 NA
ATOM      3  N   UNL     1       3.967   7.861  16.732  0.00  0.00    +0.000 NA
ATOM      4  C   UNL     1       4.290   6.787  17.439  0.00  0.00    +0.000 A 
ATOM      5  N   UNL     1       3.415   6.717  18.520  0.00  0.00    +0.000 N 
ENDROOT
BRANCH   4   6
ATOM      6  C   UNL     1       5.447   5.935  17.104  0.00  0.00    +0.000 A 
ATOM      7  C   UNL     1       5.429   5.238  15.888  0.00  0.00    +0.000 A 
ATOM      8  C   UNL     1       6.485   4.398  15.564  0.00  0.00    +0.000 A 
ATOM      9  N   UNL     1       7.558   4.211  16.356  0.00  0.00    +0.000 NA
ATOM     10  C   UNL     1       7.555   4.865  17.533  0.00  0.00    +0.000 A 
ATOM     11  C   UNL     1       6.534   5.712  17.947  0.00  0.00    +0.000 A 
ENDBRANCH   4   6
BRANCH   1  12
ATOM     12  S   UNL     1       1.419   8.340  19.573  0.00  0.00    +0.000 S 
BRANCH  12  13
ATOM     13  C   UNL     1       1.235  10.130  19.177  0.00  0.00    +0.000 C 
BRANCH  13  18
ATOM     14  O   UNL     1      -3.066  11.602  17.216  0.00  0.00    +0.000 OA
ATOM     15  C   UNL     1      -2.660  11.652  18.376  0.00  0.00    +0.000 C 
ATOM     16  C   UNL     1      -1.651  10.657  18.935  0.00  0.00    +0.000 C 
ATOM     17  N   UNL     1      -0.895  11.130  20.109  0.00  0.00    +0.000 N 
ATOM     18  C   UNL     1       0.489  10.906  20.286  0.00  0.00    +0.000 C 
ATOM     19  O   UNL     1       1.119  11.377  21.236  0.00  0.00    +0.000 OA
ATOM     20  C   UNL     1      -1.694  11.864  21.065  0.00  0.00    +0.000 A 
ATOM     21  C   UNL     1      -1.377  11.950  22.425  0.00  0.00    +0.000 A 
ATOM     22  C   UNL     1      -2.175  12.692  23.309  0.00  0.00    +0.000 A 
ATOM     23  C   UNL     1      -3.299  13.375  22.848  0.00  0.00    +0.000 A 
ATOM     24  C   UNL     1      -3.638  13.302  21.500  0.00  0.00    +0.000 A 
ATOM     25  C   UNL     1      -2.856  12.536  20.625  0.00  0.00    +0.000 A 
ATOM     26  N   UNL     1      -3.242  12.491  19.282  0.00  0.00    +0.000 N 
ATOM     27  H   UNL     1      -4.000  13.067  18.942  0.00  0.00    +0.000 HD
ENDBRANCH  13  18
ENDBRANCH  12  13
ENDBRANCH   1  12
BRANCH   5  28
ATOM     28  C   UNL     1       3.450   5.766  19.625  0.00  0.00    +0.000 C 
BRANCH  28  29
ATOM     29  C   UNL     1       2.619   4.518  19.405  0.00  0.00    +0.000 A 
ATOM     30  C   UNL     1       1.451   4.330  20.170  0.00  0.00    +0.000 A 
ATOM     31  C   UNL     1       0.677   3.168  20.037  0.00  0.00    +0.000 A 
ATOM     32  C   UNL     1       1.050   2.192  19.118  0.00  0.00    +0.000 A 
ATOM     33  C   UNL     1       2.176   2.383  18.320  0.00  0.00    +0.000 A 
ATOM     34  C   UNL     1       2.950   3.540  18.454  0.00  0.00    +0.000 A 
ENDBRANCH  28  29
ENDBRANCH   5  28
TORSDOF 6
ENDMDL
