MODEL 1
REMARK VINA RESULT:      -8.2      0.000      0.000
REMARK  Name = 
REMARK  9 active torsions:
REMARK  status: ('A' for Active; 'I' for Inactive)
REMARK    1  A    between atoms: C_1  and  C_2
REMARK    2  A    between atoms: C_4  and  C_5
REMARK    3  A    between atoms: C_8  and  C_9
REMARK    4  A    between atoms: N_11  and  C_12
REMARK    5  A    between atoms: C_16  and  C_17
REMARK    6  A    between atoms: C_17  and  C_18
REMARK    7  A    between atoms: C_17  and  S_19
REMARK    8  A    between atoms: S_19  and  C_20
REMARK    9  A    between atoms: N_24  and  C_25
REMARK                            x       y       z     vdW  Elec       q    Type
REMARK                         _______ _______ _______ _____ _____    ______ ____
ROOT
ATOM      1  C   UNL     1       2.641   6.190  18.463  0.00  0.00    +0.000 A 
ATOM      2  C   UNL     1       2.007   4.950  18.383  0.00  0.00    +0.000 A 
ATOM      3  C   UNL     1       2.589   3.890  17.690  0.00  0.00    +0.000 A 
ATOM      4  C   UNL     1       3.819   4.059  17.065  0.00  0.00    +0.000 A 
ATOM      5  C   UNL     1       4.470   5.303  17.093  0.00  0.00    +0.000 A 
ATOM      6  C   UNL     1       3.861   6.369  17.791  0.00  0.00    +0.000 A 
ENDROOT
BRANCH   1   9
ATOM      7  C   UNL     1       1.795   8.528  18.694  0.00  0.00    +0.000 C 
ATOM      8  O   UNL     1       1.907   8.903  17.530  0.00  0.00    +0.000 OA
ATOM      9  N   UNL     1       2.106   7.272  19.196  0.00  0.00    +0.000 N 
ATOM     10  H   UNL     1       1.851   7.115  20.170  0.00  0.00    +0.000 HD
BRANCH   7  14
ATOM     11  C   UNL     1       0.046  11.191  21.474  0.00  0.00    +0.000 A 
ATOM     12  C   UNL     1       0.406  11.686  20.227  0.00  0.00    +0.000 A 
ATOM     13  C   UNL     1       1.005  10.815  19.317  0.00  0.00    +0.000 A 
ATOM     14  C   UNL     1       1.223   9.487  19.692  0.00  0.00    +0.000 A 
ATOM     15  N   UNL     1       0.905   8.989  20.918  0.00  0.00    +0.000 NA
ATOM     16  C   UNL     1       0.326   9.862  21.782  0.00  0.00    +0.000 A 
BRANCH  11  20
ATOM     17  C   UNL     1      -1.458  14.116  23.776  0.00  0.00    +0.000 C 
ATOM     18  C   UNL     1      -1.385  13.170  22.632  0.00  0.00    +0.000 C 
ATOM     19  N   UNL     1      -1.740  11.771  23.111  0.00  0.00    +0.000 NA
ATOM     20  C   UNL     1      -0.721  11.955  22.385  0.00  0.00    +0.000 C 
ENDBRANCH  11  20
ENDBRANCH   7  14
ENDBRANCH   1   9
BRANCH   5  21
ATOM     21  C   UNL     1       5.811   5.497  16.399  0.00  0.00    +0.000 C 
ATOM     22  C   UNL     1       6.896   5.898  17.407  0.00  0.00    +0.000 C 
BRANCH  21  23
ATOM     23  S   UNL     1       6.362   3.977  15.524  0.00  0.00    +0.000 S 
BRANCH  23  24
ATOM     24  C   UNL     1       7.083   4.641  14.102  0.00  0.00    +0.000 A 
ATOM     25  N   UNL     1       8.028   5.550  14.045  0.00  0.00    +0.000 NA
ATOM     26  N   UNL     1       8.317   5.773  12.715  0.00  0.00    +0.000 NA
ATOM     27  C   UNL     1       7.543   4.986  12.003  0.00  0.00    +0.000 A 
ATOM     28  N   UNL     1       6.755   4.252  12.834  0.00  0.00    +0.000 N 
ATOM     29  C   UNL     1       5.786   3.275  12.427  0.00  0.00    +0.000 C 
ENDBRANCH  23  24
ENDBRANCH  21  23
ENDBRANCH   5  21
TORSDOF 6
ENDMDL
MODEL 2
REMARK VINA RESULT:      -8.1      3.659     10.190
REMARK  Name = 
REMARK  9 active torsions:
REMARK  status: ('A' for Active; 'I' for Inactive)
REMARK    1  A    between atoms: C_1  and  C_2
REMARK    2  A    between atoms: C_4  and  C_5
REMARK    3  A    between atoms: C_8  and  C_9
REMARK    4  A    between atoms: N_11  and  C_12
REMARK    5  A    between atoms: C_16  and  C_17
REMARK    6  A    between atoms: C_17  and  C_18
REMARK    7  A    between atoms: C_17  and  S_19
REMARK    8  A    between atoms: S_19  and  C_20
REMARK    9  A    between atoms: N_24  and  C_25
REMARK                            x       y       z     vdW  Elec       q    Type
REMARK                         _______ _______ _______ _____ _____    ______ ____
ROOT
ATOM      1  C   UNL     1       1.194   8.858  20.638  0.00  0.00    +0.000 A 
ATOM      2  C   UNL     1       1.111   8.703  22.022  0.00  0.00    +0.000 A 
ATOM      3  C   UNL     1       0.230   9.472  22.780  0.00  0.00    +0.000 A 
ATOM      4  C   UNL     1      -0.584  10.411  22.157  0.00  0.00    +0.000 A 
ATOM      5  C   UNL     1      -0.503  10.622  20.772  0.00  0.00    +0.000 A 
ATOM      6  C   UNL     1       0.403   9.841  20.021  0.00  0.00    +0.000 A 
ENDROOT
BRANCH   1   9
ATOM      7  C   UNL     1       2.137   6.680  19.862  0.00  0.00    +0.000 C 
ATOM      8  O   UNL     1       1.490   5.913  20.570  0.00  0.00    +0.000 OA
ATOM      9  N   UNL     1       2.040   8.064  19.833  0.00  0.00    +0.000 N 
ATOM     10  H   UNL     1       2.587   8.525  19.107  0.00  0.00    +0.000 HD
BRANCH   7  14
ATOM     11  C   UNL     1       4.768   5.004  17.008  0.00  0.00    +0.000 A 
ATOM     12  C   UNL     1       4.215   4.163  17.965  0.00  0.00    +0.000 A 
ATOM     13  C   UNL     1       3.365   4.718  18.922  0.00  0.00    +0.000 A 
ATOM     14  C   UNL     1       3.107   6.091  18.886  0.00  0.00    +0.000 A 
ATOM     15  N   UNL     1       3.661   6.937  17.975  0.00  0.00    +0.000 NA
ATOM     16  C   UNL     1       4.486   6.367  17.059  0.00  0.00    +0.000 A 
BRANCH  11  20
ATOM     17  C   UNL     1       5.909   3.722  13.379  0.00  0.00    +0.000 C 
ATOM     18  C   UNL     1       5.810   4.644  14.541  0.00  0.00    +0.000 C 
ATOM     19  N   UNL     1       6.678   4.121  15.676  0.00  0.00    +0.000 NA
ATOM     20  C   UNL     1       5.493   4.499  15.903  0.00  0.00    +0.000 C 
ENDBRANCH  11  20
ENDBRANCH   7  14
ENDBRANCH   1   9
BRANCH   5  21
ATOM     21  C   UNL     1      -1.384  11.658  20.088  0.00  0.00    +0.000 C 
ATOM     22  C   UNL     1      -0.865  13.078  20.351  0.00  0.00    +0.000 C 
BRANCH  21  23
ATOM     23  S   UNL     1      -1.469  11.399  18.270  0.00  0.00    +0.000 S 
BRANCH  23  24
ATOM     24  C   UNL     1      -3.167  11.538  17.982  0.00  0.00    +0.000 A 
ATOM     25  N   UNL     1      -4.089  11.890  18.846  0.00  0.00    +0.000 NA
ATOM     26  N   UNL     1      -5.302  11.888  18.190  0.00  0.00    +0.000 NA
ATOM     27  C   UNL     1      -5.079  11.540  16.943  0.00  0.00    +0.000 A 
ATOM     28  N   UNL     1      -3.749  11.316  16.766  0.00  0.00    +0.000 N 
ATOM     29  C   UNL     1      -3.120  10.929  15.536  0.00  0.00    +0.000 C 
ENDBRANCH  23  24
ENDBRANCH  21  23
ENDBRANCH   5  21
TORSDOF 6
ENDMDL
MODEL 3
REMARK VINA RESULT:      -8.1      5.824      8.114
REMARK  Name = 
REMARK  9 active torsions:
REMARK  status: ('A' for Active; 'I' for Inactive)
REMARK    1  A    between atoms: C_1  and  C_2
REMARK    2  A    between atoms: C_4  and  C_5
REMARK    3  A    between atoms: C_8  and  C_9
REMARK    4  A    between atoms: N_11  and  C_12
REMARK    5  A    between atoms: C_16  and  C_17
REMARK    6  A    between atoms: C_17  and  C_18
REMARK    7  A    between atoms: C_17  and  S_19
REMARK    8  A    between atoms: S_19  and  C_20
REMARK    9  A    between atoms: N_24  and  C_25
REMARK                            x       y       z     vdW  Elec       q    Type
REMARK                         _______ _______ _______ _____ _____    ______ ____
ROOT
ATOM      1  C   UNL     1       6.351   6.759  16.886  0.00  0.00    +0.000 A 
ATOM      2  C   UNL     1       6.934   5.822  16.032  0.00  0.00    +0.000 A 
ATOM      3  C   UNL     1       6.262   4.653  15.681  0.00  0.00    +0.000 A 
ATOM      4  C   UNL     1       4.989   4.406  16.182  0.00  0.00    +0.000 A 
ATOM      5  C   UNL     1       4.384   5.307  17.073  0.00  0.00    +0.000 A 
ATOM      6  C   UNL     1       5.085   6.481  17.427  0.00  0.00    +0.000 A 
ENDROOT
BRANCH   1   9
ATOM      7  C   UNL     1       7.986   8.142  18.170  0.00  0.00    +0.000 C 
ATOM      8  O   UNL     1       8.511   7.262  18.847  0.00  0.00    +0.000 OA
ATOM      9  N   UNL     1       6.982   7.975  17.226  0.00  0.00    +0.000 N 
ATOM     10  H   UNL     1       6.743   8.808  16.692  0.00  0.00    +0.000 HD
BRANCH   7  14
ATOM     11  C   UNL     1       9.504  12.075  18.488  0.00  0.00    +0.000 A 
ATOM     12  C   UNL     1       9.989  11.111  19.362  0.00  0.00    +0.000 A 
ATOM     13  C   UNL     1       9.472   9.819  19.276  0.00  0.00    +0.000 A 
ATOM     14  C   UNL     1       8.490   9.544  18.321  0.00  0.00    +0.000 A 
ATOM     15  N   UNL     1       7.980  10.479  17.474  0.00  0.00    +0.000 NA
ATOM     16  C   UNL     1       8.501  11.729  17.586  0.00  0.00    +0.000 A 
BRANCH  11  20
ATOM     17  C   UNL     1      11.175  15.485  17.184  0.00  0.00    +0.000 C 
ATOM     18  C   UNL     1      10.113  14.594  17.723  0.00  0.00    +0.000 C 
ATOM     19  N   UNL     1      10.403  14.291  19.185  0.00  0.00    +0.000 NA
ATOM     20  C   UNL     1      10.095  13.357  18.391  0.00  0.00    +0.000 C 
ENDBRANCH  11  20
ENDBRANCH   7  14
ENDBRANCH   1   9
BRANCH   5  21
ATOM     21  C   UNL     1       2.996   5.035  17.635  0.00  0.00    +0.000 C 
ATOM     22  C   UNL     1       2.529   3.617  17.280  0.00  0.00    +0.000 C 
BRANCH  21  23
ATOM     23  S   UNL     1       2.942   5.224  19.463  0.00  0.00    +0.000 S 
BRANCH  23  24
ATOM     24  C   UNL     1       3.646   3.735  19.984  0.00  0.00    +0.000 A 
ATOM     25  N   UNL     1       4.847   3.288  19.706  0.00  0.00    +0.000 NA
ATOM     26  N   UNL     1       5.002   2.073  20.340  0.00  0.00    +0.000 NA
ATOM     27  C   UNL     1       3.889   1.821  20.991  0.00  0.00    +0.000 A 
ATOM     28  N   UNL     1       3.011   2.842  20.801  0.00  0.00    +0.000 N 
ATOM     29  C   UNL     1       1.693   2.931  21.361  0.00  0.00    +0.000 C 
ENDBRANCH  23  24
ENDBRANCH  21  23
ENDBRANCH   5  21
TORSDOF 6
ENDMDL
MODEL 4
REMARK VINA RESULT:      -8.0      2.604      3.987
REMARK  Name = 
REMARK  9 active torsions:
REMARK  status: ('A' for Active; 'I' for Inactive)
REMARK    1  A    between atoms: C_1  and  C_2
REMARK    2  A    between atoms: C_4  and  C_5
REMARK    3  A    between atoms: C_8  and  C_9
REMARK    4  A    between atoms: N_11  and  C_12
REMARK    5  A    between atoms: C_16  and  C_17
REMARK    6  A    between atoms: C_17  and  C_18
REMARK    7  A    between atoms: C_17  and  S_19
REMARK    8  A    between atoms: S_19  and  C_20
REMARK    9  A    between atoms: N_24  and  C_25
REMARK                            x       y       z     vdW  Elec       q    Type
REMARK                         _______ _______ _______ _____ _____    ______ ____
ROOT
ATOM      1  C   UNL     1       1.501   8.681  19.296  0.00  0.00    +0.000 A 
ATOM      2  C   UNL     1       1.979   9.001  18.025  0.00  0.00    +0.000 A 
ATOM      3  C   UNL     1       2.860   8.154  17.355  0.00  0.00    +0.000 A 
ATOM      4  C   UNL     1       3.274   6.969  17.951  0.00  0.00    +0.000 A 
ATOM      5  C   UNL     1       2.844   6.630  19.244  0.00  0.00    +0.000 A 
ATOM      6  C   UNL     1       1.960   7.506  19.913  0.00  0.00    +0.000 A 
ENDROOT
BRANCH   1   9
ATOM      7  C   UNL     1       0.675  10.858  20.196  0.00  0.00    +0.000 C 
ATOM      8  O   UNL     1       1.571  11.597  19.800  0.00  0.00    +0.000 OA
ATOM      9  N   UNL     1       0.572   9.490  19.985  0.00  0.00    +0.000 N 
ATOM     10  H   UNL     1      -0.296   9.063  20.305  0.00  0.00    +0.000 HD
BRANCH   7  14
ATOM     11  C   UNL     1      -2.609  12.461  22.324  0.00  0.00    +0.000 A 
ATOM     12  C   UNL     1      -2.598  12.587  20.941  0.00  0.00    +0.000 A 
ATOM     13  C   UNL     1      -1.504  12.081  20.239  0.00  0.00    +0.000 A 
ATOM     14  C   UNL     1      -0.465  11.472  20.949  0.00  0.00    +0.000 A 
ATOM     15  N   UNL     1      -0.443  11.363  22.305  0.00  0.00    +0.000 NA
ATOM     16  C   UNL     1      -1.520  11.869  22.959  0.00  0.00    +0.000 A 
BRANCH  11  20
ATOM     17  C   UNL     1      -5.890  14.204  23.845  0.00  0.00    +0.000 C 
ATOM     18  C   UNL     1      -5.093  13.209  23.080  0.00  0.00    +0.000 C 
ATOM     19  N   UNL     1      -4.393  12.269  24.051  0.00  0.00    +0.000 NA
ATOM     20  C   UNL     1      -3.752  12.786  23.092  0.00  0.00    +0.000 C 
ENDBRANCH  11  20
ENDBRANCH   7  14
ENDBRANCH   1   9
BRANCH   5  21
ATOM     21  C   UNL     1       3.306   5.341  19.907  0.00  0.00    +0.000 C 
ATOM     22  C   UNL     1       2.158   4.682  20.683  0.00  0.00    +0.000 C 
BRANCH  21  23
ATOM     23  S   UNL     1       3.951   4.128  18.685  0.00  0.00    +0.000 S 
BRANCH  23  24
ATOM     24  C   UNL     1       5.620   4.567  18.612  0.00  0.00    +0.000 A 
ATOM     25  N   UNL     1       6.363   5.014  19.596  0.00  0.00    +0.000 NA
ATOM     26  N   UNL     1       7.634   5.219  19.104  0.00  0.00    +0.000 NA
ATOM     27  C   UNL     1       7.627   4.883  17.833  0.00  0.00    +0.000 A 
ATOM     28  N   UNL     1       6.382   4.462  17.483  0.00  0.00    +0.000 N 
ATOM     29  C   UNL     1       5.986   4.004  16.182  0.00  0.00    +0.000 C 
ENDBRANCH  23  24
ENDBRANCH  21  23
ENDBRANCH   5  21
TORSDOF 6
ENDMDL
MODEL 5
REMARK VINA RESULT:      -8.0      5.865      7.907
REMARK  Name = 
REMARK  9 active torsions:
REMARK  status: ('A' for Active; 'I' for Inactive)
REMARK    1  A    between atoms: C_1  and  C_2
REMARK    2  A    between atoms: C_4  and  C_5
REMARK    3  A    between atoms: C_8  and  C_9
REMARK    4  A    between atoms: N_11  and  C_12
REMARK    5  A    between atoms: C_16  and  C_17
REMARK    6  A    between atoms: C_17  and  C_18
REMARK    7  A    between atoms: C_17  and  S_19
REMARK    8  A    between atoms: S_19  and  C_20
REMARK    9  A    between atoms: N_24  and  C_25
REMARK                            x       y       z     vdW  Elec       q    Type
REMARK                         _______ _______ _______ _____ _____    ______ ____
ROOT
ATOM      1  C   UNL     1       6.380   6.612  16.822  0.00  0.00    +0.000 A 
ATOM      2  C   UNL     1       6.947   5.693  15.938  0.00  0.00    +0.000 A 
ATOM      3  C   UNL     1       6.262   4.538  15.566  0.00  0.00    +0.000 A 
ATOM      4  C   UNL     1       4.994   4.287  16.075  0.00  0.00    +0.000 A 
ATOM      5  C   UNL     1       4.405   5.169  16.995  0.00  0.00    +0.000 A 
ATOM      6  C   UNL     1       5.118   6.329  17.370  0.00  0.00    +0.000 A 
ENDROOT
BRANCH   1   9
ATOM      7  C   UNL     1       7.981   7.965  18.179  0.00  0.00    +0.000 C 
ATOM      8  O   UNL     1       8.447   7.079  18.890  0.00  0.00    +0.000 OA
ATOM      9  N   UNL     1       7.023   7.815  17.185  0.00  0.00    +0.000 N 
ATOM     10  H   UNL     1       6.834   8.649  16.632  0.00  0.00    +0.000 HD
BRANCH   7  14
ATOM     11  C   UNL     1       9.375  11.916  18.743  0.00  0.00    +0.000 A 
ATOM     12  C   UNL     1       8.524  11.666  17.674  0.00  0.00    +0.000 A 
ATOM     13  C   UNL     1       8.082  10.359  17.472  0.00  0.00    +0.000 A 
ATOM     14  C   UNL     1       8.511   9.355  18.344  0.00  0.00    +0.000 A 
ATOM     15  N   UNL     1       9.367   9.573  19.380  0.00  0.00    +0.000 NA
ATOM     16  C   UNL     1       9.782  10.855  19.548  0.00  0.00    +0.000 A 
BRANCH  11  20
ATOM     17  C   UNL     1      10.987  15.144  20.504  0.00  0.00    +0.000 C 
ATOM     18  C   UNL     1      10.764  14.126  19.444  0.00  0.00    +0.000 C 
ATOM     19  N   UNL     1       9.442  14.406  18.745  0.00  0.00    +0.000 NA
ATOM     20  C   UNL     1       9.726  13.233  19.123  0.00  0.00    +0.000 C 
ENDBRANCH  11  20
ENDBRANCH   7  14
ENDBRANCH   1   9
BRANCH   5  21
ATOM     21  C   UNL     1       3.022   4.892  17.566  0.00  0.00    +0.000 C 
ATOM     22  C   UNL     1       2.579   3.456  17.260  0.00  0.00    +0.000 C 
BRANCH  21  23
ATOM     23  S   UNL     1       2.963   5.143  19.387  0.00  0.00    +0.000 S 
BRANCH  23  24
ATOM     24  C   UNL     1       3.665   3.672  19.959  0.00  0.00    +0.000 A 
ATOM     25  N   UNL     1       4.861   3.208  19.686  0.00  0.00    +0.000 NA
ATOM     26  N   UNL     1       5.017   2.018  20.365  0.00  0.00    +0.000 NA
ATOM     27  C   UNL     1       3.909   1.798  21.038  0.00  0.00    +0.000 A 
ATOM     28  N   UNL     1       3.035   2.815  20.816  0.00  0.00    +0.000 N 
ATOM     29  C   UNL     1       1.723   2.933  21.386  0.00  0.00    +0.000 C 
ENDBRANCH  23  24
ENDBRANCH  21  23
ENDBRANCH   5  21
TORSDOF 6
ENDMDL
MODEL 6
REMARK VINA RESULT:      -7.9      2.737      4.172
REMARK  Name = 
REMARK  9 active torsions:
REMARK  status: ('A' for Active; 'I' for Inactive)
REMARK    1  A    between atoms: C_1  and  C_2
REMARK    2  A    between atoms: C_4  and  C_5
REMARK    3  A    between atoms: C_8  and  C_9
REMARK    4  A    between atoms: N_11  and  C_12
REMARK    5  A    between atoms: C_16  and  C_17
REMARK    6  A    between atoms: C_17  and  C_18
REMARK    7  A    between atoms: C_17  and  S_19
REMARK    8  A    between atoms: S_19  and  C_20
REMARK    9  A    between atoms: N_24  and  C_25
REMARK                            x       y       z     vdW  Elec       q    Type
REMARK                         _______ _______ _______ _____ _____    ______ ____
ROOT
ATOM      1  C   UNL     1       1.484   8.694  19.296  0.00  0.00    +0.000 A 
ATOM      2  C   UNL     1       2.043   9.030  18.062  0.00  0.00    +0.000 A 
ATOM      3  C   UNL     1       2.962   8.189  17.438  0.00  0.00    +0.000 A 
ATOM      4  C   UNL     1       3.334   6.994  18.043  0.00  0.00    +0.000 A 
ATOM      5  C   UNL     1       2.821   6.639  19.301  0.00  0.00    +0.000 A 
ATOM      6  C   UNL     1       1.899   7.509  19.924  0.00  0.00    +0.000 A 
ENDROOT
BRANCH   1   9
ATOM      7  C   UNL     1       0.573   9.970  21.240  0.00  0.00    +0.000 C 
ATOM      8  O   UNL     1       1.482   9.793  22.045  0.00  0.00    +0.000 OA
ATOM      9  N   UNL     1       0.515   9.498  19.936  0.00  0.00    +0.000 N 
ATOM     10  H   UNL     1      -0.274   9.832  19.385  0.00  0.00    +0.000 HD
BRANCH   7  14
ATOM     11  C   UNL     1      -2.612  12.475  22.449  0.00  0.00    +0.000 A 
ATOM     12  C   UNL     1      -2.057  11.617  23.390  0.00  0.00    +0.000 A 
ATOM     13  C   UNL     1      -1.022  10.773  22.987  0.00  0.00    +0.000 A 
ATOM     14  C   UNL     1      -0.587  10.818  21.660  0.00  0.00    +0.000 A 
ATOM     15  N   UNL     1      -1.136  11.630  20.715  0.00  0.00    +0.000 NA
ATOM     16  C   UNL     1      -2.143  12.437  21.138  0.00  0.00    +0.000 A 
BRANCH  11  20
ATOM     17  C   UNL     1      -5.929  14.644  23.087  0.00  0.00    +0.000 C 
ATOM     18  C   UNL     1      -4.768  13.780  23.425  0.00  0.00    +0.000 C 
ATOM     19  N   UNL     1      -3.493  14.609  23.383  0.00  0.00    +0.000 NA
ATOM     20  C   UNL     1      -3.537  13.482  22.813  0.00  0.00    +0.000 C 
ENDBRANCH  11  20
ENDBRANCH   7  14
ENDBRANCH   1   9
BRANCH   5  21
ATOM     21  C   UNL     1       3.235   5.339  19.974  0.00  0.00    +0.000 C 
ATOM     22  C   UNL     1       2.054   4.710  20.726  0.00  0.00    +0.000 C 
BRANCH  21  23
ATOM     23  S   UNL     1       3.875   4.109  18.767  0.00  0.00    +0.000 S 
BRANCH  23  24
ATOM     24  C   UNL     1       5.541   4.553  18.673  0.00  0.00    +0.000 A 
ATOM     25  N   UNL     1       6.309   4.951  19.659  0.00  0.00    +0.000 NA
ATOM     26  N   UNL     1       7.568   5.182  19.145  0.00  0.00    +0.000 NA
ATOM     27  C   UNL     1       7.528   4.911  17.860  0.00  0.00    +0.000 A 
ATOM     28  N   UNL     1       6.274   4.506  17.521  0.00  0.00    +0.000 N 
ATOM     29  C   UNL     1       5.844   4.114  16.209  0.00  0.00    +0.000 C 
ENDBRANCH  23  24
ENDBRANCH  21  23
ENDBRANCH   5  21
TORSDOF 6
ENDMDL
MODEL 7
REMARK VINA RESULT:      -7.9      2.127      3.170
REMARK  Name = 
REMARK  9 active torsions:
REMARK  status: ('A' for Active; 'I' for Inactive)
REMARK    1  A    between atoms: C_1  and  C_2
REMARK    2  A    between atoms: C_4  and  C_5
REMARK    3  A    between atoms: C_8  and  C_9
REMARK    4  A    between atoms: N_11  and  C_12
REMARK    5  A    between atoms: C_16  and  C_17
REMARK    6  A    between atoms: C_17  and  C_18
REMARK    7  A    between atoms: C_17  and  S_19
REMARK    8  A    between atoms: S_19  and  C_20
REMARK    9  A    between atoms: N_24  and  C_25
REMARK                            x       y       z     vdW  Elec       q    Type
REMARK                         _______ _______ _______ _____ _____    ______ ____
ROOT
ATOM      1  C   UNL     1       2.675   5.004  18.185  0.00  0.00    +0.000 A 
ATOM      2  C   UNL     1       1.999   3.783  18.171  0.00  0.00    +0.000 A 
ATOM      3  C   UNL     1       2.512   2.686  17.480  0.00  0.00    +0.000 A 
ATOM      4  C   UNL     1       3.714   2.799  16.792  0.00  0.00    +0.000 A 
ATOM      5  C   UNL     1       4.404   4.021  16.752  0.00  0.00    +0.000 A 
ATOM      6  C   UNL     1       3.865   5.124  17.449  0.00  0.00    +0.000 A 
ENDROOT
BRANCH   1   9
ATOM      7  C   UNL     1       2.320   7.451  18.529  0.00  0.00    +0.000 C 
ATOM      8  O   UNL     1       2.811   7.878  17.489  0.00  0.00    +0.000 OA
ATOM      9  N   UNL     1       2.210   6.121  18.912  0.00  0.00    +0.000 N 
ATOM     10  H   UNL     1       1.681   5.955  19.766  0.00  0.00    +0.000 HD
BRANCH   7  14
ATOM     11  C   UNL     1       0.514  10.163  21.224  0.00  0.00    +0.000 A 
ATOM     12  C   UNL     1       0.559  10.506  19.879  0.00  0.00    +0.000 A 
ATOM     13  C   UNL     1       1.176   9.624  18.992  0.00  0.00    +0.000 A 
ATOM     14  C   UNL     1       1.725   8.438  19.486  0.00  0.00    +0.000 A 
ATOM     15  N   UNL     1       1.717   8.096  20.803  0.00  0.00    +0.000 NA
ATOM     16  C   UNL     1       1.112   8.977  21.642  0.00  0.00    +0.000 A 
BRANCH  11  20
ATOM     17  C   UNL     1      -1.514  13.042  23.152  0.00  0.00    +0.000 C 
ATOM     18  C   UNL     1      -1.312  11.802  22.358  0.00  0.00    +0.000 C 
ATOM     19  N   UNL     1      -0.801  10.697  23.271  0.00  0.00    +0.000 NA
ATOM     20  C   UNL     1      -0.242  10.911  22.158  0.00  0.00    +0.000 C 
ENDBRANCH  11  20
ENDBRANCH   7  14
ENDBRANCH   1   9
BRANCH   5  21
ATOM     21  C   UNL     1       5.715   4.153  15.989  0.00  0.00    +0.000 C 
ATOM     22  C   UNL     1       5.524   3.800  14.508  0.00  0.00    +0.000 C 
BRANCH  21  23
ATOM     23  S   UNL     1       6.409   5.851  16.097  0.00  0.00    +0.000 S 
BRANCH  23  24
ATOM     24  C   UNL     1       7.220   5.795  17.621  0.00  0.00    +0.000 A 
ATOM     25  N   UNL     1       7.425   4.737  18.369  0.00  0.00    +0.000 NA
ATOM     26  N   UNL     1       8.126   5.141  19.486  0.00  0.00    +0.000 NA
ATOM     27  C   UNL     1       8.333   6.434  19.379  0.00  0.00    +0.000 A 
ATOM     28  N   UNL     1       7.785   6.886  18.219  0.00  0.00    +0.000 N 
ATOM     29  C   UNL     1       7.816   8.242  17.749  0.00  0.00    +0.000 C 
ENDBRANCH  23  24
ENDBRANCH  21  23
ENDBRANCH   5  21
TORSDOF 6
ENDMDL
MODEL 8
REMARK VINA RESULT:      -7.9      3.770      5.200
REMARK  Name = 
REMARK  9 active torsions:
REMARK  status: ('A' for Active; 'I' for Inactive)
REMARK    1  A    between atoms: C_1  and  C_2
REMARK    2  A    between atoms: C_4  and  C_5
REMARK    3  A    between atoms: C_8  and  C_9
REMARK    4  A    between atoms: N_11  and  C_12
REMARK    5  A    between atoms: C_16  and  C_17
REMARK    6  A    between atoms: C_17  and  C_18
REMARK    7  A    between atoms: C_17  and  S_19
REMARK    8  A    between atoms: S_19  and  C_20
REMARK    9  A    between atoms: N_24  and  C_25
REMARK                            x       y       z     vdW  Elec       q    Type
REMARK                         _______ _______ _______ _____ _____    ______ ____
ROOT
ATOM      1  C   UNL     1       0.776   9.340  19.567  0.00  0.00    +0.000 A 
ATOM      2  C   UNL     1       1.258   9.675  18.301  0.00  0.00    +0.000 A 
ATOM      3  C   UNL     1       2.209   8.882  17.662  0.00  0.00    +0.000 A 
ATOM      4  C   UNL     1       2.691   7.737  18.285  0.00  0.00    +0.000 A 
ATOM      5  C   UNL     1       2.257   7.387  19.574  0.00  0.00    +0.000 A 
ATOM      6  C   UNL     1       1.301   8.208  20.211  0.00  0.00    +0.000 A 
ENDROOT
BRANCH   1   9
ATOM      7  C   UNL     1      -0.007  11.140  21.110  0.00  0.00    +0.000 C 
ATOM      8  O   UNL     1       1.077  11.605  21.450  0.00  0.00    +0.000 OA
ATOM      9  N   UNL     1      -0.222  10.093  20.225  0.00  0.00    +0.000 N 
ATOM     10  H   UNL     1      -1.196   9.914  19.988  0.00  0.00    +0.000 HD
BRANCH   7  14
ATOM     11  C   UNL     1      -3.584  12.810  22.627  0.00  0.00    +0.000 A 
ATOM     12  C   UNL     1      -3.295  12.988  21.280  0.00  0.00    +0.000 A 
ATOM     13  C   UNL     1      -2.105  12.459  20.782  0.00  0.00    +0.000 A 
ATOM     14  C   UNL     1      -1.250  11.777  21.653  0.00  0.00    +0.000 A 
ATOM     15  N   UNL     1      -1.499  11.616  22.981  0.00  0.00    +0.000 NA
ATOM     16  C   UNL     1      -2.665  12.146  23.434  0.00  0.00    +0.000 A 
BRANCH  11  20
ATOM     17  C   UNL     1      -7.398  12.815  23.879  0.00  0.00    +0.000 C 
ATOM     18  C   UNL     1      -5.916  12.768  23.991  0.00  0.00    +0.000 C 
ATOM     19  N   UNL     1      -5.348  14.159  23.754  0.00  0.00    +0.000 NA
ATOM     20  C   UNL     1      -4.843  13.158  23.170  0.00  0.00    +0.000 C 
ENDBRANCH  11  20
ENDBRANCH   7  14
ENDBRANCH   1   9
BRANCH   5  21
ATOM     21  C   UNL     1       2.792   6.141  20.266  0.00  0.00    +0.000 C 
ATOM     22  C   UNL     1       1.688   5.088  20.428  0.00  0.00    +0.000 C 
BRANCH  21  23
ATOM     23  S   UNL     1       4.188   5.383  19.341  0.00  0.00    +0.000 S 
BRANCH  23  24
ATOM     24  C   UNL     1       3.392   4.092  18.514  0.00  0.00    +0.000 A 
ATOM     25  N   UNL     1       2.590   4.191  17.480  0.00  0.00    +0.000 NA
ATOM     26  N   UNL     1       2.197   2.916  17.130  0.00  0.00    +0.000 NA
ATOM     27  C   UNL     1       2.777   2.079  17.960  0.00  0.00    +0.000 A 
ATOM     28  N   UNL     1       3.543   2.774  18.843  0.00  0.00    +0.000 N 
ATOM     29  C   UNL     1       4.338   2.206  19.894  0.00  0.00    +0.000 C 
ENDBRANCH  23  24
ENDBRANCH  21  23
ENDBRANCH   5  21
TORSDOF 6
ENDMDL
MODEL 9
REMARK VINA RESULT:      -7.8      1.072      1.334
REMARK  Name = 
REMARK  9 active torsions:
REMARK  status: ('A' for Active; 'I' for Inactive)
REMARK    1  A    between atoms: C_1  and  C_2
REMARK    2  A    between atoms: C_4  and  C_5
REMARK    3  A    between atoms: C_8  and  C_9
REMARK    4  A    between atoms: N_11  and  C_12
REMARK    5  A    between atoms: C_16  and  C_17
REMARK    6  A    between atoms: C_17  and  C_18
REMARK    7  A    between atoms: C_17  and  S_19
REMARK    8  A    between atoms: S_19  and  C_20
REMARK    9  A    between atoms: N_24  and  C_25
REMARK                            x       y       z     vdW  Elec       q    Type
REMARK                         _______ _______ _______ _____ _____    ______ ____
ROOT
ATOM      1  C   UNL     1       2.803   5.407  19.173  0.00  0.00    +0.000 A 
ATOM      2  C   UNL     1       2.461   4.096  19.511  0.00  0.00    +0.000 A 
ATOM      3  C   UNL     1       3.186   3.015  19.014  0.00  0.00    +0.000 A 
ATOM      4  C   UNL     1       4.268   3.232  18.170  0.00  0.00    +0.000 A 
ATOM      5  C   UNL     1       4.620   4.533  17.778  0.00  0.00    +0.000 A 
ATOM      6  C   UNL     1       3.868   5.617  18.282  0.00  0.00    +0.000 A 
ENDROOT
BRANCH   1   9
ATOM      7  C   UNL     1       2.095   7.801  19.140  0.00  0.00    +0.000 C 
ATOM      8  O   UNL     1       2.633   8.159  18.096  0.00  0.00    +0.000 OA
ATOM      9  N   UNL     1       2.122   6.529  19.694  0.00  0.00    +0.000 N 
ATOM     10  H   UNL     1       1.532   6.397  20.513  0.00  0.00    +0.000 HD
BRANCH   7  14
ATOM     11  C   UNL     1      -0.089  10.713  21.292  0.00  0.00    +0.000 A 
ATOM     12  C   UNL     1       0.335   9.576  21.968  0.00  0.00    +0.000 A 
ATOM     13  C   UNL     1       1.035   8.603  21.255  0.00  0.00    +0.000 A 
ATOM     14  C   UNL     1       1.279   8.805  19.894  0.00  0.00    +0.000 A 
ATOM     15  N   UNL     1       0.847   9.896  19.205  0.00  0.00    +0.000 NA
ATOM     16  C   UNL     1       0.166  10.823  19.927  0.00  0.00    +0.000 A 
BRANCH  11  20
ATOM     17  C   UNL     1      -2.505  13.220  23.291  0.00  0.00    +0.000 C 
ATOM     18  C   UNL     1      -1.383  12.266  23.085  0.00  0.00    +0.000 C 
ATOM     19  N   UNL     1      -0.256  12.966  22.339  0.00  0.00    +0.000 NA
ATOM     20  C   UNL     1      -0.646  11.820  21.973  0.00  0.00    +0.000 C 
ENDBRANCH  11  20
ENDBRANCH   7  14
ENDBRANCH   1   9
BRANCH   5  21
ATOM     21  C   UNL     1       5.796   4.775  16.842  0.00  0.00    +0.000 C 
ATOM     22  C   UNL     1       7.127   4.682  17.600  0.00  0.00    +0.000 C 
BRANCH  21  23
ATOM     23  S   UNL     1       5.832   3.573  15.453  0.00  0.00    +0.000 S 
BRANCH  23  24
ATOM     24  C   UNL     1       6.792   4.417  14.291  0.00  0.00    +0.000 A 
ATOM     25  N   UNL     1       7.696   5.336  14.532  0.00  0.00    +0.000 NA
ATOM     26  N   UNL     1       8.231   5.727  13.322  0.00  0.00    +0.000 NA
ATOM     27  C   UNL     1       7.638   5.027  12.381  0.00  0.00    +0.000 A 
ATOM     28  N   UNL     1       6.730   4.186  12.946  0.00  0.00    +0.000 N 
ATOM     29  C   UNL     1       5.895   3.256  12.241  0.00  0.00    +0.000 C 
ENDBRANCH  23  24
ENDBRANCH  21  23
ENDBRANCH   5  21
TORSDOF 6
ENDMDL
