MODEL 1
REMARK VINA RESULT:      -8.4      0.000      0.000
REMARK  Name = 
REMARK  3 active torsions:
REMARK  status: ('A' for Active; 'I' for Inactive)
REMARK    1  A    between atoms: C_2  and  C_13
REMARK    2  A    between atoms: N_3  and  C_4
REMARK    3  A    between atoms: C_17  and  N_18
REMARK                            x       y       z     vdW  Elec       q    Type
REMARK                         _______ _______ _______ _____ _____    ______ ____
ROOT
ATOM      1  O   UNL     1       7.492   9.610  17.492  0.00  0.00    +0.000 OA
ATOM      2  C   UNL     1       8.141   8.812  18.166  0.00  0.00    +0.000 C 
ATOM      3  N   UNL     1       9.136   9.147  19.076  0.00  0.00    +0.000 N 
ATOM      4  H   UNL     1       9.701   8.380  19.425  0.00  0.00    +0.000 HD
ENDROOT
BRANCH   3   5
ATOM      5  C   UNL     1       9.510  10.479  19.395  0.00  0.00    +0.000 A 
ATOM      6  C   UNL     1       9.327  11.014  20.682  0.00  0.00    +0.000 A 
ATOM      7  C   UNL     1       9.614  12.347  20.999  0.00  0.00    +0.000 A 
ATOM      8  C   UNL     1      10.111  13.123  19.963  0.00  0.00    +0.000 A 
ATOM      9  N   UNL     1      10.469  14.438  19.872  0.00  0.00    +0.000 N 
ATOM     10  N   UNL     1      10.909  14.750  18.642  0.00  0.00    +0.000 NA
ATOM     11  N   UNL     1      10.845  13.646  17.904  0.00  0.00    +0.000 NA
ATOM     12  C   UNL     1      10.352  12.633  18.687  0.00  0.00    +0.000 A 
ATOM     13  C   UNL     1      10.069  11.285  18.391  0.00  0.00    +0.000 A 
ATOM     14  H   UNL     1      10.435  15.159  20.582  0.00  0.00    +0.000 HD
ENDBRANCH   3   5
BRANCH   2  15
ATOM     15  C   UNL     1       7.869   7.355  17.960  0.00  0.00    +0.000 A 
ATOM     16  C   UNL     1       8.057   6.516  19.058  0.00  0.00    +0.000 A 
ATOM     17  C   UNL     1       7.855   5.154  18.910  0.00  0.00    +0.000 A 
ATOM     18  C   UNL     1       7.473   4.671  17.668  0.00  0.00    +0.000 A 
ATOM     19  C   UNL     1       7.298   5.569  16.609  0.00  0.00    +0.000 A 
ATOM     20  N   UNL     1       7.487   6.921  16.729  0.00  0.00    +0.000 NA
BRANCH  19  21
ATOM     21  N   UNL     1       6.912   5.026  15.343  0.00  0.00    +0.000 N 
ATOM     22  C   UNL     1       5.851   4.182  15.096  0.00  0.00    +0.000 A 
ATOM     23  C   UNL     1       5.861   3.903  13.749  0.00  0.00    +0.000 A 
ATOM     24  C   UNL     1       6.958   4.620  13.248  0.00  0.00    +0.000 A 
ATOM     25  N   UNL     1       7.595   5.308  14.196  0.00  0.00    +0.000 NA
ENDBRANCH  19  21
ENDBRANCH   2  15
TORSDOF 3
ENDMDL
MODEL 2
REMARK VINA RESULT:      -8.1      0.767      1.551
REMARK  Name = 
REMARK  3 active torsions:
REMARK  status: ('A' for Active; 'I' for Inactive)
REMARK    1  A    between atoms: C_2  and  C_13
REMARK    2  A    between atoms: N_3  and  C_4
REMARK    3  A    between atoms: C_17  and  N_18
REMARK                            x       y       z     vdW  Elec       q    Type
REMARK                         _______ _______ _______ _____ _____    ______ ____
ROOT
ATOM      1  O   UNL     1       7.468   9.631  17.480  0.00  0.00    +0.000 OA
ATOM      2  C   UNL     1       8.131   8.840  18.147  0.00  0.00    +0.000 C 
ATOM      3  N   UNL     1       9.142   9.186  19.037  0.00  0.00    +0.000 N 
ATOM      4  H   UNL     1       9.716   8.423  19.382  0.00  0.00    +0.000 HD
ENDROOT
BRANCH   3   5
ATOM      5  C   UNL     1       9.516  10.521  19.340  0.00  0.00    +0.000 A 
ATOM      6  C   UNL     1      10.261  11.305  18.442  0.00  0.00    +0.000 A 
ATOM      7  C   UNL     1      10.710  12.595  18.751  0.00  0.00    +0.000 A 
ATOM      8  C   UNL     1      10.363  13.074  20.006  0.00  0.00    +0.000 A 
ATOM      9  N   UNL     1      10.632  14.237  20.668  0.00  0.00    +0.000 N 
ATOM     10  N   UNL     1      10.070  14.259  21.887  0.00  0.00    +0.000 NA
ATOM     11  N   UNL     1       9.424  13.109  22.048  0.00  0.00    +0.000 NA
ATOM     12  C   UNL     1       9.592  12.358  20.912  0.00  0.00    +0.000 A 
ATOM     13  C   UNL     1       9.139  11.067  20.577  0.00  0.00    +0.000 A 
ATOM     14  H   UNL     1      11.181  15.032  20.362  0.00  0.00    +0.000 HD
ENDBRANCH   3   5
BRANCH   2  15
ATOM     15  C   UNL     1       7.862   7.381  17.957  0.00  0.00    +0.000 A 
ATOM     16  C   UNL     1       8.070   6.551  19.059  0.00  0.00    +0.000 A 
ATOM     17  C   UNL     1       7.870   5.187  18.924  0.00  0.00    +0.000 A 
ATOM     18  C   UNL     1       7.469   4.693  17.692  0.00  0.00    +0.000 A 
ATOM     19  C   UNL     1       7.275   5.583  16.629  0.00  0.00    +0.000 A 
ATOM     20  N   UNL     1       7.461   6.936  16.735  0.00  0.00    +0.000 NA
BRANCH  19  21
ATOM     21  N   UNL     1       6.871   5.029  15.373  0.00  0.00    +0.000 N 
ATOM     22  C   UNL     1       5.761   4.247  15.135  0.00  0.00    +0.000 A 
ATOM     23  C   UNL     1       5.770   3.928  13.797  0.00  0.00    +0.000 A 
ATOM     24  C   UNL     1       6.917   4.559  13.292  0.00  0.00    +0.000 A 
ATOM     25  N   UNL     1       7.585   5.232  14.229  0.00  0.00    +0.000 NA
ENDBRANCH  19  21
ENDBRANCH   2  15
TORSDOF 3
ENDMDL
MODEL 3
REMARK VINA RESULT:      -8.0      6.684      7.862
REMARK  Name = 
REMARK  3 active torsions:
REMARK  status: ('A' for Active; 'I' for Inactive)
REMARK    1  A    between atoms: C_2  and  C_13
REMARK    2  A    between atoms: N_3  and  C_4
REMARK    3  A    between atoms: C_17  and  N_18
REMARK                            x       y       z     vdW  Elec       q    Type
REMARK                         _______ _______ _______ _____ _____    ______ ____
ROOT
ATOM      1  O   UNL     1       0.759   5.583  20.991  0.00  0.00    +0.000 OA
ATOM      2  C   UNL     1       1.828   5.910  20.479  0.00  0.00    +0.000 C 
ATOM      3  N   UNL     1       2.220   7.213  20.196  0.00  0.00    +0.000 N 
ATOM      4  H   UNL     1       3.048   7.316  19.617  0.00  0.00    +0.000 HD
ENDROOT
BRANCH   3   5
ATOM      5  C   UNL     1       1.452   8.364  20.510  0.00  0.00    +0.000 A 
ATOM      6  C   UNL     1       1.111   9.319  19.536  0.00  0.00    +0.000 A 
ATOM      7  C   UNL     1       0.423  10.500  19.838  0.00  0.00    +0.000 A 
ATOM      8  C   UNL     1       0.076  10.677  21.169  0.00  0.00    +0.000 A 
ATOM      9  N   UNL     1      -0.553  11.685  21.842  0.00  0.00    +0.000 N 
ATOM     10  N   UNL     1      -0.676  11.409  23.150  0.00  0.00    +0.000 NA
ATOM     11  N   UNL     1      -0.127  10.216  23.359  0.00  0.00    +0.000 NA
ATOM     12  C   UNL     1       0.349   9.747  22.161  0.00  0.00    +0.000 A 
ATOM     13  C   UNL     1       1.032   8.558  21.836  0.00  0.00    +0.000 A 
ATOM     14  H   UNL     1      -0.907  12.565  21.488  0.00  0.00    +0.000 HD
ENDBRANCH   3   5
BRANCH   2  15
ATOM     15  C   UNL     1       2.770   4.815  20.087  0.00  0.00    +0.000 A 
ATOM     16  C   UNL     1       2.553   3.562  20.659  0.00  0.00    +0.000 A 
ATOM     17  C   UNL     1       3.419   2.524  20.357  0.00  0.00    +0.000 A 
ATOM     18  C   UNL     1       4.476   2.770  19.494  0.00  0.00    +0.000 A 
ATOM     19  C   UNL     1       4.632   4.051  18.953  0.00  0.00    +0.000 A 
ATOM     20  N   UNL     1       3.788   5.095  19.231  0.00  0.00    +0.000 NA
BRANCH  19  21
ATOM     21  N   UNL     1       5.741   4.263  18.074  0.00  0.00    +0.000 N 
ATOM     22  C   UNL     1       5.710   4.287  16.696  0.00  0.00    +0.000 A 
ATOM     23  C   UNL     1       6.998   4.506  16.267  0.00  0.00    +0.000 A 
ATOM     24  C   UNL     1       7.752   4.608  17.446  0.00  0.00    +0.000 A 
ATOM     25  N   UNL     1       7.006   4.471  18.542  0.00  0.00    +0.000 NA
ENDBRANCH  19  21
ENDBRANCH   2  15
TORSDOF 3
ENDMDL
MODEL 4
REMARK VINA RESULT:      -7.9      7.315     10.605
REMARK  Name = 
REMARK  3 active torsions:
REMARK  status: ('A' for Active; 'I' for Inactive)
REMARK    1  A    between atoms: C_2  and  C_13
REMARK    2  A    between atoms: N_3  and  C_4
REMARK    3  A    between atoms: C_17  and  N_18
REMARK                            x       y       z     vdW  Elec       q    Type
REMARK                         _______ _______ _______ _____ _____    ______ ____
ROOT
ATOM      1  O   UNL     1       3.926   6.982  17.964  0.00  0.00    +0.000 OA
ATOM      2  C   UNL     1       2.830   6.934  18.518  0.00  0.00    +0.000 C 
ATOM      3  N   UNL     1       2.174   5.771  18.906  0.00  0.00    +0.000 N 
ATOM      4  H   UNL     1       1.205   5.877  19.190  0.00  0.00    +0.000 HD
ENDROOT
BRANCH   3   5
ATOM      5  C   UNL     1       2.710   4.465  18.760  0.00  0.00    +0.000 A 
ATOM      6  C   UNL     1       2.300   3.605  17.727  0.00  0.00    +0.000 A 
ATOM      7  C   UNL     1       2.755   2.286  17.610  0.00  0.00    +0.000 A 
ATOM      8  C   UNL     1       3.660   1.869  18.575  0.00  0.00    +0.000 A 
ATOM      9  N   UNL     1       4.289   0.680  18.812  0.00  0.00    +0.000 N 
ATOM     10  N   UNL     1       5.098   0.749  19.881  0.00  0.00    +0.000 NA
ATOM     11  N   UNL     1       5.012   1.984  20.367  0.00  0.00    +0.000 NA
ATOM     12  C   UNL     1       4.131   2.692  19.589  0.00  0.00    +0.000 A 
ATOM     13  C   UNL     1       3.670   4.020  19.682  0.00  0.00    +0.000 A 
ATOM     14  H   UNL     1       4.211  -0.194  18.307  0.00  0.00    +0.000 HD
ENDBRANCH   3   5
BRANCH   2  15
ATOM     15  C   UNL     1       2.119   8.228  18.758  0.00  0.00    +0.000 A 
ATOM     16  C   UNL     1       2.185   9.182  17.743  0.00  0.00    +0.000 A 
ATOM     17  C   UNL     1       1.575  10.411  17.931  0.00  0.00    +0.000 A 
ATOM     18  C   UNL     1       0.919  10.651  19.128  0.00  0.00    +0.000 A 
ATOM     19  C   UNL     1       0.888   9.648  20.104  0.00  0.00    +0.000 A 
ATOM     20  N   UNL     1       1.479   8.422  19.942  0.00  0.00    +0.000 NA
BRANCH  19  21
ATOM     21  N   UNL     1       0.207   9.941  21.327  0.00  0.00    +0.000 N 
ATOM     22  C   UNL     1      -0.515  11.078  21.618  0.00  0.00    +0.000 A 
ATOM     23  C   UNL     1      -0.981  10.943  22.905  0.00  0.00    +0.000 A 
ATOM     24  C   UNL     1      -0.501   9.694  23.326  0.00  0.00    +0.000 A 
ATOM     25  N   UNL     1       0.209   9.075  22.382  0.00  0.00    +0.000 NA
ENDBRANCH  19  21
ENDBRANCH   2  15
TORSDOF 3
ENDMDL
MODEL 5
REMARK VINA RESULT:      -7.8      6.787      9.493
REMARK  Name = 
REMARK  3 active torsions:
REMARK  status: ('A' for Active; 'I' for Inactive)
REMARK    1  A    between atoms: C_2  and  C_13
REMARK    2  A    between atoms: N_3  and  C_4
REMARK    3  A    between atoms: C_17  and  N_18
REMARK                            x       y       z     vdW  Elec       q    Type
REMARK                         _______ _______ _______ _____ _____    ______ ____
ROOT
ATOM      1  O   UNL     1       2.541   8.594  17.312  0.00  0.00    +0.000 OA
ATOM      2  C   UNL     1       2.434   7.993  18.379  0.00  0.00    +0.000 C 
ATOM      3  N   UNL     1       3.016   6.765  18.673  0.00  0.00    +0.000 N 
ATOM      4  H   UNL     1       2.698   6.312  19.524  0.00  0.00    +0.000 HD
ENDROOT
BRANCH   3   5
ATOM      5  C   UNL     1       3.867   6.053  17.789  0.00  0.00    +0.000 A 
ATOM      6  C   UNL     1       3.562   4.753  17.349  0.00  0.00    +0.000 A 
ATOM      7  C   UNL     1       4.424   4.002  16.542  0.00  0.00    +0.000 A 
ATOM      8  C   UNL     1       5.611   4.622  16.180  0.00  0.00    +0.000 A 
ATOM      9  N   UNL     1       6.690   4.215  15.450  0.00  0.00    +0.000 N 
ATOM     10  N   UNL     1       7.621   5.178  15.358  0.00  0.00    +0.000 NA
ATOM     11  N   UNL     1       7.170   6.233  16.029  0.00  0.00    +0.000 NA
ATOM     12  C   UNL     1       5.941   5.918  16.550  0.00  0.00    +0.000 A 
ATOM     13  C   UNL     1       5.054   6.663  17.352  0.00  0.00    +0.000 A 
ATOM     14  H   UNL     1       6.859   3.321  15.005  0.00  0.00    +0.000 HD
ENDBRANCH   3   5
BRANCH   2  15
ATOM     15  C   UNL     1       1.571   8.608  19.435  0.00  0.00    +0.000 A 
ATOM     16  C   UNL     1       1.758   8.161  20.742  0.00  0.00    +0.000 A 
ATOM     17  C   UNL     1       0.958   8.673  21.751  0.00  0.00    +0.000 A 
ATOM     18  C   UNL     1      -0.004   9.615  21.423  0.00  0.00    +0.000 A 
ATOM     19  C   UNL     1      -0.134  10.024  20.090  0.00  0.00    +0.000 A 
ATOM     20  N   UNL     1       0.646   9.537  19.073  0.00  0.00    +0.000 NA
BRANCH  19  21
ATOM     21  N   UNL     1      -1.145  10.991  19.795  0.00  0.00    +0.000 N 
ATOM     22  C   UNL     1      -1.529  12.052  20.587  0.00  0.00    +0.000 A 
ATOM     23  C   UNL     1      -2.538  12.709  19.921  0.00  0.00    +0.000 A 
ATOM     24  C   UNL     1      -2.705  11.986  18.731  0.00  0.00    +0.000 A 
ATOM     25  N   UNL     1      -1.868  10.954  18.638  0.00  0.00    +0.000 NA
ENDBRANCH  19  21
ENDBRANCH   2  15
TORSDOF 3
ENDMDL
MODEL 6
REMARK VINA RESULT:      -7.7      6.385      9.288
REMARK  Name = 
REMARK  3 active torsions:
REMARK  status: ('A' for Active; 'I' for Inactive)
REMARK    1  A    between atoms: C_2  and  C_13
REMARK    2  A    between atoms: N_3  and  C_4
REMARK    3  A    between atoms: C_17  and  N_18
REMARK                            x       y       z     vdW  Elec       q    Type
REMARK                         _______ _______ _______ _____ _____    ______ ____
ROOT
ATOM      1  O   UNL     1       2.419   6.033  20.274  0.00  0.00    +0.000 OA
ATOM      2  C   UNL     1       2.324   7.064  19.611  0.00  0.00    +0.000 C 
ATOM      3  N   UNL     1       2.965   7.306  18.402  0.00  0.00    +0.000 N 
ATOM      4  H   UNL     1       2.932   8.261  18.060  0.00  0.00    +0.000 HD
ENDROOT
BRANCH   3   5
ATOM      5  C   UNL     1       3.786   6.362  17.731  0.00  0.00    +0.000 A 
ATOM      6  C   UNL     1       3.386   5.028  17.546  0.00  0.00    +0.000 A 
ATOM      7  C   UNL     1       4.212   4.061  16.959  0.00  0.00    +0.000 A 
ATOM      8  C   UNL     1       5.462   4.500  16.548  0.00  0.00    +0.000 A 
ATOM      9  N   UNL     1       6.531   3.869  15.979  0.00  0.00    +0.000 N 
ATOM     10  N   UNL     1       7.545   4.717  15.748  0.00  0.00    +0.000 NA
ATOM     11  N   UNL     1       7.161   5.920  16.164  0.00  0.00    +0.000 NA
ATOM     12  C   UNL     1       5.889   5.815  16.666  0.00  0.00    +0.000 A 
ATOM     13  C   UNL     1       5.038   6.776  17.249  0.00  0.00    +0.000 A 
ATOM     14  H   UNL     1       6.639   2.892  15.735  0.00  0.00    +0.000 HD
ENDBRANCH   3   5
BRANCH   2  15
ATOM     15  C   UNL     1       1.486   8.170  20.171  0.00  0.00    +0.000 A 
ATOM     16  C   UNL     1       0.833   7.919  21.377  0.00  0.00    +0.000 A 
ATOM     17  C   UNL     1       0.015   8.897  21.918  0.00  0.00    +0.000 A 
ATOM     18  C   UNL     1      -0.127  10.096  21.237  0.00  0.00    +0.000 A 
ATOM     19  C   UNL     1       0.561  10.284  20.032  0.00  0.00    +0.000 A 
ATOM     20  N   UNL     1       1.380   9.335  19.477  0.00  0.00    +0.000 NA
BRANCH  19  21
ATOM     21  N   UNL     1       0.380  11.532  19.359  0.00  0.00    +0.000 N 
ATOM     22  C   UNL     1      -0.764  11.970  18.726  0.00  0.00    +0.000 A 
ATOM     23  C   UNL     1      -0.488  13.213  18.207  0.00  0.00    +0.000 A 
ATOM     24  C   UNL     1       0.844  13.461  18.571  0.00  0.00    +0.000 A 
ATOM     25  N   UNL     1       1.377  12.460  19.272  0.00  0.00    +0.000 NA
ENDBRANCH  19  21
ENDBRANCH   2  15
TORSDOF 3
ENDMDL
MODEL 7
REMARK VINA RESULT:      -7.7      6.578      9.551
REMARK  Name = 
REMARK  3 active torsions:
REMARK  status: ('A' for Active; 'I' for Inactive)
REMARK    1  A    between atoms: C_2  and  C_13
REMARK    2  A    between atoms: N_3  and  C_4
REMARK    3  A    between atoms: C_17  and  N_18
REMARK                            x       y       z     vdW  Elec       q    Type
REMARK                         _______ _______ _______ _____ _____    ______ ____
ROOT
ATOM      1  O   UNL     1       2.402   8.472  17.240  0.00  0.00    +0.000 OA
ATOM      2  C   UNL     1       2.425   8.005  18.377  0.00  0.00    +0.000 C 
ATOM      3  N   UNL     1       3.086   6.843  18.757  0.00  0.00    +0.000 N 
ATOM      4  H   UNL     1       2.872   6.488  19.683  0.00  0.00    +0.000 HD
ENDROOT
BRANCH   3   5
ATOM      5  C   UNL     1       3.878   6.053  17.883  0.00  0.00    +0.000 A 
ATOM      6  C   UNL     1       3.486   4.762  17.487  0.00  0.00    +0.000 A 
ATOM      7  C   UNL     1       4.288   3.935  16.692  0.00  0.00    +0.000 A 
ATOM      8  C   UNL     1       5.505   4.470  16.294  0.00  0.00    +0.000 A 
ATOM      9  N   UNL     1       6.545   3.975  15.562  0.00  0.00    +0.000 N 
ATOM     10  N   UNL     1       7.532   4.876  15.427  0.00  0.00    +0.000 NA
ATOM     11  N   UNL     1       7.157   5.977  16.072  0.00  0.00    +0.000 NA
ATOM     12  C   UNL     1       5.919   5.754  16.619  0.00  0.00    +0.000 A 
ATOM     13  C   UNL     1       5.093   6.575  17.411  0.00  0.00    +0.000 A 
ATOM     14  H   UNL     1       6.652   3.060  15.142  0.00  0.00    +0.000 HD
ENDBRANCH   3   5
BRANCH   2  15
ATOM     15  C   UNL     1       1.643   8.720  19.433  0.00  0.00    +0.000 A 
ATOM     16  C   UNL     1       1.472   8.057  20.649  0.00  0.00    +0.000 A 
ATOM     17  C   UNL     1       0.724   8.661  21.646  0.00  0.00    +0.000 A 
ATOM     18  C   UNL     1       0.168   9.907  21.399  0.00  0.00    +0.000 A 
ATOM     19  C   UNL     1       0.383  10.517  20.158  0.00  0.00    +0.000 A 
ATOM     20  N   UNL     1       1.122   9.945  19.155  0.00  0.00    +0.000 NA
BRANCH  19  21
ATOM     21  N   UNL     1      -0.215  11.798  19.942  0.00  0.00    +0.000 N 
ATOM     22  C   UNL     1       0.191  12.758  19.041  0.00  0.00    +0.000 A 
ATOM     23  C   UNL     1      -0.658  13.831  19.182  0.00  0.00    +0.000 A 
ATOM     24  C   UNL     1      -1.556  13.441  20.187  0.00  0.00    +0.000 A 
ATOM     25  N   UNL     1      -1.306  12.215  20.649  0.00  0.00    +0.000 NA
ENDBRANCH  19  21
ENDBRANCH   2  15
TORSDOF 3
ENDMDL
MODEL 8
REMARK VINA RESULT:      -7.6      6.798      7.991
REMARK  Name = 
REMARK  3 active torsions:
REMARK  status: ('A' for Active; 'I' for Inactive)
REMARK    1  A    between atoms: C_2  and  C_13
REMARK    2  A    between atoms: N_3  and  C_4
REMARK    3  A    between atoms: C_17  and  N_18
REMARK                            x       y       z     vdW  Elec       q    Type
REMARK                         _______ _______ _______ _____ _____    ______ ____
ROOT
ATOM      1  O   UNL     1       2.275   8.995  17.397  0.00  0.00    +0.000 OA
ATOM      2  C   UNL     1       2.498   8.094  18.203  0.00  0.00    +0.000 C 
ATOM      3  N   UNL     1       1.988   8.024  19.494  0.00  0.00    +0.000 N 
ATOM      4  H   UNL     1       2.397   7.319  20.100  0.00  0.00    +0.000 HD
ENDROOT
BRANCH   3   5
ATOM      5  C   UNL     1       1.086   8.969  20.049  0.00  0.00    +0.000 A 
ATOM      6  C   UNL     1       0.375   9.878  19.246  0.00  0.00    +0.000 A 
ATOM      7  C   UNL     1      -0.458  10.870  19.776  0.00  0.00    +0.000 A 
ATOM      8  C   UNL     1      -0.559  10.902  21.159  0.00  0.00    +0.000 A 
ATOM      9  N   UNL     1      -1.227  11.718  22.026  0.00  0.00    +0.000 N 
ATOM     10  N   UNL     1      -1.029  11.357  23.304  0.00  0.00    +0.000 NA
ATOM     11  N   UNL     1      -0.225  10.298  23.298  0.00  0.00    +0.000 NA
ATOM     12  C   UNL     1       0.085  10.001  21.995  0.00  0.00    +0.000 A 
ATOM     13  C   UNL     1       0.910   9.002  21.442  0.00  0.00    +0.000 A 
ATOM     14  H   UNL     1      -1.813  12.520  21.825  0.00  0.00    +0.000 HD
ENDBRANCH   3   5
BRANCH   2  15
ATOM     15  C   UNL     1       3.430   7.003  17.779  0.00  0.00    +0.000 A 
ATOM     16  C   UNL     1       4.359   7.317  16.787  0.00  0.00    +0.000 A 
ATOM     17  C   UNL     1       5.220   6.331  16.333  0.00  0.00    +0.000 A 
ATOM     18  C   UNL     1       5.126   5.062  16.883  0.00  0.00    +0.000 A 
ATOM     19  C   UNL     1       4.173   4.817  17.879  0.00  0.00    +0.000 A 
ATOM     20  N   UNL     1       3.312   5.774  18.349  0.00  0.00    +0.000 NA
BRANCH  19  21
ATOM     21  N   UNL     1       4.104   3.491  18.412  0.00  0.00    +0.000 N 
ATOM     22  C   UNL     1       3.418   2.421  17.878  0.00  0.00    +0.000 A 
ATOM     23  C   UNL     1       3.617   1.353  18.721  0.00  0.00    +0.000 A 
ATOM     24  C   UNL     1       4.438   1.855  19.742  0.00  0.00    +0.000 A 
ATOM     25  N   UNL     1       4.746   3.140  19.564  0.00  0.00    +0.000 NA
ENDBRANCH  19  21
ENDBRANCH   2  15
TORSDOF 3
ENDMDL
MODEL 9
REMARK VINA RESULT:      -7.5      6.698      7.789
REMARK  Name = 
REMARK  3 active torsions:
REMARK  status: ('A' for Active; 'I' for Inactive)
REMARK    1  A    between atoms: C_2  and  C_13
REMARK    2  A    between atoms: N_3  and  C_4
REMARK    3  A    between atoms: C_17  and  N_18
REMARK                            x       y       z     vdW  Elec       q    Type
REMARK                         _______ _______ _______ _____ _____    ______ ____
ROOT
ATOM      1  O   UNL     1       0.595   5.617  20.728  0.00  0.00    +0.000 OA
ATOM      2  C   UNL     1       1.747   5.948  20.455  0.00  0.00    +0.000 C 
ATOM      3  N   UNL     1       2.217   7.254  20.394  0.00  0.00    +0.000 N 
ATOM      4  H   UNL     1       3.138   7.381  19.988  0.00  0.00    +0.000 HD
ENDROOT
BRANCH   3   5
ATOM      5  C   UNL     1       1.433   8.399  20.694  0.00  0.00    +0.000 A 
ATOM      6  C   UNL     1       1.074   8.729  22.013  0.00  0.00    +0.000 A 
ATOM      7  C   UNL     1       0.237   9.807  22.325  0.00  0.00    +0.000 A 
ATOM      8  C   UNL     1      -0.216  10.555  21.249  0.00  0.00    +0.000 A 
ATOM      9  N   UNL     1      -1.051  11.631  21.147  0.00  0.00    +0.000 N 
ATOM     10  N   UNL     1      -1.198  12.028  19.873  0.00  0.00    +0.000 NA
ATOM     11  N   UNL     1      -0.464  11.218  19.116  0.00  0.00    +0.000 NA
ATOM     12  C   UNL     1       0.144  10.300  19.933  0.00  0.00    +0.000 A 
ATOM     13  C   UNL     1       0.998   9.218  19.640  0.00  0.00    +0.000 A 
ATOM     14  H   UNL     1      -1.545  12.126  21.879  0.00  0.00    +0.000 HD
ENDBRANCH   3   5
BRANCH   2  15
ATOM     15  C   UNL     1       2.716   4.859  20.116  0.00  0.00    +0.000 A 
ATOM     16  C   UNL     1       2.520   3.625  20.734  0.00  0.00    +0.000 A 
ATOM     17  C   UNL     1       3.411   2.595  20.482  0.00  0.00    +0.000 A 
ATOM     18  C   UNL     1       4.472   2.830  19.621  0.00  0.00    +0.000 A 
ATOM     19  C   UNL     1       4.607   4.092  19.032  0.00  0.00    +0.000 A 
ATOM     20  N   UNL     1       3.738   5.127  19.260  0.00  0.00    +0.000 NA
BRANCH  19  21
ATOM     21  N   UNL     1       5.721   4.294  18.157  0.00  0.00    +0.000 N 
ATOM     22  C   UNL     1       5.695   4.319  16.779  0.00  0.00    +0.000 A 
ATOM     23  C   UNL     1       6.987   4.526  16.355  0.00  0.00    +0.000 A 
ATOM     24  C   UNL     1       7.737   4.620  17.536  0.00  0.00    +0.000 A 
ATOM     25  N   UNL     1       6.986   4.490  18.630  0.00  0.00    +0.000 NA
ENDBRANCH  19  21
ENDBRANCH   2  15
TORSDOF 3
ENDMDL
