MODEL 1
REMARK VINA RESULT:      -8.3      0.000      0.000
REMARK  Name = 
REMARK  7 active torsions:
REMARK  status: ('A' for Active; 'I' for Inactive)
REMARK    1  A    between atoms: C_2  and  C_9
REMARK    2  A    between atoms: N_3  and  O_4
REMARK    3  A    between atoms: O_4  and  C_5
REMARK    4  A    between atoms: C_5  and  C_6
REMARK    5  A    between atoms: C_11  and  C_12
REMARK    6  A    between atoms: N_23  and  C_24
REMARK    7  A    between atoms: C_24  and  C_25
REMARK                            x       y       z     vdW  Elec       q    Type
REMARK                         _______ _______ _______ _____ _____    ______ ____
ROOT
ATOM      1  C   UNL     1       2.480   8.354  18.368  0.00  0.00    +0.000 A 
ATOM      2  C   UNL     1       3.450   7.817  17.515  0.00  0.00    +0.000 A 
ATOM      3  C   UNL     1       3.958   6.536  17.742  0.00  0.00    +0.000 A 
ATOM      4  N   UNL     1       3.565   5.756  18.785  0.00  0.00    +0.000 NA
ATOM      5  C   UNL     1       2.605   6.300  19.565  0.00  0.00    +0.000 A 
ATOM      6  C   UNL     1       2.027   7.557  19.426  0.00  0.00    +0.000 A 
ATOM      7  C   UNL     1       1.084   7.627  20.474  0.00  0.00    +0.000 A 
ATOM      8  N   UNL     1       1.093   6.547  21.257  0.00  0.00    +0.000 NA
ATOM      9  N   UNL     1       2.002   5.733  20.664  0.00  0.00    +0.000 N 
ENDROOT
BRANCH   3  10
ATOM     10  C   UNL     1       4.996   5.966  16.857  0.00  0.00    +0.000 A 
ATOM     11  C   UNL     1       4.752   4.878  16.000  0.00  0.00    +0.000 A 
ATOM     12  C   UNL     1       5.738   4.413  15.131  0.00  0.00    +0.000 A 
ATOM     13  C   UNL     1       6.970   5.039  15.144  0.00  0.00    +0.000 A 
ATOM     14  N   UNL     1       7.271   6.066  15.965  0.00  0.00    +0.000 NA
ATOM     15  C   UNL     1       6.286   6.496  16.797  0.00  0.00    +0.000 A 
ENDBRANCH   3  10
BRANCH   1  17
ATOM     16  O   UNL     1       2.692  10.513  17.523  0.00  0.00    +0.000 OA
ATOM     17  C   UNL     1       1.960   9.709  18.089  0.00  0.00    +0.000 C 
ATOM     18  N   UNL     1       0.686   9.960  18.533  0.00  0.00    +0.000 N 
ATOM     19  H   UNL     1       0.212   9.386  19.219  0.00  0.00    +0.000 HD
BRANCH  18  20
ATOM     20  O   UNL     1       0.197  11.268  18.305  0.00  0.00    +0.000 OA
BRANCH  20  21
ATOM     21  C   UNL     1      -1.231  11.245  18.294  0.00  0.00    +0.000 C 
BRANCH  21  22
ATOM     22  C   UNL     1      -1.701  10.080  17.484  0.00  0.00    +0.000 C 
ATOM     23  C   UNL     1      -2.494  10.278  16.216  0.00  0.00    +0.000 C 
ATOM     24  C   UNL     1      -3.169   9.732  17.443  0.00  0.00    +0.000 C 
ENDBRANCH  21  22
ENDBRANCH  20  21
ENDBRANCH  18  20
ENDBRANCH   1  17
BRANCH   9  25
ATOM     25  C   UNL     1       2.359   4.479  21.305  0.00  0.00    +0.000 C 
BRANCH  25  26
ATOM     26  C   UNL     1       2.590   3.361  20.329  0.00  0.00    +0.000 A 
ATOM     27  C   UNL     1       1.588   2.943  19.448  0.00  0.00    +0.000 A 
ATOM     28  C   UNL     1       1.874   1.976  18.487  0.00  0.00    +0.000 A 
ATOM     29  C   UNL     1       3.152   1.446  18.447  0.00  0.00    +0.000 A 
ATOM     30  N   UNL     1       4.134   1.795  19.306  0.00  0.00    +0.000 NA
ATOM     31  C   UNL     1       3.829   2.735  20.231  0.00  0.00    +0.000 A 
ENDBRANCH  25  26
ENDBRANCH   9  25
TORSDOF 7
ENDMDL
MODEL 2
REMARK VINA RESULT:      -8.0      2.123      7.428
REMARK  Name = 
REMARK  7 active torsions:
REMARK  status: ('A' for Active; 'I' for Inactive)
REMARK    1  A    between atoms: C_2  and  C_9
REMARK    2  A    between atoms: N_3  and  O_4
REMARK    3  A    between atoms: O_4  and  C_5
REMARK    4  A    between atoms: C_5  and  C_6
REMARK    5  A    between atoms: C_11  and  C_12
REMARK    6  A    between atoms: N_23  and  C_24
REMARK    7  A    between atoms: C_24  and  C_25
REMARK                            x       y       z     vdW  Elec       q    Type
REMARK                         _______ _______ _______ _____ _____    ______ ____
ROOT
ATOM      1  C   UNL     1       3.878   6.797  17.574  0.00  0.00    +0.000 A 
ATOM      2  C   UNL     1       3.529   5.660  18.309  0.00  0.00    +0.000 A 
ATOM      3  C   UNL     1       2.484   5.711  19.234  0.00  0.00    +0.000 A 
ATOM      4  N   UNL     1       1.769   6.841  19.485  0.00  0.00    +0.000 NA
ATOM      5  C   UNL     1       2.119   7.908  18.732  0.00  0.00    +0.000 A 
ATOM      6  C   UNL     1       3.132   7.964  17.782  0.00  0.00    +0.000 A 
ATOM      7  C   UNL     1       3.072   9.283  17.283  0.00  0.00    +0.000 A 
ATOM      8  N   UNL     1       2.151  10.030  17.894  0.00  0.00    +0.000 NA
ATOM      9  N   UNL     1       1.554   9.162  18.749  0.00  0.00    +0.000 N 
ENDROOT
BRANCH   3  10
ATOM     10  C   UNL     1       2.117   4.519  20.028  0.00  0.00    +0.000 A 
ATOM     11  C   UNL     1       1.444   3.415  19.477  0.00  0.00    +0.000 A 
ATOM     12  C   UNL     1       1.176   2.281  20.244  0.00  0.00    +0.000 A 
ATOM     13  C   UNL     1       1.576   2.276  21.566  0.00  0.00    +0.000 A 
ATOM     14  N   UNL     1       2.199   3.316  22.156  0.00  0.00    +0.000 NA
ATOM     15  C   UNL     1       2.446   4.404  21.380  0.00  0.00    +0.000 A 
ENDBRANCH   3  10
BRANCH   1  17
ATOM     16  O   UNL     1       4.819   7.174  15.478  0.00  0.00    +0.000 OA
ATOM     17  C   UNL     1       4.983   6.701  16.597  0.00  0.00    +0.000 C 
ATOM     18  N   UNL     1       6.106   6.043  17.032  0.00  0.00    +0.000 N 
ATOM     19  H   UNL     1       6.118   5.440  17.845  0.00  0.00    +0.000 HD
BRANCH  18  20
ATOM     20  O   UNL     1       7.152   5.913  16.089  0.00  0.00    +0.000 OA
BRANCH  20  21
ATOM     21  C   UNL     1       7.067   4.633  15.460  0.00  0.00    +0.000 C 
BRANCH  21  22
ATOM     22  C   UNL     1       6.497   4.794  14.087  0.00  0.00    +0.000 C 
ATOM     23  C   UNL     1       5.329   3.961  13.622  0.00  0.00    +0.000 C 
ATOM     24  C   UNL     1       6.698   3.710  13.055  0.00  0.00    +0.000 C 
ENDBRANCH  21  22
ENDBRANCH  20  21
ENDBRANCH  18  20
ENDBRANCH   1  17
BRANCH   9  25
ATOM     25  C   UNL     1       0.547   9.653  19.674  0.00  0.00    +0.000 C 
BRANCH  25  26
ATOM     26  C   UNL     1      -0.607  10.325  18.988  0.00  0.00    +0.000 A 
ATOM     27  C   UNL     1      -1.117   9.845  17.778  0.00  0.00    +0.000 A 
ATOM     28  C   UNL     1      -2.254  10.432  17.227  0.00  0.00    +0.000 A 
ATOM     29  C   UNL     1      -2.838  11.492  17.898  0.00  0.00    +0.000 A 
ATOM     30  N   UNL     1      -2.351  12.010  19.047  0.00  0.00    +0.000 NA
ATOM     31  C   UNL     1      -1.244  11.423  19.559  0.00  0.00    +0.000 A 
ENDBRANCH  25  26
ENDBRANCH   9  25
TORSDOF 7
ENDMDL
MODEL 3
REMARK VINA RESULT:      -8.0      3.179      6.619
REMARK  Name = 
REMARK  7 active torsions:
REMARK  status: ('A' for Active; 'I' for Inactive)
REMARK    1  A    between atoms: C_2  and  C_9
REMARK    2  A    between atoms: N_3  and  O_4
REMARK    3  A    between atoms: O_4  and  C_5
REMARK    4  A    between atoms: C_5  and  C_6
REMARK    5  A    between atoms: C_11  and  C_12
REMARK    6  A    between atoms: N_23  and  C_24
REMARK    7  A    between atoms: C_24  and  C_25
REMARK                            x       y       z     vdW  Elec       q    Type
REMARK                         _______ _______ _______ _____ _____    ______ ____
ROOT
ATOM      1  C   UNL     1       5.654   6.849  17.387  0.00  0.00    +0.000 A 
ATOM      2  C   UNL     1       4.649   7.713  17.834  0.00  0.00    +0.000 A 
ATOM      3  C   UNL     1       3.374   7.221  18.125  0.00  0.00    +0.000 A 
ATOM      4  N   UNL     1       3.034   5.911  17.983  0.00  0.00    +0.000 NA
ATOM      5  C   UNL     1       4.042   5.108  17.580  0.00  0.00    +0.000 A 
ATOM      6  C   UNL     1       5.343   5.489  17.271  0.00  0.00    +0.000 A 
ATOM      7  C   UNL     1       5.989   4.283  16.923  0.00  0.00    +0.000 A 
ATOM      8  N   UNL     1       5.171   3.229  16.941  0.00  0.00    +0.000 NA
ATOM      9  N   UNL     1       3.996   3.747  17.381  0.00  0.00    +0.000 N 
ENDROOT
BRANCH   3  10
ATOM     10  C   UNL     1       2.299   8.128  18.582  0.00  0.00    +0.000 A 
ATOM     11  C   UNL     1       1.633   9.014  17.719  0.00  0.00    +0.000 A 
ATOM     12  C   UNL     1       0.578   9.804  18.175  0.00  0.00    +0.000 A 
ATOM     13  C   UNL     1       0.214   9.706  19.504  0.00  0.00    +0.000 A 
ATOM     14  N   UNL     1       0.836   8.896  20.385  0.00  0.00    +0.000 NA
ATOM     15  C   UNL     1       1.858   8.138  19.907  0.00  0.00    +0.000 A 
ENDBRANCH   3  10
BRANCH   1  17
ATOM     16  O   UNL     1       7.737   6.784  16.348  0.00  0.00    +0.000 OA
ATOM     17  C   UNL     1       6.992   7.406  17.098  0.00  0.00    +0.000 C 
ATOM     18  N   UNL     1       7.300   8.579  17.740  0.00  0.00    +0.000 N 
ATOM     19  H   UNL     1       6.790   8.925  18.543  0.00  0.00    +0.000 HD
BRANCH  18  20
ATOM     20  O   UNL     1       8.595   9.096  17.499  0.00  0.00    +0.000 OA
BRANCH  20  21
ATOM     21  C   UNL     1       8.968   9.960  18.573  0.00  0.00    +0.000 C 
BRANCH  21  22
ATOM     22  C   UNL     1       9.358  11.293  18.023  0.00  0.00    +0.000 C 
ATOM     23  C   UNL     1      10.807  11.661  17.815  0.00  0.00    +0.000 C 
ATOM     24  C   UNL     1      10.020  12.315  18.917  0.00  0.00    +0.000 C 
ENDBRANCH  21  22
ENDBRANCH  20  21
ENDBRANCH  18  20
ENDBRANCH   1  17
BRANCH   9  25
ATOM     25  C   UNL     1       2.819   2.897  17.434  0.00  0.00    +0.000 C 
BRANCH  25  26
ATOM     26  C   UNL     1       2.248   2.764  18.817  0.00  0.00    +0.000 A 
ATOM     27  C   UNL     1       3.061   2.476  19.917  0.00  0.00    +0.000 A 
ATOM     28  C   UNL     1       2.511   2.465  21.197  0.00  0.00    +0.000 A 
ATOM     29  C   UNL     1       1.159   2.729  21.334  0.00  0.00    +0.000 A 
ATOM     30  N   UNL     1       0.334   2.971  20.292  0.00  0.00    +0.000 NA
ATOM     31  C   UNL     1       0.894   2.974  19.060  0.00  0.00    +0.000 A 
ENDBRANCH  25  26
ENDBRANCH   9  25
TORSDOF 7
ENDMDL
MODEL 4
REMARK VINA RESULT:      -7.9      2.272      5.617
REMARK  Name = 
REMARK  7 active torsions:
REMARK  status: ('A' for Active; 'I' for Inactive)
REMARK    1  A    between atoms: C_2  and  C_9
REMARK    2  A    between atoms: N_3  and  O_4
REMARK    3  A    between atoms: O_4  and  C_5
REMARK    4  A    between atoms: C_5  and  C_6
REMARK    5  A    between atoms: C_11  and  C_12
REMARK    6  A    between atoms: N_23  and  C_24
REMARK    7  A    between atoms: C_24  and  C_25
REMARK                            x       y       z     vdW  Elec       q    Type
REMARK                         _______ _______ _______ _____ _____    ______ ____
ROOT
ATOM      1  C   UNL     1       2.733   7.417  18.152  0.00  0.00    +0.000 A 
ATOM      2  C   UNL     1       2.248   6.482  19.073  0.00  0.00    +0.000 A 
ATOM      3  C   UNL     1       2.761   5.184  19.098  0.00  0.00    +0.000 A 
ATOM      4  N   UNL     1       3.727   4.751  18.244  0.00  0.00    +0.000 NA
ATOM      5  C   UNL     1       4.190   5.693  17.392  0.00  0.00    +0.000 A 
ATOM      6  C   UNL     1       3.757   7.010  17.288  0.00  0.00    +0.000 A 
ATOM      7  C   UNL     1       4.563   7.565  16.270  0.00  0.00    +0.000 A 
ATOM      8  N   UNL     1       5.394   6.677  15.721  0.00  0.00    +0.000 NA
ATOM      9  N   UNL     1       5.178   5.550  16.446  0.00  0.00    +0.000 N 
ENDROOT
BRANCH   3  10
ATOM     10  C   UNL     1       2.243   4.183  20.056  0.00  0.00    +0.000 A 
ATOM     11  C   UNL     1       1.294   3.209  19.700  0.00  0.00    +0.000 A 
ATOM     12  C   UNL     1       0.881   2.241  20.615  0.00  0.00    +0.000 A 
ATOM     13  C   UNL     1       1.418   2.272  21.888  0.00  0.00    +0.000 A 
ATOM     14  N   UNL     1       2.308   3.200  22.294  0.00  0.00    +0.000 NA
ATOM     15  C   UNL     1       2.691   4.127  21.377  0.00  0.00    +0.000 A 
ENDBRANCH   3  10
BRANCH   1  17
ATOM     16  O   UNL     1       2.454   9.541  17.241  0.00  0.00    +0.000 OA
ATOM     17  C   UNL     1       2.171   8.783  18.163  0.00  0.00    +0.000 C 
ATOM     18  N   UNL     1       1.395   9.099  19.249  0.00  0.00    +0.000 N 
ATOM     19  H   UNL     1       1.396   8.565  20.109  0.00  0.00    +0.000 HD
BRANCH  18  20
ATOM     20  O   UNL     1       0.887  10.419  19.286  0.00  0.00    +0.000 OA
BRANCH  20  21
ATOM     21  C   UNL     1       0.847  10.875  20.638  0.00  0.00    +0.000 C 
BRANCH  21  22
ATOM     22  C   UNL     1      -0.105  10.027  21.419  0.00  0.00    +0.000 C 
ATOM     23  C   UNL     1      -0.696  10.508  22.720  0.00  0.00    +0.000 C 
ATOM     24  C   UNL     1       0.330   9.411  22.726  0.00  0.00    +0.000 C 
ENDBRANCH  21  22
ENDBRANCH  20  21
ENDBRANCH  18  20
ENDBRANCH   1  17
BRANCH   9  25
ATOM     25  C   UNL     1       5.848   4.319  16.064  0.00  0.00    +0.000 C 
BRANCH  25  26
ATOM     26  C   UNL     1       6.391   4.352  14.664  0.00  0.00    +0.000 A 
ATOM     27  C   UNL     1       5.824   3.582  13.644  0.00  0.00    +0.000 A 
ATOM     28  C   UNL     1       6.288   3.720  12.337  0.00  0.00    +0.000 A 
ATOM     29  C   UNL     1       7.316   4.614  12.095  0.00  0.00    +0.000 A 
ATOM     30  N   UNL     1       7.916   5.344  13.060  0.00  0.00    +0.000 NA
ATOM     31  C   UNL     1       7.448   5.190  14.321  0.00  0.00    +0.000 A 
ENDBRANCH  25  26
ENDBRANCH   9  25
TORSDOF 7
ENDMDL
MODEL 5
REMARK VINA RESULT:      -7.9      3.427      8.825
REMARK  Name = 
REMARK  7 active torsions:
REMARK  status: ('A' for Active; 'I' for Inactive)
REMARK    1  A    between atoms: C_2  and  C_9
REMARK    2  A    between atoms: N_3  and  O_4
REMARK    3  A    between atoms: O_4  and  C_5
REMARK    4  A    between atoms: C_5  and  C_6
REMARK    5  A    between atoms: C_11  and  C_12
REMARK    6  A    between atoms: N_23  and  C_24
REMARK    7  A    between atoms: C_24  and  C_25
REMARK                            x       y       z     vdW  Elec       q    Type
REMARK                         _______ _______ _______ _____ _____    ______ ____
ROOT
ATOM      1  C   UNL     1       0.886   9.055  19.536  0.00  0.00    +0.000 A 
ATOM      2  C   UNL     1      -0.043   9.436  18.563  0.00  0.00    +0.000 A 
ATOM      3  C   UNL     1      -1.160  10.197  18.914  0.00  0.00    +0.000 A 
ATOM      4  N   UNL     1      -1.418  10.594  20.189  0.00  0.00    +0.000 NA
ATOM      5  C   UNL     1      -0.480  10.232  21.092  0.00  0.00    +0.000 A 
ATOM      6  C   UNL     1       0.668   9.484  20.851  0.00  0.00    +0.000 A 
ATOM      7  C   UNL     1       1.303   9.402  22.109  0.00  0.00    +0.000 A 
ATOM      8  N   UNL     1       0.604   9.984  23.085  0.00  0.00    +0.000 NA
ATOM      9  N   UNL     1      -0.462  10.518  22.438  0.00  0.00    +0.000 N 
ENDROOT
BRANCH   3  10
ATOM     10  C   UNL     1      -2.158  10.591  17.895  0.00  0.00    +0.000 A 
ATOM     11  C   UNL     1      -2.072  10.189  16.551  0.00  0.00    +0.000 A 
ATOM     12  C   UNL     1      -3.069  10.526  15.636  0.00  0.00    +0.000 A 
ATOM     13  C   UNL     1      -4.139  11.278  16.081  0.00  0.00    +0.000 A 
ATOM     14  N   UNL     1      -4.260  11.716  17.351  0.00  0.00    +0.000 NA
ATOM     15  C   UNL     1      -3.272  11.369  18.217  0.00  0.00    +0.000 A 
ENDBRANCH   3  10
BRANCH   1  17
ATOM     16  O   UNL     1       2.711   8.629  18.155  0.00  0.00    +0.000 OA
ATOM     17  C   UNL     1       2.060   8.257  19.125  0.00  0.00    +0.000 C 
ATOM     18  N   UNL     1       2.298   7.125  19.862  0.00  0.00    +0.000 N 
ATOM     19  H   UNL     1       1.609   6.702  20.472  0.00  0.00    +0.000 HD
BRANCH  18  20
ATOM     20  O   UNL     1       3.396   6.335  19.449  0.00  0.00    +0.000 OA
BRANCH  20  21
ATOM     21  C   UNL     1       3.052   4.953  19.552  0.00  0.00    +0.000 C 
BRANCH  21  22
ATOM     22  C   UNL     1       2.059   4.771  20.654  0.00  0.00    +0.000 C 
ATOM     23  C   UNL     1       2.056   3.526  21.507  0.00  0.00    +0.000 C 
ATOM     24  C   UNL     1       0.952   3.754  20.513  0.00  0.00    +0.000 C 
ENDBRANCH  21  22
ENDBRANCH  20  21
ENDBRANCH  18  20
ENDBRANCH   1  17
BRANCH   9  25
ATOM     25  C   UNL     1      -1.515  11.157  23.207  0.00  0.00    +0.000 C 
BRANCH  25  26
ATOM     26  C   UNL     1      -1.638  12.628  22.932  0.00  0.00    +0.000 A 
ATOM     27  C   UNL     1      -0.524  13.401  22.589  0.00  0.00    +0.000 A 
ATOM     28  C   UNL     1      -0.695  14.739  22.238  0.00  0.00    +0.000 A 
ATOM     29  C   UNL     1      -1.975  15.265  22.257  0.00  0.00    +0.000 A 
ATOM     30  N   UNL     1      -3.069  14.562  22.623  0.00  0.00    +0.000 NA
ATOM     31  C   UNL     1      -2.875  13.266  22.960  0.00  0.00    +0.000 A 
ENDBRANCH  25  26
ENDBRANCH   9  25
TORSDOF 7
ENDMDL
MODEL 6
REMARK VINA RESULT:      -7.7      2.344      7.585
REMARK  Name = 
REMARK  7 active torsions:
REMARK  status: ('A' for Active; 'I' for Inactive)
REMARK    1  A    between atoms: C_2  and  C_9
REMARK    2  A    between atoms: N_3  and  O_4
REMARK    3  A    between atoms: O_4  and  C_5
REMARK    4  A    between atoms: C_5  and  C_6
REMARK    5  A    between atoms: C_11  and  C_12
REMARK    6  A    between atoms: N_23  and  C_24
REMARK    7  A    between atoms: C_24  and  C_25
REMARK                            x       y       z     vdW  Elec       q    Type
REMARK                         _______ _______ _______ _____ _____    ______ ____
ROOT
ATOM      1  C   UNL     1       4.204   6.451  17.571  0.00  0.00    +0.000 A 
ATOM      2  C   UNL     1       3.966   5.341  18.388  0.00  0.00    +0.000 A 
ATOM      3  C   UNL     1       2.974   5.386  19.369  0.00  0.00    +0.000 A 
ATOM      4  N   UNL     1       2.205   6.485  19.598  0.00  0.00    +0.000 NA
ATOM      5  C   UNL     1       2.446   7.523  18.767  0.00  0.00    +0.000 A 
ATOM      6  C   UNL     1       3.400   7.583  17.758  0.00  0.00    +0.000 A 
ATOM      7  C   UNL     1       3.231   8.864  17.190  0.00  0.00    +0.000 A 
ATOM      8  N   UNL     1       2.301   9.591  17.811  0.00  0.00    +0.000 NA
ATOM      9  N   UNL     1       1.807   8.742  18.747  0.00  0.00    +0.000 N 
ENDROOT
BRANCH   3  10
ATOM     10  C   UNL     1       2.725   4.223  20.248  0.00  0.00    +0.000 A 
ATOM     11  C   UNL     1       1.477   3.972  20.843  0.00  0.00    +0.000 A 
ATOM     12  C   UNL     1       1.265   2.828  21.612  0.00  0.00    +0.000 A 
ATOM     13  C   UNL     1       2.320   1.953  21.788  0.00  0.00    +0.000 A 
ATOM     14  N   UNL     1       3.547   2.157  21.267  0.00  0.00    +0.000 NA
ATOM     15  C   UNL     1       3.718   3.280  20.521  0.00  0.00    +0.000 A 
ENDBRANCH   3  10
BRANCH   1  17
ATOM     16  O   UNL     1       6.173   7.177  16.562  0.00  0.00    +0.000 OA
ATOM     17  C   UNL     1       5.257   6.362  16.538  0.00  0.00    +0.000 C 
ATOM     18  N   UNL     1       5.090   5.373  15.602  0.00  0.00    +0.000 N 
ATOM     19  H   UNL     1       4.210   4.897  15.445  0.00  0.00    +0.000 HD
BRANCH  18  20
ATOM     20  O   UNL     1       6.073   5.307  14.587  0.00  0.00    +0.000 OA
BRANCH  20  21
ATOM     21  C   UNL     1       6.243   3.949  14.179  0.00  0.00    +0.000 C 
BRANCH  21  22
ATOM     22  C   UNL     1       6.182   3.870  12.687  0.00  0.00    +0.000 C 
ATOM     23  C   UNL     1       4.896   3.536  11.973  0.00  0.00    +0.000 C 
ATOM     24  C   UNL     1       6.014   2.532  12.009  0.00  0.00    +0.000 C 
ENDBRANCH  21  22
ENDBRANCH  20  21
ENDBRANCH  18  20
ENDBRANCH   1  17
BRANCH   9  25
ATOM     25  C   UNL     1       0.825   9.227  19.701  0.00  0.00    +0.000 C 
BRANCH  25  26
ATOM     26  C   UNL     1       0.134  10.482  19.250  0.00  0.00    +0.000 A 
ATOM     27  C   UNL     1       0.603  11.746  19.623  0.00  0.00    +0.000 A 
ATOM     28  C   UNL     1      -0.001  12.887  19.098  0.00  0.00    +0.000 A 
ATOM     29  C   UNL     1      -1.066  12.727  18.229  0.00  0.00    +0.000 A 
ATOM     30  N   UNL     1      -1.572  11.525  17.878  0.00  0.00    +0.000 NA
ATOM     31  C   UNL     1      -0.969  10.433  18.403  0.00  0.00    +0.000 A 
ENDBRANCH  25  26
ENDBRANCH   9  25
TORSDOF 7
ENDMDL
MODEL 7
REMARK VINA RESULT:      -7.7      3.476      8.701
REMARK  Name = 
REMARK  7 active torsions:
REMARK  status: ('A' for Active; 'I' for Inactive)
REMARK    1  A    between atoms: C_2  and  C_9
REMARK    2  A    between atoms: N_3  and  O_4
REMARK    3  A    between atoms: O_4  and  C_5
REMARK    4  A    between atoms: C_5  and  C_6
REMARK    5  A    between atoms: C_11  and  C_12
REMARK    6  A    between atoms: N_23  and  C_24
REMARK    7  A    between atoms: C_24  and  C_25
REMARK                            x       y       z     vdW  Elec       q    Type
REMARK                         _______ _______ _______ _____ _____    ______ ____
ROOT
ATOM      1  C   UNL     1       0.999   9.013  19.441  0.00  0.00    +0.000 A 
ATOM      2  C   UNL     1       0.060   9.383  18.472  0.00  0.00    +0.000 A 
ATOM      3  C   UNL     1      -1.061  10.135  18.827  0.00  0.00    +0.000 A 
ATOM      4  N   UNL     1      -1.314  10.533  20.104  0.00  0.00    +0.000 NA
ATOM      5  C   UNL     1      -0.368  10.182  21.001  0.00  0.00    +0.000 A 
ATOM      6  C   UNL     1       0.785   9.444  20.756  0.00  0.00    +0.000 A 
ATOM      7  C   UNL     1       1.428   9.371  22.010  0.00  0.00    +0.000 A 
ATOM      8  N   UNL     1       0.730   9.949  22.989  0.00  0.00    +0.000 NA
ATOM      9  N   UNL     1      -0.345  10.471  22.346  0.00  0.00    +0.000 N 
ENDROOT
BRANCH   3  10
ATOM     10  C   UNL     1      -2.068  10.517  17.814  0.00  0.00    +0.000 A 
ATOM     11  C   UNL     1      -2.061  10.007  16.504  0.00  0.00    +0.000 A 
ATOM     12  C   UNL     1      -3.068  10.340  15.598  0.00  0.00    +0.000 A 
ATOM     13  C   UNL     1      -4.067  11.198  16.017  0.00  0.00    +0.000 A 
ATOM     14  N   UNL     1      -4.109  11.741  17.250  0.00  0.00    +0.000 NA
ATOM     15  C   UNL     1      -3.114  11.394  18.108  0.00  0.00    +0.000 A 
ENDBRANCH   3  10
BRANCH   1  17
ATOM     16  O   UNL     1       2.791   8.573  18.021  0.00  0.00    +0.000 OA
ATOM     17  C   UNL     1       2.178   8.225  19.025  0.00  0.00    +0.000 C 
ATOM     18  N   UNL     1       2.463   7.128  19.797  0.00  0.00    +0.000 N 
ATOM     19  H   UNL     1       1.802   6.714  20.443  0.00  0.00    +0.000 HD
BRANCH  18  20
ATOM     20  O   UNL     1       3.566   6.346  19.381  0.00  0.00    +0.000 OA
BRANCH  20  21
ATOM     21  C   UNL     1       3.163   4.981  19.266  0.00  0.00    +0.000 C 
BRANCH  21  22
ATOM     22  C   UNL     1       2.653   4.730  17.883  0.00  0.00    +0.000 C 
ATOM     23  C   UNL     1       1.336   4.034  17.649  0.00  0.00    +0.000 C 
ATOM     24  C   UNL     1       2.623   3.325  17.333  0.00  0.00    +0.000 C 
ENDBRANCH  21  22
ENDBRANCH  20  21
ENDBRANCH  18  20
ENDBRANCH   1  17
BRANCH   9  25
ATOM     25  C   UNL     1      -1.399  11.103  23.121  0.00  0.00    +0.000 C 
BRANCH  25  26
ATOM     26  C   UNL     1      -1.420  12.598  22.981  0.00  0.00    +0.000 A 
ATOM     27  C   UNL     1      -0.373  13.287  22.362  0.00  0.00    +0.000 A 
ATOM     28  C   UNL     1      -0.478  14.661  22.157  0.00  0.00    +0.000 A 
ATOM     29  C   UNL     1      -1.623  15.306  22.592  0.00  0.00    +0.000 A 
ATOM     30  N   UNL     1      -2.637  14.681  23.229  0.00  0.00    +0.000 NA
ATOM     31  C   UNL     1      -2.509  13.347  23.417  0.00  0.00    +0.000 A 
ENDBRANCH  25  26
ENDBRANCH   9  25
TORSDOF 7
ENDMDL
MODEL 8
REMARK VINA RESULT:      -7.7      3.169      6.588
REMARK  Name = 
REMARK  7 active torsions:
REMARK  status: ('A' for Active; 'I' for Inactive)
REMARK    1  A    between atoms: C_2  and  C_9
REMARK    2  A    between atoms: N_3  and  O_4
REMARK    3  A    between atoms: O_4  and  C_5
REMARK    4  A    between atoms: C_5  and  C_6
REMARK    5  A    between atoms: C_11  and  C_12
REMARK    6  A    between atoms: N_23  and  C_24
REMARK    7  A    between atoms: C_24  and  C_25
REMARK                            x       y       z     vdW  Elec       q    Type
REMARK                         _______ _______ _______ _____ _____    ______ ____
ROOT
ATOM      1  C   UNL     1       5.736   6.873  17.420  0.00  0.00    +0.000 A 
ATOM      2  C   UNL     1       4.705   7.708  17.860  0.00  0.00    +0.000 A 
ATOM      3  C   UNL     1       3.452   7.176  18.175  0.00  0.00    +0.000 A 
ATOM      4  N   UNL     1       3.158   5.853  18.062  0.00  0.00    +0.000 NA
ATOM      5  C   UNL     1       4.191   5.078  17.663  0.00  0.00    +0.000 A 
ATOM      6  C   UNL     1       5.474   5.500  17.333  0.00  0.00    +0.000 A 
ATOM      7  C   UNL     1       6.160   4.312  17.002  0.00  0.00    +0.000 A 
ATOM      8  N   UNL     1       5.381   3.229  17.050  0.00  0.00    +0.000 NA
ATOM      9  N   UNL     1       4.193   3.713  17.492  0.00  0.00    +0.000 N 
ENDROOT
BRANCH   3  10
ATOM     10  C   UNL     1       2.349   8.052  18.625  0.00  0.00    +0.000 A 
ATOM     11  C   UNL     1       1.859   8.042  19.943  0.00  0.00    +0.000 A 
ATOM     12  C   UNL     1       0.863   8.932  20.345  0.00  0.00    +0.000 A 
ATOM     13  C   UNL     1       0.358   9.815  19.411  0.00  0.00    +0.000 A 
ATOM     14  N   UNL     1       0.769   9.851  18.127  0.00  0.00    +0.000 NA
ATOM     15  C   UNL     1       1.742   8.972  17.768  0.00  0.00    +0.000 A 
ENDBRANCH   3  10
BRANCH   1  17
ATOM     16  O   UNL     1       7.814   6.858  16.368  0.00  0.00    +0.000 OA
ATOM     17  C   UNL     1       7.051   7.472  17.106  0.00  0.00    +0.000 C 
ATOM     18  N   UNL     1       7.317   8.673  17.713  0.00  0.00    +0.000 N 
ATOM     19  H   UNL     1       6.800   9.021  18.510  0.00  0.00    +0.000 HD
BRANCH  18  20
ATOM     20  O   UNL     1       8.590   9.232  17.449  0.00  0.00    +0.000 OA
BRANCH  20  21
ATOM     21  C   UNL     1       8.995  10.034  18.559  0.00  0.00    +0.000 C 
BRANCH  21  22
ATOM     22  C   UNL     1       9.524  11.340  18.059  0.00  0.00    +0.000 C 
ATOM     23  C   UNL     1      11.002  11.640  18.064  0.00  0.00    +0.000 C 
ATOM     24  C   UNL     1      10.092  12.345  19.031  0.00  0.00    +0.000 C 
ENDBRANCH  21  22
ENDBRANCH  20  21
ENDBRANCH  18  20
ENDBRANCH   1  17
BRANCH   9  25
ATOM     25  C   UNL     1       3.048   2.822  17.573  0.00  0.00    +0.000 C 
BRANCH  25  26
ATOM     26  C   UNL     1       2.394   2.823  18.925  0.00  0.00    +0.000 A 
ATOM     27  C   UNL     1       1.015   3.000  19.068  0.00  0.00    +0.000 A 
ATOM     28  C   UNL     1       0.433   2.888  20.329  0.00  0.00    +0.000 A 
ATOM     29  C   UNL     1       1.253   2.619  21.411  0.00  0.00    +0.000 A 
ATOM     30  N   UNL     1       2.593   2.482  21.319  0.00  0.00    +0.000 NA
ATOM     31  C   UNL     1       3.134   2.597  20.083  0.00  0.00    +0.000 A 
ENDBRANCH  25  26
ENDBRANCH   9  25
TORSDOF 7
ENDMDL
MODEL 9
REMARK VINA RESULT:      -7.7      1.726      5.385
REMARK  Name = 
REMARK  7 active torsions:
REMARK  status: ('A' for Active; 'I' for Inactive)
REMARK    1  A    between atoms: C_2  and  C_9
REMARK    2  A    between atoms: N_3  and  O_4
REMARK    3  A    between atoms: O_4  and  C_5
REMARK    4  A    between atoms: C_5  and  C_6
REMARK    5  A    between atoms: C_11  and  C_12
REMARK    6  A    between atoms: N_23  and  C_24
REMARK    7  A    between atoms: C_24  and  C_25
REMARK                            x       y       z     vdW  Elec       q    Type
REMARK                         _______ _______ _______ _____ _____    ______ ____
ROOT
ATOM      1  C   UNL     1       2.886   7.232  18.135  0.00  0.00    +0.000 A 
ATOM      2  C   UNL     1       2.513   6.291  19.100  0.00  0.00    +0.000 A 
ATOM      3  C   UNL     1       3.115   5.031  19.127  0.00  0.00    +0.000 A 
ATOM      4  N   UNL     1       4.064   4.643  18.233  0.00  0.00    +0.000 NA
ATOM      5  C   UNL     1       4.416   5.591  17.338  0.00  0.00    +0.000 A 
ATOM      6  C   UNL     1       3.890   6.873  17.227  0.00  0.00    +0.000 A 
ATOM      7  C   UNL     1       4.603   7.454  16.155  0.00  0.00    +0.000 A 
ATOM      8  N   UNL     1       5.464   6.610  15.584  0.00  0.00    +0.000 NA
ATOM      9  N   UNL     1       5.363   5.490  16.344  0.00  0.00    +0.000 N 
ENDROOT
BRANCH   3  10
ATOM     10  C   UNL     1       2.716   4.024  20.134  0.00  0.00    +0.000 A 
ATOM     11  C   UNL     1       1.397   3.895  20.601  0.00  0.00    +0.000 A 
ATOM     12  C   UNL     1       1.048   2.888  21.500  0.00  0.00    +0.000 A 
ATOM     13  C   UNL     1       2.037   2.026  21.933  0.00  0.00    +0.000 A 
ATOM     14  N   UNL     1       3.325   2.119  21.542  0.00  0.00    +0.000 NA
ATOM     15  C   UNL     1       3.630   3.111  20.664  0.00  0.00    +0.000 A 
ENDBRANCH   3  10
BRANCH   1  17
ATOM     16  O   UNL     1       2.286   9.245  17.130  0.00  0.00    +0.000 OA
ATOM     17  C   UNL     1       2.233   8.557  18.144  0.00  0.00    +0.000 C 
ATOM     18  N   UNL     1       1.643   8.922  19.328  0.00  0.00    +0.000 N 
ATOM     19  H   UNL     1       1.840   8.468  20.212  0.00  0.00    +0.000 HD
BRANCH  18  20
ATOM     20  O   UNL     1       1.051  10.206  19.357  0.00  0.00    +0.000 OA
BRANCH  20  21
ATOM     21  C   UNL     1      -0.165  10.151  20.103  0.00  0.00    +0.000 C 
BRANCH  21  22
ATOM     22  C   UNL     1      -1.322  10.074  19.160  0.00  0.00    +0.000 C 
ATOM     23  C   UNL     1      -1.155  10.370  17.690  0.00  0.00    +0.000 C 
ATOM     24  C   UNL     1      -1.899  11.337  18.568  0.00  0.00    +0.000 C 
ENDBRANCH  21  22
ENDBRANCH  20  21
ENDBRANCH  18  20
ENDBRANCH   1  17
BRANCH   9  25
ATOM     25  C   UNL     1       6.095   4.298  15.955  0.00  0.00    +0.000 C 
BRANCH  25  26
ATOM     26  C   UNL     1       6.557   4.328  14.526  0.00  0.00    +0.000 A 
ATOM     27  C   UNL     1       5.957   3.528  13.549  0.00  0.00    +0.000 A 
ATOM     28  C   UNL     1       6.342   3.662  12.217  0.00  0.00    +0.000 A 
ATOM     29  C   UNL     1       7.327   4.583  11.906  0.00  0.00    +0.000 A 
ATOM     30  N   UNL     1       7.958   5.344  12.827  0.00  0.00    +0.000 NA
ATOM     31  C   UNL     1       7.566   5.192  14.114  0.00  0.00    +0.000 A 
ENDBRANCH  25  26
ENDBRANCH   9  25
TORSDOF 7
ENDMDL
