MODEL 1
REMARK VINA RESULT:      -9.9      0.000      0.000
REMARK  Name = 
REMARK  4 active torsions:
REMARK  status: ('A' for Active; 'I' for Inactive)
REMARK    1  A    between atoms: C_1  and  C_2
REMARK    2  A    between atoms: C_6  and  N_7
REMARK    3  A    between atoms: N_10  and  C_11
REMARK    4  A    between atoms: C_11  and  C_12
REMARK                            x       y       z     vdW  Elec       q    Type
REMARK                         _______ _______ _______ _____ _____    ______ ____
ROOT
ATOM      1  N   UNL     1       1.829   7.519  21.228  0.00  0.00    +0.000 N 
ATOM      2  C   UNL     1       2.271   6.864  20.094  0.00  0.00    +0.000 C 
ATOM      3  O   UNL     1       2.061   7.278  18.962  0.00  0.00    +0.000 OA
ATOM      4  N   UNL     1       2.948   5.684  20.329  0.00  0.00    +0.000 N 
ATOM      5  H   UNL     1       2.219   7.261  22.122  0.00  0.00    +0.000 HD
ATOM      6  H   UNL     1       3.407   5.587  21.218  0.00  0.00    +0.000 HD
ENDROOT
BRANCH   1  12
ATOM      7  C   UNL     1      -2.908  13.064  22.984  0.00  0.00    +0.000 C 
ATOM      8  C   UNL     1      -1.946  12.040  22.515  0.00  0.00    +0.000 A 
ATOM      9  C   UNL     1      -1.333  10.996  23.174  0.00  0.00    +0.000 A 
ATOM     10  C   UNL     1      -0.510  10.306  22.239  0.00  0.00    +0.000 A 
ATOM     11  C   UNL     1       0.329   9.177  22.317  0.00  0.00    +0.000 A 
ATOM     12  C   UNL     1       1.013   8.695  21.185  0.00  0.00    +0.000 A 
ATOM     13  C   UNL     1       0.885   9.396  19.983  0.00  0.00    +0.000 A 
ATOM     14  C   UNL     1       0.057  10.533  19.875  0.00  0.00    +0.000 A 
ATOM     15  C   UNL     1      -0.632  10.957  21.018  0.00  0.00    +0.000 A 
ATOM     16  N   UNL     1      -1.503  12.005  21.206  0.00  0.00    +0.000 N 
ATOM     17  H   UNL     1      -1.783  12.655  20.490  0.00  0.00    +0.000 HD
ENDBRANCH   1  12
BRANCH   4  18
ATOM     18  C   UNL     1       3.458   4.786  19.212  0.00  0.00    +0.000 C 
ATOM     19  C   UNL     1       2.378   4.629  18.089  0.00  0.00    +0.000 C 
ATOM     20  C   UNL     1       2.644   3.486  17.129  0.00  0.00    +0.000 C 
ATOM     21  O   UNL     1       2.711   2.259  17.843  0.00  0.00    +0.000 OA
ATOM     22  C   UNL     1       3.800   2.259  18.757  0.00  0.00    +0.000 C 
ATOM     23  C   UNL     1       3.633   3.358  19.816  0.00  0.00    +0.000 C 
BRANCH  18  24
ATOM     24  C   UNL     1       4.757   5.395  18.615  0.00  0.00    +0.000 A 
ATOM     25  C   UNL     1       6.001   5.132  19.230  0.00  0.00    +0.000 A 
ATOM     26  C   UNL     1       7.179   5.771  18.829  0.00  0.00    +0.000 A 
ATOM     27  C   UNL     1       7.137   6.703  17.808  0.00  0.00    +0.000 A 
ATOM     28  F   UNL     1       8.251   7.358  17.457  0.00  0.00    +0.000 F 
ATOM     29  C   UNL     1       5.954   6.958  17.142  0.00  0.00    +0.000 A 
ATOM     30  C   UNL     1       4.795   6.280  17.519  0.00  0.00    +0.000 A 
ATOM     31  F   UNL     1       3.710   6.520  16.773  0.00  0.00    +0.000 F 
ENDBRANCH  18  24
ENDBRANCH   4  18
TORSDOF 3
ENDMDL
MODEL 2
REMARK VINA RESULT:      -9.6      1.598      1.945
REMARK  Name = 
REMARK  4 active torsions:
REMARK  status: ('A' for Active; 'I' for Inactive)
REMARK    1  A    between atoms: C_1  and  C_2
REMARK    2  A    between atoms: C_6  and  N_7
REMARK    3  A    between atoms: N_10  and  C_11
REMARK    4  A    between atoms: C_11  and  C_12
REMARK                            x       y       z     vdW  Elec       q    Type
REMARK                         _______ _______ _______ _____ _____    ______ ____
ROOT
ATOM      1  N   UNL     1       2.333   7.512  20.308  0.00  0.00    +0.000 N 
ATOM      2  C   UNL     1       2.590   6.524  19.376  0.00  0.00    +0.000 C 
ATOM      3  O   UNL     1       2.198   6.582  18.218  0.00  0.00    +0.000 OA
ATOM      4  N   UNL     1       3.303   5.442  19.854  0.00  0.00    +0.000 N 
ATOM      5  H   UNL     1       2.863   7.521  21.165  0.00  0.00    +0.000 HD
ATOM      6  H   UNL     1       3.900   5.600  20.647  0.00  0.00    +0.000 HD
ENDROOT
BRANCH   1  12
ATOM      7  C   UNL     1      -2.555  13.173  20.881  0.00  0.00    +0.000 C 
ATOM      8  C   UNL     1      -1.555  12.106  20.638  0.00  0.00    +0.000 A 
ATOM      9  C   UNL     1      -0.983  11.184  21.487  0.00  0.00    +0.000 A 
ATOM     10  C   UNL     1      -0.092  10.377  20.725  0.00  0.00    +0.000 A 
ATOM     11  C   UNL     1       0.748   9.287  21.030  0.00  0.00    +0.000 A 
ATOM     12  C   UNL     1       1.513   8.654  20.032  0.00  0.00    +0.000 A 
ATOM     13  C   UNL     1       1.465   9.164  18.732  0.00  0.00    +0.000 A 
ATOM     14  C   UNL     1       0.639  10.257  18.398  0.00  0.00    +0.000 A 
ATOM     15  C   UNL     1      -0.132  10.836  19.415  0.00  0.00    +0.000 A 
ATOM     16  N   UNL     1      -1.021  11.885  19.383  0.00  0.00    +0.000 N 
ATOM     17  H   UNL     1      -1.256  12.414  18.560  0.00  0.00    +0.000 HD
ENDBRANCH   1  12
BRANCH   4  18
ATOM     18  C   UNL     1       3.632   4.226  19.002  0.00  0.00    +0.000 C 
ATOM     19  C   UNL     1       2.352   3.701  18.267  0.00  0.00    +0.000 C 
ATOM     20  C   UNL     1       2.496   2.304  17.694  0.00  0.00    +0.000 C 
ATOM     21  O   UNL     1       2.810   1.385  18.731  0.00  0.00    +0.000 OA
ATOM     22  C   UNL     1       4.065   1.692  19.324  0.00  0.00    +0.000 C 
ATOM     23  C   UNL     1       4.042   3.080  19.978  0.00  0.00    +0.000 C 
BRANCH  18  24
ATOM     24  C   UNL     1       4.721   4.605  17.961  0.00  0.00    +0.000 A 
ATOM     25  C   UNL     1       4.426   4.536  16.582  0.00  0.00    +0.000 A 
ATOM     26  C   UNL     1       5.407   4.719  15.601  0.00  0.00    +0.000 A 
ATOM     27  C   UNL     1       6.715   4.963  15.980  0.00  0.00    +0.000 A 
ATOM     28  F   UNL     1       7.667   5.085  15.047  0.00  0.00    +0.000 F 
ATOM     29  C   UNL     1       7.044   5.089  17.315  0.00  0.00    +0.000 A 
ATOM     30  C   UNL     1       6.048   4.952  18.283  0.00  0.00    +0.000 A 
ATOM     31  F   UNL     1       6.430   5.171  19.547  0.00  0.00    +0.000 F 
ENDBRANCH  18  24
ENDBRANCH   4  18
TORSDOF 3
ENDMDL
MODEL 3
REMARK VINA RESULT:      -9.5      2.153      2.924
REMARK  Name = 
REMARK  4 active torsions:
REMARK  status: ('A' for Active; 'I' for Inactive)
REMARK    1  A    between atoms: C_1  and  C_2
REMARK    2  A    between atoms: C_6  and  N_7
REMARK    3  A    between atoms: N_10  and  C_11
REMARK    4  A    between atoms: C_11  and  C_12
REMARK                            x       y       z     vdW  Elec       q    Type
REMARK                         _______ _______ _______ _____ _____    ______ ____
ROOT
ATOM      1  N   UNL     1       1.485   8.192  17.837  0.00  0.00    +0.000 N 
ATOM      2  C   UNL     1       2.247   7.209  18.440  0.00  0.00    +0.000 C 
ATOM      3  O   UNL     1       2.803   7.365  19.518  0.00  0.00    +0.000 OA
ATOM      4  N   UNL     1       2.362   6.036  17.719  0.00  0.00    +0.000 N 
ATOM      5  H   UNL     1       0.875   7.936  17.076  0.00  0.00    +0.000 HD
ATOM      6  H   UNL     1       1.623   5.821  17.071  0.00  0.00    +0.000 HD
ENDROOT
BRANCH   1  12
ATOM      7  C   UNL     1       2.370  15.489  19.330  0.00  0.00    +0.000 C 
ATOM      8  C   UNL     1       2.078  14.052  19.118  0.00  0.00    +0.000 A 
ATOM      9  C   UNL     1       2.580  13.145  18.212  0.00  0.00    +0.000 A 
ATOM     10  C   UNL     1       1.965  11.886  18.460  0.00  0.00    +0.000 A 
ATOM     11  C   UNL     1       2.081  10.605  17.882  0.00  0.00    +0.000 A 
ATOM     12  C   UNL     1       1.344   9.512  18.374  0.00  0.00    +0.000 A 
ATOM     13  C   UNL     1       0.446   9.733  19.421  0.00  0.00    +0.000 A 
ATOM     14  C   UNL     1       0.303  11.004  20.017  0.00  0.00    +0.000 A 
ATOM     15  C   UNL     1       1.082  12.056  19.518  0.00  0.00    +0.000 A 
ATOM     16  N   UNL     1       1.162  13.375  19.901  0.00  0.00    +0.000 N 
ATOM     17  H   UNL     1       0.633  13.789  20.650  0.00  0.00    +0.000 HD
ENDBRANCH   1  12
BRANCH   4  18
ATOM     18  C   UNL     1       3.207   4.860  18.182  0.00  0.00    +0.000 C 
ATOM     19  C   UNL     1       2.994   3.621  17.248  0.00  0.00    +0.000 C 
ATOM     20  C   UNL     1       3.500   2.314  17.825  0.00  0.00    +0.000 C 
ATOM     21  O   UNL     1       2.849   2.045  19.060  0.00  0.00    +0.000 OA
ATOM     22  C   UNL     1       3.156   3.041  20.027  0.00  0.00    +0.000 C 
ATOM     23  C   UNL     1       2.657   4.421  19.575  0.00  0.00    +0.000 C 
BRANCH  18  24
ATOM     24  C   UNL     1       4.705   5.270  18.182  0.00  0.00    +0.000 A 
ATOM     25  C   UNL     1       5.499   5.025  19.325  0.00  0.00    +0.000 A 
ATOM     26  C   UNL     1       6.807   5.506  19.439  0.00  0.00    +0.000 A 
ATOM     27  C   UNL     1       7.350   6.259  18.413  0.00  0.00    +0.000 A 
ATOM     28  F   UNL     1       8.583   6.768  18.540  0.00  0.00    +0.000 F 
ATOM     29  C   UNL     1       6.632   6.484  17.255  0.00  0.00    +0.000 A 
ATOM     30  C   UNL     1       5.346   5.959  17.133  0.00  0.00    +0.000 A 
ATOM     31  F   UNL     1       4.748   6.149  15.951  0.00  0.00    +0.000 F 
ENDBRANCH  18  24
ENDBRANCH   4  18
TORSDOF 3
ENDMDL
MODEL 4
REMARK VINA RESULT:      -9.5      1.736      2.428
REMARK  Name = 
REMARK  4 active torsions:
REMARK  status: ('A' for Active; 'I' for Inactive)
REMARK    1  A    between atoms: C_1  and  C_2
REMARK    2  A    between atoms: C_6  and  N_7
REMARK    3  A    between atoms: N_10  and  C_11
REMARK    4  A    between atoms: C_11  and  C_12
REMARK                            x       y       z     vdW  Elec       q    Type
REMARK                         _______ _______ _______ _____ _____    ______ ____
ROOT
ATOM      1  N   UNL     1       2.216   7.344  20.706  0.00  0.00    +0.000 N 
ATOM      2  C   UNL     1       2.491   6.461  19.679  0.00  0.00    +0.000 C 
ATOM      3  O   UNL     1       2.121   6.643  18.527  0.00  0.00    +0.000 OA
ATOM      4  N   UNL     1       3.195   5.333  20.051  0.00  0.00    +0.000 N 
ATOM      5  H   UNL     1       2.730   7.261  21.569  0.00  0.00    +0.000 HD
ATOM      6  H   UNL     1       3.777   5.405  20.868  0.00  0.00    +0.000 HD
ENDROOT
BRANCH   1  12
ATOM      7  C   UNL     1      -0.470  13.997  18.518  0.00  0.00    +0.000 C 
ATOM      8  C   UNL     1      -0.065  12.663  19.019  0.00  0.00    +0.000 A 
ATOM      9  C   UNL     1       0.984  11.840  18.670  0.00  0.00    +0.000 A 
ATOM     10  C   UNL     1       0.917  10.673  19.483  0.00  0.00    +0.000 A 
ATOM     11  C   UNL     1       1.705   9.509  19.594  0.00  0.00    +0.000 A 
ATOM     12  C   UNL     1       1.401   8.510  20.538  0.00  0.00    +0.000 A 
ATOM     13  C   UNL     1       0.264   8.670  21.334  0.00  0.00    +0.000 A 
ATOM     14  C   UNL     1      -0.547   9.820  21.242  0.00  0.00    +0.000 A 
ATOM     15  C   UNL     1      -0.188  10.806  20.313  0.00  0.00    +0.000 A 
ATOM     16  N   UNL     1      -0.771  12.016  20.015  0.00  0.00    +0.000 N 
ATOM     17  H   UNL     1      -1.595  12.382  20.463  0.00  0.00    +0.000 HD
ENDBRANCH   1  12
BRANCH   4  18
ATOM     18  C   UNL     1       3.540   4.214  19.081  0.00  0.00    +0.000 C 
ATOM     19  C   UNL     1       2.269   3.753  18.291  0.00  0.00    +0.000 C 
ATOM     20  C   UNL     1       2.430   2.424  17.579  0.00  0.00    +0.000 C 
ATOM     21  O   UNL     1       2.752   1.407  18.518  0.00  0.00    +0.000 OA
ATOM     22  C   UNL     1       4.002   1.666  19.143  0.00  0.00    +0.000 C 
ATOM     23  C   UNL     1       3.961   2.979  19.937  0.00  0.00    +0.000 C 
BRANCH  18  24
ATOM     24  C   UNL     1       4.628   4.710  18.089  0.00  0.00    +0.000 A 
ATOM     25  C   UNL     1       4.351   4.741  16.704  0.00  0.00    +0.000 A 
ATOM     26  C   UNL     1       5.336   5.033  15.755  0.00  0.00    +0.000 A 
ATOM     27  C   UNL     1       6.631   5.289  16.170  0.00  0.00    +0.000 A 
ATOM     28  F   UNL     1       7.589   5.516  15.263  0.00  0.00    +0.000 F 
ATOM     29  C   UNL     1       6.940   5.320  17.516  0.00  0.00    +0.000 A 
ATOM     30  C   UNL     1       5.939   5.074  18.455  0.00  0.00    +0.000 A 
ATOM     31  F   UNL     1       6.298   5.204  19.738  0.00  0.00    +0.000 F 
ENDBRANCH  18  24
ENDBRANCH   4  18
TORSDOF 3
ENDMDL
MODEL 5
REMARK VINA RESULT:      -9.5      2.821      4.034
REMARK  Name = 
REMARK  4 active torsions:
REMARK  status: ('A' for Active; 'I' for Inactive)
REMARK    1  A    between atoms: C_1  and  C_2
REMARK    2  A    between atoms: C_6  and  N_7
REMARK    3  A    between atoms: N_10  and  C_11
REMARK    4  A    between atoms: C_11  and  C_12
REMARK                            x       y       z     vdW  Elec       q    Type
REMARK                         _______ _______ _______ _____ _____    ______ ____
ROOT
ATOM      1  N   UNL     1       1.643   8.819  17.601  0.00  0.00    +0.000 N 
ATOM      2  C   UNL     1       2.276   7.809  18.301  0.00  0.00    +0.000 C 
ATOM      3  O   UNL     1       2.414   7.826  19.516  0.00  0.00    +0.000 OA
ATOM      4  N   UNL     1       2.774   6.782  17.522  0.00  0.00    +0.000 N 
ATOM      5  H   UNL     1       1.362   8.648  16.648  0.00  0.00    +0.000 HD
ATOM      6  H   UNL     1       2.329   6.624  16.634  0.00  0.00    +0.000 HD
ENDROOT
BRANCH   1  12
ATOM      7  C   UNL     1      -2.696  14.028  20.812  0.00  0.00    +0.000 C 
ATOM      8  C   UNL     1      -1.727  13.085  20.206  0.00  0.00    +0.000 A 
ATOM      9  C   UNL     1      -1.856  11.768  19.822  0.00  0.00    +0.000 A 
ATOM     10  C   UNL     1      -0.612  11.343  19.276  0.00  0.00    +0.000 A 
ATOM     11  C   UNL     1      -0.146  10.135  18.718  0.00  0.00    +0.000 A 
ATOM     12  C   UNL     1       1.165  10.019  18.220  0.00  0.00    +0.000 A 
ATOM     13  C   UNL     1       2.021  11.117  18.338  0.00  0.00    +0.000 A 
ATOM     14  C   UNL     1       1.587  12.337  18.896  0.00  0.00    +0.000 A 
ATOM     15  C   UNL     1       0.263  12.419  19.349  0.00  0.00    +0.000 A 
ATOM     16  N   UNL     1      -0.429  13.463  19.917  0.00  0.00    +0.000 N 
ATOM     17  H   UNL     1      -0.047  14.378  20.093  0.00  0.00    +0.000 HD
ENDBRANCH   1  12
BRANCH   4  18
ATOM     18  C   UNL     1       3.555   5.612  18.097  0.00  0.00    +0.000 C 
ATOM     19  C   UNL     1       4.861   6.110  18.804  0.00  0.00    +0.000 C 
ATOM     20  C   UNL     1       5.871   5.015  19.084  0.00  0.00    +0.000 C 
ATOM     21  O   UNL     1       6.249   4.382  17.869  0.00  0.00    +0.000 OA
ATOM     22  C   UNL     1       5.137   3.738  17.261  0.00  0.00    +0.000 C 
ATOM     23  C   UNL     1       4.046   4.752  16.891  0.00  0.00    +0.000 C 
BRANCH  18  24
ATOM     24  C   UNL     1       2.664   4.846  19.113  0.00  0.00    +0.000 A 
ATOM     25  C   UNL     1       3.016   4.830  20.481  0.00  0.00    +0.000 A 
ATOM     26  C   UNL     1       2.339   4.037  21.413  0.00  0.00    +0.000 A 
ATOM     27  C   UNL     1       1.299   3.227  20.994  0.00  0.00    +0.000 A 
ATOM     28  F   UNL     1       0.683   2.425  21.873  0.00  0.00    +0.000 F 
ATOM     29  C   UNL     1       0.885   3.245  19.677  0.00  0.00    +0.000 A 
ATOM     30  C   UNL     1       1.537   4.076  18.765  0.00  0.00    +0.000 A 
ATOM     31  F   UNL     1       1.024   4.099  17.529  0.00  0.00    +0.000 F 
ENDBRANCH  18  24
ENDBRANCH   4  18
TORSDOF 3
ENDMDL
MODEL 6
REMARK VINA RESULT:      -9.5      1.466      1.740
REMARK  Name = 
REMARK  4 active torsions:
REMARK  status: ('A' for Active; 'I' for Inactive)
REMARK    1  A    between atoms: C_1  and  C_2
REMARK    2  A    between atoms: C_6  and  N_7
REMARK    3  A    between atoms: N_10  and  C_11
REMARK    4  A    between atoms: C_11  and  C_12
REMARK                            x       y       z     vdW  Elec       q    Type
REMARK                         _______ _______ _______ _____ _____    ______ ____
ROOT
ATOM      1  N   UNL     1       1.486   8.226  18.123  0.00  0.00    +0.000 N 
ATOM      2  C   UNL     1       2.266   7.213  18.648  0.00  0.00    +0.000 C 
ATOM      3  O   UNL     1       2.786   7.279  19.754  0.00  0.00    +0.000 OA
ATOM      4  N   UNL     1       2.443   6.123  17.819  0.00  0.00    +0.000 N 
ATOM      5  H   UNL     1       0.907   8.028  17.322  0.00  0.00    +0.000 HD
ATOM      6  H   UNL     1       1.731   5.950  17.130  0.00  0.00    +0.000 HD
ENDROOT
BRANCH   1  12
ATOM      7  C   UNL     1      -0.865  13.610  22.787  0.00  0.00    +0.000 C 
ATOM      8  C   UNL     1      -0.310  12.644  21.811  0.00  0.00    +0.000 A 
ATOM      9  C   UNL     1      -0.427  11.274  21.718  0.00  0.00    +0.000 A 
ATOM     10  C   UNL     1       0.298  10.846  20.570  0.00  0.00    +0.000 A 
ATOM     11  C   UNL     1       0.527   9.593  19.966  0.00  0.00    +0.000 A 
ATOM     12  C   UNL     1       1.283   9.481  18.784  0.00  0.00    +0.000 A 
ATOM     13  C   UNL     1       1.853  10.638  18.245  0.00  0.00    +0.000 A 
ATOM     14  C   UNL     1       1.646  11.904  18.830  0.00  0.00    +0.000 A 
ATOM     15  C   UNL     1       0.858  11.975  19.987  0.00  0.00    +0.000 A 
ATOM     16  N   UNL     1       0.481  13.053  20.754  0.00  0.00    +0.000 N 
ATOM     17  H   UNL     1       0.740  14.008  20.569  0.00  0.00    +0.000 HD
ENDBRANCH   1  12
BRANCH   4  18
ATOM     18  C   UNL     1       3.316   4.935  18.189  0.00  0.00    +0.000 C 
ATOM     19  C   UNL     1       3.113   3.759  17.174  0.00  0.00    +0.000 C 
ATOM     20  C   UNL     1       3.652   2.426  17.654  0.00  0.00    +0.000 C 
ATOM     21  O   UNL     1       3.024   2.059  18.875  0.00  0.00    +0.000 OA
ATOM     22  C   UNL     1       3.325   2.993  19.904  0.00  0.00    +0.000 C 
ATOM     23  C   UNL     1       2.795   4.390  19.555  0.00  0.00    +0.000 C 
BRANCH  18  24
ATOM     24  C   UNL     1       4.806   5.374  18.198  0.00  0.00    +0.000 A 
ATOM     25  C   UNL     1       5.612   5.092  19.324  0.00  0.00    +0.000 A 
ATOM     26  C   UNL     1       6.912   5.593  19.451  0.00  0.00    +0.000 A 
ATOM     27  C   UNL     1       7.433   6.402  18.458  0.00  0.00    +0.000 A 
ATOM     28  F   UNL     1       8.657   6.928  18.600  0.00  0.00    +0.000 F 
ATOM     29  C   UNL     1       6.703   6.665  17.316  0.00  0.00    +0.000 A 
ATOM     30  C   UNL     1       5.426   6.121  17.178  0.00  0.00    +0.000 A 
ATOM     31  F   UNL     1       4.817   6.353  16.009  0.00  0.00    +0.000 F 
ENDBRANCH  18  24
ENDBRANCH   4  18
TORSDOF 3
ENDMDL
MODEL 7
REMARK VINA RESULT:      -9.4      1.738      2.239
REMARK  Name = 
REMARK  4 active torsions:
REMARK  status: ('A' for Active; 'I' for Inactive)
REMARK    1  A    between atoms: C_1  and  C_2
REMARK    2  A    between atoms: C_6  and  N_7
REMARK    3  A    between atoms: N_10  and  C_11
REMARK    4  A    between atoms: C_11  and  C_12
REMARK                            x       y       z     vdW  Elec       q    Type
REMARK                         _______ _______ _______ _____ _____    ______ ____
ROOT
ATOM      1  N   UNL     1       1.939   8.420  19.201  0.00  0.00    +0.000 N 
ATOM      2  C   UNL     1       2.288   7.083  19.202  0.00  0.00    +0.000 C 
ATOM      3  O   UNL     1       1.897   6.292  20.049  0.00  0.00    +0.000 OA
ATOM      4  N   UNL     1       3.142   6.703  18.184  0.00  0.00    +0.000 N 
ATOM      5  H   UNL     1       2.099   8.964  18.368  0.00  0.00    +0.000 HD
ATOM      6  H   UNL     1       3.128   7.254  17.343  0.00  0.00    +0.000 HD
ENDROOT
BRANCH   1  12
ATOM      7  C   UNL     1      -2.722  12.874  23.036  0.00  0.00    +0.000 C 
ATOM      8  C   UNL     1      -1.792  11.913  22.398  0.00  0.00    +0.000 A 
ATOM      9  C   UNL     1      -1.436  11.730  21.079  0.00  0.00    +0.000 A 
ATOM     10  C   UNL     1      -0.484  10.673  21.022  0.00  0.00    +0.000 A 
ATOM     11  C   UNL     1       0.236  10.057  19.979  0.00  0.00    +0.000 A 
ATOM     12  C   UNL     1       1.157   9.025  20.238  0.00  0.00    +0.000 A 
ATOM     13  C   UNL     1       1.305   8.580  21.554  0.00  0.00    +0.000 A 
ATOM     14  C   UNL     1       0.594   9.173  22.619  0.00  0.00    +0.000 A 
ATOM     15  C   UNL     1      -0.286  10.221  22.320  0.00  0.00    +0.000 A 
ATOM     16  N   UNL     1      -1.089  10.982  23.138  0.00  0.00    +0.000 N 
ATOM     17  H   UNL     1      -1.152  10.880  24.137  0.00  0.00    +0.000 HD
ENDBRANCH   1  12
BRANCH   4  18
ATOM     18  C   UNL     1       3.691   5.291  18.049  0.00  0.00    +0.000 C 
ATOM     19  C   UNL     1       2.547   4.282  17.692  0.00  0.00    +0.000 C 
ATOM     20  C   UNL     1       2.920   2.826  17.891  0.00  0.00    +0.000 C 
ATOM     21  O   UNL     1       3.292   2.602  19.244  0.00  0.00    +0.000 OA
ATOM     22  C   UNL     1       4.452   3.350  19.586  0.00  0.00    +0.000 C 
ATOM     23  C   UNL     1       4.194   4.858  19.461  0.00  0.00    +0.000 C 
BRANCH  18  24
ATOM     24  C   UNL     1       4.781   5.267  16.942  0.00  0.00    +0.000 A 
ATOM     25  C   UNL     1       4.570   4.509  15.768  0.00  0.00    +0.000 A 
ATOM     26  C   UNL     1       5.573   4.329  14.809  0.00  0.00    +0.000 A 
ATOM     27  C   UNL     1       6.820   4.892  15.011  0.00  0.00    +0.000 A 
ATOM     28  F   UNL     1       7.799   4.678  14.123  0.00  0.00    +0.000 F 
ATOM     29  C   UNL     1       7.060   5.682  16.118  0.00  0.00    +0.000 A 
ATOM     30  C   UNL     1       6.038   5.895  17.043  0.00  0.00    +0.000 A 
ATOM     31  F   UNL     1       6.323   6.738  18.043  0.00  0.00    +0.000 F 
ENDBRANCH  18  24
ENDBRANCH   4  18
TORSDOF 3
ENDMDL
MODEL 8
REMARK VINA RESULT:      -9.4      0.928      1.640
REMARK  Name = 
REMARK  4 active torsions:
REMARK  status: ('A' for Active; 'I' for Inactive)
REMARK    1  A    between atoms: C_1  and  C_2
REMARK    2  A    between atoms: C_6  and  N_7
REMARK    3  A    between atoms: N_10  and  C_11
REMARK    4  A    between atoms: C_11  and  C_12
REMARK                            x       y       z     vdW  Elec       q    Type
REMARK                         _______ _______ _______ _____ _____    ______ ____
ROOT
ATOM      1  N   UNL     1       1.771   7.477  21.243  0.00  0.00    +0.000 N 
ATOM      2  C   UNL     1       2.257   6.845  20.114  0.00  0.00    +0.000 C 
ATOM      3  O   UNL     1       2.186   7.332  18.995  0.00  0.00    +0.000 OA
ATOM      4  N   UNL     1       2.809   5.598  20.337  0.00  0.00    +0.000 N 
ATOM      5  H   UNL     1       2.056   7.141  22.150  0.00  0.00    +0.000 HD
ATOM      6  H   UNL     1       3.176   5.416  21.255  0.00  0.00    +0.000 HD
ENDROOT
BRANCH   1  12
ATOM      7  C   UNL     1      -0.723  14.277  19.289  0.00  0.00    +0.000 C 
ATOM      8  C   UNL     1      -0.333  12.933  19.776  0.00  0.00    +0.000 A 
ATOM      9  C   UNL     1       0.493  11.973  19.234  0.00  0.00    +0.000 A 
ATOM     10  C   UNL     1       0.532  10.867  20.130  0.00  0.00    +0.000 A 
ATOM     11  C   UNL     1       1.199   9.625  20.128  0.00  0.00    +0.000 A 
ATOM     12  C   UNL     1       1.063   8.722  21.199  0.00  0.00    +0.000 A 
ATOM     13  C   UNL     1       0.204   9.059  22.248  0.00  0.00    +0.000 A 
ATOM     14  C   UNL     1      -0.481  10.291  22.276  0.00  0.00    +0.000 A 
ATOM     15  C   UNL     1      -0.289  11.175  21.207  0.00  0.00    +0.000 A 
ATOM     16  N   UNL     1      -0.806  12.428  20.972  0.00  0.00    +0.000 N 
ATOM     17  H   UNL     1      -1.437  12.914  21.588  0.00  0.00    +0.000 HD
ENDBRANCH   1  12
BRANCH   4  18
ATOM     18  C   UNL     1       3.342   4.717  19.217  0.00  0.00    +0.000 C 
ATOM     19  C   UNL     1       2.293   4.596  18.060  0.00  0.00    +0.000 C 
ATOM     20  C   UNL     1       2.573   3.470  17.085  0.00  0.00    +0.000 C 
ATOM     21  O   UNL     1       2.604   2.228  17.775  0.00  0.00    +0.000 OA
ATOM     22  C   UNL     1       3.665   2.195  18.721  0.00  0.00    +0.000 C 
ATOM     23  C   UNL     1       3.480   3.275  19.796  0.00  0.00    +0.000 C 
BRANCH  18  24
ATOM     24  C   UNL     1       4.665   5.322  18.671  0.00  0.00    +0.000 A 
ATOM     25  C   UNL     1       5.883   5.055  19.336  0.00  0.00    +0.000 A 
ATOM     26  C   UNL     1       7.077   5.691  18.981  0.00  0.00    +0.000 A 
ATOM     27  C   UNL     1       7.079   6.621  17.958  0.00  0.00    +0.000 A 
ATOM     28  F   UNL     1       8.208   7.272  17.650  0.00  0.00    +0.000 F 
ATOM     29  C   UNL     1       5.924   6.879  17.245  0.00  0.00    +0.000 A 
ATOM     30  C   UNL     1       4.749   6.204  17.577  0.00  0.00    +0.000 A 
ATOM     31  F   UNL     1       3.696   6.446  16.787  0.00  0.00    +0.000 F 
ENDBRANCH  18  24
ENDBRANCH   4  18
TORSDOF 3
ENDMDL
MODEL 9
REMARK VINA RESULT:      -9.4      2.470      4.030
REMARK  Name = 
REMARK  4 active torsions:
REMARK  status: ('A' for Active; 'I' for Inactive)
REMARK    1  A    between atoms: C_1  and  C_2
REMARK    2  A    between atoms: C_6  and  N_7
REMARK    3  A    between atoms: N_10  and  C_11
REMARK    4  A    between atoms: C_11  and  C_12
REMARK                            x       y       z     vdW  Elec       q    Type
REMARK                         _______ _______ _______ _____ _____    ______ ____
ROOT
ATOM      1  N   UNL     1       2.686   8.255  17.404  0.00  0.00    +0.000 N 
ATOM      2  C   UNL     1       3.442   7.162  17.782  0.00  0.00    +0.000 C 
ATOM      3  O   UNL     1       3.546   6.794  18.945  0.00  0.00    +0.000 OA
ATOM      4  N   UNL     1       4.101   6.523  16.751  0.00  0.00    +0.000 N 
ATOM      5  H   UNL     1       2.455   8.373  16.430  0.00  0.00    +0.000 HD
ATOM      6  H   UNL     1       3.706   6.610  15.830  0.00  0.00    +0.000 HD
ENDROOT
BRANCH   1  12
ATOM      7  C   UNL     1      -1.286  10.874  23.204  0.00  0.00    +0.000 C 
ATOM      8  C   UNL     1      -0.468  10.494  22.028  0.00  0.00    +0.000 A 
ATOM      9  C   UNL     1       0.018   9.273  21.614  0.00  0.00    +0.000 A 
ATOM     10  C   UNL     1       0.733   9.472  20.399  0.00  0.00    +0.000 A 
ATOM     11  C   UNL     1       1.424   8.618  19.516  0.00  0.00    +0.000 A 
ATOM     12  C   UNL     1       2.024   9.112  18.342  0.00  0.00    +0.000 A 
ATOM     13  C   UNL     1       1.967  10.485  18.093  0.00  0.00    +0.000 A 
ATOM     14  C   UNL     1       1.288  11.366  18.961  0.00  0.00    +0.000 A 
ATOM     15  C   UNL     1       0.675  10.827  20.099  0.00  0.00    +0.000 A 
ATOM     16  N   UNL     1      -0.053  11.429  21.099  0.00  0.00    +0.000 N 
ATOM     17  H   UNL     1      -0.261  12.413  21.146  0.00  0.00    +0.000 HD
ENDBRANCH   1  12
BRANCH   4  18
ATOM     18  C   UNL     1       5.031   5.339  16.969  0.00  0.00    +0.000 C 
ATOM     19  C   UNL     1       6.275   5.761  17.823  0.00  0.00    +0.000 C 
ATOM     20  C   UNL     1       7.417   4.765  17.788  0.00  0.00    +0.000 C 
ATOM     21  O   UNL     1       7.853   4.574  16.449  0.00  0.00    +0.000 OA
ATOM     22  C   UNL     1       6.820   4.009  15.651  0.00  0.00    +0.000 C 
ATOM     23  C   UNL     1       5.606   4.945  15.574  0.00  0.00    +0.000 C 
BRANCH  18  24
ATOM     24  C   UNL     1       4.255   4.202  17.691  0.00  0.00    +0.000 A 
ATOM     25  C   UNL     1       3.277   3.466  16.986  0.00  0.00    +0.000 A 
ATOM     26  C   UNL     1       2.446   2.537  17.620  0.00  0.00    +0.000 A 
ATOM     27  C   UNL     1       2.565   2.333  18.983  0.00  0.00    +0.000 A 
ATOM     28  F   UNL     1       1.735   1.484  19.605  0.00  0.00    +0.000 F 
ATOM     29  C   UNL     1       3.539   2.992  19.707  0.00  0.00    +0.000 A 
ATOM     30  C   UNL     1       4.394   3.880  19.055  0.00  0.00    +0.000 A 
ATOM     31  F   UNL     1       5.363   4.415  19.807  0.00  0.00    +0.000 F 
ENDBRANCH  18  24
ENDBRANCH   4  18
TORSDOF 3
ENDMDL
