MODEL 1
REMARK VINA RESULT:      -8.2      0.000      0.000
REMARK  Name = 
REMARK  6 active torsions:
REMARK  status: ('A' for Active; 'I' for Inactive)
REMARK    1  A    between atoms: C_1  and  C_2
REMARK    2  A    between atoms: C_4  and  C_5
REMARK    3  A    between atoms: N_6  and  C_7
REMARK    4  A    between atoms: C_10  and  C_11
REMARK    5  A    between atoms: C_22  and  C_23
REMARK    6  A    between atoms: C_23  and  O_25
REMARK                            x       y       z     vdW  Elec       q    Type
REMARK                         _______ _______ _______ _____ _____    ______ ____
ROOT
ATOM      1  C   UNL     1       0.966  11.405  18.772  0.00  0.00    +0.000 C 
ATOM      2  O   UNL     1       1.886  12.229  18.764  0.00  0.00    +0.000 OA
ATOM      3  N   UNL     1      -0.379  11.836  18.507  0.00  0.00    +0.000 N 
ATOM      4  C   UNL     1      -0.573  13.303  18.561  0.00  0.00    +0.000 C 
ATOM      5  C   UNL     1      -0.915  13.605  20.009  0.00  0.00    +0.000 A 
ATOM      6  C   UNL     1      -0.057  14.339  20.822  0.00  0.00    +0.000 A 
ATOM      7  C   UNL     1      -0.124  14.168  22.202  0.00  0.00    +0.000 A 
ATOM      8  C   UNL     1      -1.047  13.279  22.764  0.00  0.00    +0.000 A 
ATOM      9  C   UNL     1      -1.972  12.616  21.959  0.00  0.00    +0.000 A 
ATOM     10  C   UNL     1      -1.927  12.801  20.580  0.00  0.00    +0.000 A 
ATOM     11  C   UNL     1      -2.682  11.918  19.617  0.00  0.00    +0.000 C 
ATOM     12  C   UNL     1      -1.598  11.065  18.948  0.00  0.00    +0.000 C 
ENDROOT
BRANCH   1  16
ATOM     13  C   UNL     1       2.070   7.255  19.452  0.00  0.00    +0.000 A 
ATOM     14  C   UNL     1       1.566   8.027  20.480  0.00  0.00    +0.000 A 
ATOM     15  C   UNL     1       1.137   9.318  20.249  0.00  0.00    +0.000 A 
ATOM     16  C   UNL     1       1.352   9.973  19.045  0.00  0.00    +0.000 A 
ATOM     17  C   UNL     1       1.981   9.213  18.030  0.00  0.00    +0.000 A 
ATOM     18  C   UNL     1       2.334   7.856  18.222  0.00  0.00    +0.000 A 
BRANCH  13  24
ATOM     19  C   UNL     1       1.368   2.839  21.241  0.00  0.00    +0.000 C 
ATOM     20  C   UNL     1       1.919   3.967  20.467  0.00  0.00    +0.000 A 
ATOM     21  N   UNL     1       2.728   3.750  19.395  0.00  0.00    +0.000 NA
ATOM     22  C   UNL     1       3.005   4.964  18.969  0.00  0.00    +0.000 A 
ATOM     23  C   UNL     1       4.016   5.294  17.932  0.00  0.00    +0.000 C 
ATOM     24  N   UNL     1       2.265   5.882  19.717  0.00  0.00    +0.000 N 
ATOM     25  N   UNL     1       1.676   5.252  20.760  0.00  0.00    +0.000 NA
ENDBRANCH  13  24
ENDBRANCH   1  16
BRANCH  12  26
ATOM     26  C   UNL     1      -2.211  10.261  17.801  0.00  0.00    +0.000 C 
ATOM     27  O   UNL     1      -3.210   9.567  17.907  0.00  0.00    +0.000 OA
BRANCH  26  28
ATOM     28  O   UNL     1      -1.500  10.341  16.648  0.00  0.00    +0.000 OA
ATOM     29  H   UNL     1      -0.978   9.517  16.517  0.00  0.00    +0.000 HD
ENDBRANCH  26  28
ENDBRANCH  12  26
TORSDOF 4
ENDMDL
MODEL 2
REMARK VINA RESULT:      -8.1      0.933      1.858
REMARK  Name = 
REMARK  6 active torsions:
REMARK  status: ('A' for Active; 'I' for Inactive)
REMARK    1  A    between atoms: C_1  and  C_2
REMARK    2  A    between atoms: C_4  and  C_5
REMARK    3  A    between atoms: N_6  and  C_7
REMARK    4  A    between atoms: C_10  and  C_11
REMARK    5  A    between atoms: C_22  and  C_23
REMARK    6  A    between atoms: C_23  and  O_25
REMARK                            x       y       z     vdW  Elec       q    Type
REMARK                         _______ _______ _______ _____ _____    ______ ____
ROOT
ATOM      1  C   UNL     1       0.974  11.768  18.956  0.00  0.00    +0.000 C 
ATOM      2  O   UNL     1       1.836  12.597  19.267  0.00  0.00    +0.000 OA
ATOM      3  N   UNL     1      -0.342  12.212  18.588  0.00  0.00    +0.000 N 
ATOM      4  C   UNL     1      -0.629  13.624  18.928  0.00  0.00    +0.000 C 
ATOM      5  C   UNL     1      -1.193  13.585  20.337  0.00  0.00    +0.000 A 
ATOM      6  C   UNL     1      -0.505  14.142  21.412  0.00  0.00    +0.000 A 
ATOM      7  C   UNL     1      -0.759  13.664  22.696  0.00  0.00    +0.000 A 
ATOM      8  C   UNL     1      -1.698  12.649  22.903  0.00  0.00    +0.000 A 
ATOM      9  C   UNL     1      -2.457  12.158  21.841  0.00  0.00    +0.000 A 
ATOM     10  C   UNL     1      -2.226  12.648  20.559  0.00  0.00    +0.000 A 
ATOM     11  C   UNL     1      -2.781  11.983  19.323  0.00  0.00    +0.000 C 
ATOM     12  C   UNL     1      -1.563  11.331  18.659  0.00  0.00    +0.000 C 
ENDROOT
BRANCH   1  16
ATOM     13  C   UNL     1       2.227   7.607  19.094  0.00  0.00    +0.000 A 
ATOM     14  C   UNL     1       2.263   8.314  17.908  0.00  0.00    +0.000 A 
ATOM     15  C   UNL     1       1.945   9.656  17.876  0.00  0.00    +0.000 A 
ATOM     16  C   UNL     1       1.402  10.322  18.966  0.00  0.00    +0.000 A 
ATOM     17  C   UNL     1       1.254   9.558  20.148  0.00  0.00    +0.000 A 
ATOM     18  C   UNL     1       1.670   8.207  20.222  0.00  0.00    +0.000 A 
BRANCH  13  24
ATOM     19  C   UNL     1       5.418   4.051  18.485  0.00  0.00    +0.000 C 
ATOM     20  C   UNL     1       4.197   4.792  18.855  0.00  0.00    +0.000 A 
ATOM     21  N   UNL     1       3.297   4.265  19.729  0.00  0.00    +0.000 NA
ATOM     22  C   UNL     1       2.371   5.195  19.814  0.00  0.00    +0.000 A 
ATOM     23  C   UNL     1       1.060   5.033  20.493  0.00  0.00    +0.000 C 
ATOM     24  N   UNL     1       2.787   6.311  19.084  0.00  0.00    +0.000 N 
ATOM     25  N   UNL     1       3.889   6.000  18.364  0.00  0.00    +0.000 NA
ENDBRANCH  13  24
ENDBRANCH   1  16
BRANCH  12  26
ATOM     26  C   UNL     1      -1.957  10.787  17.285  0.00  0.00    +0.000 C 
ATOM     27  O   UNL     1      -2.014   9.600  17.006  0.00  0.00    +0.000 OA
BRANCH  26  28
ATOM     28  O   UNL     1      -2.185  11.761  16.367  0.00  0.00    +0.000 OA
ATOM     29  H   UNL     1      -2.773  12.452  16.748  0.00  0.00    +0.000 HD
ENDBRANCH  26  28
ENDBRANCH  12  26
TORSDOF 4
ENDMDL
MODEL 3
REMARK VINA RESULT:      -8.1      0.743      1.199
REMARK  Name = 
REMARK  6 active torsions:
REMARK  status: ('A' for Active; 'I' for Inactive)
REMARK    1  A    between atoms: C_1  and  C_2
REMARK    2  A    between atoms: C_4  and  C_5
REMARK    3  A    between atoms: N_6  and  C_7
REMARK    4  A    between atoms: C_10  and  C_11
REMARK    5  A    between atoms: C_22  and  C_23
REMARK    6  A    between atoms: C_23  and  O_25
REMARK                            x       y       z     vdW  Elec       q    Type
REMARK                         _______ _______ _______ _____ _____    ______ ____
ROOT
ATOM      1  C   UNL     1       1.027  11.685  18.928  0.00  0.00    +0.000 C 
ATOM      2  O   UNL     1       1.932  12.478  19.207  0.00  0.00    +0.000 OA
ATOM      3  N   UNL     1      -0.268  12.183  18.554  0.00  0.00    +0.000 N 
ATOM      4  C   UNL     1      -0.479  13.618  18.851  0.00  0.00    +0.000 C 
ATOM      5  C   UNL     1      -1.033  13.654  20.264  0.00  0.00    +0.000 A 
ATOM      6  C   UNL     1      -0.309  14.208  21.315  0.00  0.00    +0.000 A 
ATOM      7  C   UNL     1      -0.577  13.786  22.616  0.00  0.00    +0.000 A 
ATOM      8  C   UNL     1      -1.565  12.827  22.862  0.00  0.00    +0.000 A 
ATOM      9  C   UNL     1      -2.356  12.342  21.822  0.00  0.00    +0.000 A 
ATOM     10  C   UNL     1      -2.111  12.778  20.523  0.00  0.00    +0.000 A 
ATOM     11  C   UNL     1      -2.709  12.102  19.313  0.00  0.00    +0.000 C 
ATOM     12  C   UNL     1      -1.531  11.368  18.663  0.00  0.00    +0.000 C 
ENDROOT
BRANCH   1  16
ATOM     13  C   UNL     1       2.072   7.472  19.192  0.00  0.00    +0.000 A 
ATOM     14  C   UNL     1       2.094   8.128  17.977  0.00  0.00    +0.000 A 
ATOM     15  C   UNL     1       1.844   9.483  17.902  0.00  0.00    +0.000 A 
ATOM     16  C   UNL     1       1.381  10.220  18.983  0.00  0.00    +0.000 A 
ATOM     17  C   UNL     1       1.244   9.513  20.201  0.00  0.00    +0.000 A 
ATOM     18  C   UNL     1       1.595   8.146  20.315  0.00  0.00    +0.000 A 
BRANCH  13  24
ATOM     19  C   UNL     1       2.258   2.716  19.929  0.00  0.00    +0.000 C 
ATOM     20  C   UNL     1       2.608   4.084  19.503  0.00  0.00    +0.000 A 
ATOM     21  N   UNL     1       3.580   4.300  18.574  0.00  0.00    +0.000 NA
ATOM     22  C   UNL     1       3.601   5.609  18.450  0.00  0.00    +0.000 A 
ATOM     23  C   UNL     1       4.625   6.379  17.699  0.00  0.00    +0.000 C 
ATOM     24  N   UNL     1       2.564   6.150  19.216  0.00  0.00    +0.000 N 
ATOM     25  N   UNL     1       2.019   5.184  19.991  0.00  0.00    +0.000 NA
ENDBRANCH  13  24
ENDBRANCH   1  16
BRANCH  12  26
ATOM     26  C   UNL     1      -1.964  10.801  17.309  0.00  0.00    +0.000 C 
ATOM     27  O   UNL     1      -2.093   9.611  17.073  0.00  0.00    +0.000 OA
BRANCH  26  28
ATOM     28  O   UNL     1      -2.136  11.754  16.358  0.00  0.00    +0.000 OA
ATOM     29  H   UNL     1      -1.340  12.330  16.310  0.00  0.00    +0.000 HD
ENDBRANCH  26  28
ENDBRANCH  12  26
TORSDOF 4
ENDMDL
MODEL 4
REMARK VINA RESULT:      -7.9      3.050      8.621
REMARK  Name = 
REMARK  6 active torsions:
REMARK  status: ('A' for Active; 'I' for Inactive)
REMARK    1  A    between atoms: C_1  and  C_2
REMARK    2  A    between atoms: C_4  and  C_5
REMARK    3  A    between atoms: N_6  and  C_7
REMARK    4  A    between atoms: C_10  and  C_11
REMARK    5  A    between atoms: C_22  and  C_23
REMARK    6  A    between atoms: C_23  and  O_25
REMARK                            x       y       z     vdW  Elec       q    Type
REMARK                         _______ _______ _______ _____ _____    ______ ____
ROOT
ATOM      1  C   UNL     1       4.082   5.911  19.200  0.00  0.00    +0.000 C 
ATOM      2  O   UNL     1       5.172   6.211  19.698  0.00  0.00    +0.000 OA
ATOM      3  N   UNL     1       3.818   4.548  18.828  0.00  0.00    +0.000 N 
ATOM      4  C   UNL     1       5.018   3.681  18.791  0.00  0.00    +0.000 C 
ATOM      5  C   UNL     1       5.557   3.811  17.378  0.00  0.00    +0.000 A 
ATOM      6  C   UNL     1       6.782   4.417  17.119  0.00  0.00    +0.000 A 
ATOM      7  C   UNL     1       7.008   4.973  15.862  0.00  0.00    +0.000 A 
ATOM      8  C   UNL     1       6.023   4.913  14.871  0.00  0.00    +0.000 A 
ATOM      9  C   UNL     1       4.833   4.223  15.096  0.00  0.00    +0.000 A 
ATOM     10  C   UNL     1       4.611   3.643  16.343  0.00  0.00    +0.000 A 
ATOM     11  C   UNL     1       3.256   3.135  16.772  0.00  0.00    +0.000 C 
ATOM     12  C   UNL     1       2.776   4.154  17.812  0.00  0.00    +0.000 C 
ENDROOT
BRANCH   1  16
ATOM     13  C   UNL     1       1.147   9.097  18.819  0.00  0.00    +0.000 A 
ATOM     14  C   UNL     1       2.079   8.876  17.824  0.00  0.00    +0.000 A 
ATOM     15  C   UNL     1       2.958   7.815  17.903  0.00  0.00    +0.000 A 
ATOM     16  C   UNL     1       3.087   7.034  19.043  0.00  0.00    +0.000 A 
ATOM     17  C   UNL     1       2.209   7.344  20.108  0.00  0.00    +0.000 A 
ATOM     18  C   UNL     1       1.234   8.365  20.001  0.00  0.00    +0.000 A 
BRANCH  13  24
ATOM     19  C   UNL     1      -3.030  10.991  17.348  0.00  0.00    +0.000 C 
ATOM     20  C   UNL     1      -1.691  10.844  17.950  0.00  0.00    +0.000 A 
ATOM     21  N   UNL     1      -1.210  11.773  18.822  0.00  0.00    +0.000 NA
ATOM     22  C   UNL     1      -0.023  11.307  19.143  0.00  0.00    +0.000 A 
ATOM     23  C   UNL     1       1.002  12.048  19.920  0.00  0.00    +0.000 C 
ATOM     24  N   UNL     1       0.141  10.051  18.554  0.00  0.00    +0.000 N 
ATOM     25  N   UNL     1      -0.870   9.819  17.685  0.00  0.00    +0.000 NA
ENDBRANCH  13  24
ENDBRANCH   1  16
BRANCH  12  26
ATOM     26  C   UNL     1       1.494   3.647  18.475  0.00  0.00    +0.000 C 
ATOM     27  O   UNL     1       1.036   4.094  19.514  0.00  0.00    +0.000 OA
BRANCH  26  28
ATOM     28  O   UNL     1       0.933   2.595  17.825  0.00  0.00    +0.000 OA
ATOM     29  H   UNL     1      -0.019   2.523  18.061  0.00  0.00    +0.000 HD
ENDBRANCH  26  28
ENDBRANCH  12  26
TORSDOF 4
ENDMDL
MODEL 5
REMARK VINA RESULT:      -7.9      0.933      1.050
REMARK  Name = 
REMARK  6 active torsions:
REMARK  status: ('A' for Active; 'I' for Inactive)
REMARK    1  A    between atoms: C_1  and  C_2
REMARK    2  A    between atoms: C_4  and  C_5
REMARK    3  A    between atoms: N_6  and  C_7
REMARK    4  A    between atoms: C_10  and  C_11
REMARK    5  A    between atoms: C_22  and  C_23
REMARK    6  A    between atoms: C_23  and  O_25
REMARK                            x       y       z     vdW  Elec       q    Type
REMARK                         _______ _______ _______ _____ _____    ______ ____
ROOT
ATOM      1  C   UNL     1       0.639  12.046  19.745  0.00  0.00    +0.000 C 
ATOM      2  O   UNL     1       1.477  12.866  20.134  0.00  0.00    +0.000 OA
ATOM      3  N   UNL     1      -0.643  12.501  19.280  0.00  0.00    +0.000 N 
ATOM      4  C   UNL     1      -0.949  13.911  19.614  0.00  0.00    +0.000 C 
ATOM      5  C   UNL     1      -1.622  13.858  20.974  0.00  0.00    +0.000 A 
ATOM      6  C   UNL     1      -1.019  14.398  22.106  0.00  0.00    +0.000 A 
ATOM      7  C   UNL     1      -1.375  13.907  23.360  0.00  0.00    +0.000 A 
ATOM      8  C   UNL     1      -2.333  12.894  23.480  0.00  0.00    +0.000 A 
ATOM      9  C   UNL     1      -3.007  12.420  22.356  0.00  0.00    +0.000 A 
ATOM     10  C   UNL     1      -2.674  12.924  21.102  0.00  0.00    +0.000 A 
ATOM     11  C   UNL     1      -3.133  12.276  19.818  0.00  0.00    +0.000 C 
ATOM     12  C   UNL     1      -1.869  11.625  19.245  0.00  0.00    +0.000 C 
ENDROOT
BRANCH   1  16
ATOM     13  C   UNL     1       1.820   7.861  19.718  0.00  0.00    +0.000 A 
ATOM     14  C   UNL     1       1.498   8.494  20.903  0.00  0.00    +0.000 A 
ATOM     15  C   UNL     1       1.043   9.797  20.906  0.00  0.00    +0.000 A 
ATOM     16  C   UNL     1       1.058  10.597  19.772  0.00  0.00    +0.000 A 
ATOM     17  C   UNL     1       1.505   9.976  18.582  0.00  0.00    +0.000 A 
ATOM     18  C   UNL     1       1.878   8.611  18.545  0.00  0.00    +0.000 A 
BRANCH  13  24
ATOM     19  C   UNL     1       1.197   3.204  20.779  0.00  0.00    +0.000 C 
ATOM     20  C   UNL     1       1.738   4.453  20.210  0.00  0.00    +0.000 A 
ATOM     21  N   UNL     1       2.592   4.426  19.150  0.00  0.00    +0.000 NA
ATOM     22  C   UNL     1       2.845   5.698  18.927  0.00  0.00    +0.000 A 
ATOM     23  C   UNL     1       3.881   6.210  17.995  0.00  0.00    +0.000 C 
ATOM     24  N   UNL     1       2.049   6.470  19.777  0.00  0.00    +0.000 N 
ATOM     25  N   UNL     1       1.444   5.671  20.687  0.00  0.00    +0.000 NA
ENDBRANCH  13  24
ENDBRANCH   1  16
BRANCH  12  26
ATOM     26  C   UNL     1      -2.156  11.100  17.837  0.00  0.00    +0.000 C 
ATOM     27  O   UNL     1      -2.649  10.009  17.598  0.00  0.00    +0.000 OA
BRANCH  26  28
ATOM     28  O   UNL     1      -1.752  11.946  16.855  0.00  0.00    +0.000 OA
ATOM     29  H   UNL     1      -1.139  12.621  17.224  0.00  0.00    +0.000 HD
ENDBRANCH  26  28
ENDBRANCH  12  26
TORSDOF 4
ENDMDL
MODEL 6
REMARK VINA RESULT:      -7.8      2.946      8.544
REMARK  Name = 
REMARK  6 active torsions:
REMARK  status: ('A' for Active; 'I' for Inactive)
REMARK    1  A    between atoms: C_1  and  C_2
REMARK    2  A    between atoms: C_4  and  C_5
REMARK    3  A    between atoms: N_6  and  C_7
REMARK    4  A    between atoms: C_10  and  C_11
REMARK    5  A    between atoms: C_22  and  C_23
REMARK    6  A    between atoms: C_23  and  O_25
REMARK                            x       y       z     vdW  Elec       q    Type
REMARK                         _______ _______ _______ _____ _____    ______ ____
ROOT
ATOM      1  C   UNL     1       3.956   5.937  19.333  0.00  0.00    +0.000 C 
ATOM      2  O   UNL     1       5.065   6.220  19.799  0.00  0.00    +0.000 OA
ATOM      3  N   UNL     1       3.665   4.581  18.957  0.00  0.00    +0.000 N 
ATOM      4  C   UNL     1       4.854   3.702  18.872  0.00  0.00    +0.000 C 
ATOM      5  C   UNL     1       5.347   3.841  17.442  0.00  0.00    +0.000 A 
ATOM      6  C   UNL     1       6.570   4.437  17.149  0.00  0.00    +0.000 A 
ATOM      7  C   UNL     1       6.760   5.003  15.891  0.00  0.00    +0.000 A 
ATOM      8  C   UNL     1       5.742   4.964  14.933  0.00  0.00    +0.000 A 
ATOM      9  C   UNL     1       4.553   4.284  15.191  0.00  0.00    +0.000 A 
ATOM     10  C   UNL     1       4.365   3.694  16.437  0.00  0.00    +0.000 A 
ATOM     11  C   UNL     1       3.020   3.196  16.906  0.00  0.00    +0.000 C 
ATOM     12  C   UNL     1       2.586   4.209  17.972  0.00  0.00    +0.000 C 
ENDROOT
BRANCH   1  16
ATOM     13  C   UNL     1       1.175   9.257  18.938  0.00  0.00    +0.000 A 
ATOM     14  C   UNL     1       1.166   8.461  20.067  0.00  0.00    +0.000 A 
ATOM     15  C   UNL     1       2.100   7.459  20.233  0.00  0.00    +0.000 A 
ATOM     16  C   UNL     1       2.969   7.072  19.221  0.00  0.00    +0.000 A 
ATOM     17  C   UNL     1       2.891   7.815  18.020  0.00  0.00    +0.000 A 
ATOM     18  C   UNL     1       2.006   8.910  17.874  0.00  0.00    +0.000 A 
BRANCH  13  24
ATOM     19  C   UNL     1      -0.315  13.770  19.718  0.00  0.00    +0.000 C 
ATOM     20  C   UNL     1      -0.266  12.369  19.260  0.00  0.00    +0.000 A 
ATOM     21  N   UNL     1      -1.100  11.923  18.281  0.00  0.00    +0.000 NA
ATOM     22  C   UNL     1      -0.763  10.659  18.142  0.00  0.00    +0.000 A 
ATOM     23  C   UNL     1      -1.507   9.662  17.332  0.00  0.00    +0.000 C 
ATOM     24  N   UNL     1       0.345  10.398  18.952  0.00  0.00    +0.000 N 
ATOM     25  N   UNL     1       0.575  11.455  19.765  0.00  0.00    +0.000 NA
ENDBRANCH  13  24
ENDBRANCH   1  16
BRANCH  12  26
ATOM     26  C   UNL     1       1.321   3.708  18.672  0.00  0.00    +0.000 C 
ATOM     27  O   UNL     1       0.882   4.173  19.712  0.00  0.00    +0.000 OA
BRANCH  26  28
ATOM     28  O   UNL     1       0.752   2.641  18.055  0.00  0.00    +0.000 OA
ATOM     29  H   UNL     1       0.230   2.942  17.277  0.00  0.00    +0.000 HD
ENDBRANCH  26  28
ENDBRANCH  12  26
TORSDOF 4
ENDMDL
MODEL 7
REMARK VINA RESULT:      -7.5      0.993      1.617
REMARK  Name = 
REMARK  6 active torsions:
REMARK  status: ('A' for Active; 'I' for Inactive)
REMARK    1  A    between atoms: C_1  and  C_2
REMARK    2  A    between atoms: C_4  and  C_5
REMARK    3  A    between atoms: N_6  and  C_7
REMARK    4  A    between atoms: C_10  and  C_11
REMARK    5  A    between atoms: C_22  and  C_23
REMARK    6  A    between atoms: C_23  and  O_25
REMARK                            x       y       z     vdW  Elec       q    Type
REMARK                         _______ _______ _______ _____ _____    ______ ____
ROOT
ATOM      1  C   UNL     1       1.017  11.757  18.988  0.00  0.00    +0.000 C 
ATOM      2  O   UNL     1       1.874  12.578  19.334  0.00  0.00    +0.000 OA
ATOM      3  N   UNL     1      -0.300  12.208  18.631  0.00  0.00    +0.000 N 
ATOM      4  C   UNL     1      -0.594  13.605  19.023  0.00  0.00    +0.000 C 
ATOM      5  C   UNL     1      -1.164  13.512  20.427  0.00  0.00    +0.000 A 
ATOM      6  C   UNL     1      -0.483  14.030  21.525  0.00  0.00    +0.000 A 
ATOM      7  C   UNL     1      -0.740  13.504  22.789  0.00  0.00    +0.000 A 
ATOM      8  C   UNL     1      -1.675  12.478  22.954  0.00  0.00    +0.000 A 
ATOM      9  C   UNL     1      -2.427  12.023  21.872  0.00  0.00    +0.000 A 
ATOM     10  C   UNL     1      -2.194  12.562  20.609  0.00  0.00    +0.000 A 
ATOM     11  C   UNL     1      -2.740  11.941  19.347  0.00  0.00    +0.000 C 
ATOM     12  C   UNL     1      -1.517  11.319  18.665  0.00  0.00    +0.000 C 
ENDROOT
BRANCH   1  16
ATOM     13  C   UNL     1       2.261   7.596  18.761  0.00  0.00    +0.000 A 
ATOM     14  C   UNL     1       1.738   8.112  19.931  0.00  0.00    +0.000 A 
ATOM     15  C   UNL     1       1.266   9.408  19.982  0.00  0.00    +0.000 A 
ATOM     16  C   UNL     1       1.452  10.314  18.947  0.00  0.00    +0.000 A 
ATOM     17  C   UNL     1       2.099   9.811  17.794  0.00  0.00    +0.000 A 
ATOM     18  C   UNL     1       2.497   8.456  17.690  0.00  0.00    +0.000 A 
BRANCH  13  24
ATOM     19  C   UNL     1       4.048   3.339  17.391  0.00  0.00    +0.000 C 
ATOM     20  C   UNL     1       3.320   4.378  18.145  0.00  0.00    +0.000 A 
ATOM     21  N   UNL     1       2.888   4.147  19.414  0.00  0.00    +0.000 NA
ATOM     22  C   UNL     1       2.306   5.278  19.751  0.00  0.00    +0.000 A 
ATOM     23  C   UNL     1       1.492   5.487  20.975  0.00  0.00    +0.000 C 
ATOM     24  N   UNL     1       2.502   6.206  18.726  0.00  0.00    +0.000 N 
ATOM     25  N   UNL     1       3.033   5.588  17.645  0.00  0.00    +0.000 NA
ENDBRANCH  13  24
ENDBRANCH   1  16
BRANCH  12  26
ATOM     26  C   UNL     1      -1.902  10.825  17.269  0.00  0.00    +0.000 C 
ATOM     27  O   UNL     1      -1.920   9.651  16.937  0.00  0.00    +0.000 OA
BRANCH  26  28
ATOM     28  O   UNL     1      -2.171  11.831  16.399  0.00  0.00    +0.000 OA
ATOM     29  H   UNL     1      -1.897  11.573  15.490  0.00  0.00    +0.000 HD
ENDBRANCH  26  28
ENDBRANCH  12  26
TORSDOF 4
ENDMDL
MODEL 8
REMARK VINA RESULT:      -7.2      2.157      3.846
REMARK  Name = 
REMARK  6 active torsions:
REMARK  status: ('A' for Active; 'I' for Inactive)
REMARK    1  A    between atoms: C_1  and  C_2
REMARK    2  A    between atoms: C_4  and  C_5
REMARK    3  A    between atoms: N_6  and  C_7
REMARK    4  A    between atoms: C_10  and  C_11
REMARK    5  A    between atoms: C_22  and  C_23
REMARK    6  A    between atoms: C_23  and  O_25
REMARK                            x       y       z     vdW  Elec       q    Type
REMARK                         _______ _______ _______ _____ _____    ______ ____
ROOT
ATOM      1  C   UNL     1       0.132   9.965  20.212  0.00  0.00    +0.000 C 
ATOM      2  O   UNL     1      -0.664   9.523  21.047  0.00  0.00    +0.000 OA
ATOM      3  N   UNL     1       0.112  11.362  19.877  0.00  0.00    +0.000 N 
ATOM      4  C   UNL     1      -1.093  12.085  20.344  0.00  0.00    +0.000 C 
ATOM      5  C   UNL     1      -2.100  11.948  19.217  0.00  0.00    +0.000 A 
ATOM      6  C   UNL     1      -3.272  11.214  19.374  0.00  0.00    +0.000 A 
ATOM      7  C   UNL     1      -3.893  10.684  18.245  0.00  0.00    +0.000 A 
ATOM      8  C   UNL     1      -3.352  10.894  16.972  0.00  0.00    +0.000 A 
ATOM      9  C   UNL     1      -2.233  11.708  16.804  0.00  0.00    +0.000 A 
ATOM     10  C   UNL     1      -1.622  12.263  17.925  0.00  0.00    +0.000 A 
ATOM     11  C   UNL     1      -0.258  12.907  17.872  0.00  0.00    +0.000 C 
ATOM     12  C   UNL     1       0.664  11.911  18.586  0.00  0.00    +0.000 C 
ENDROOT
BRANCH   1  16
ATOM     13  C   UNL     1       2.877   7.117  18.405  0.00  0.00    +0.000 A 
ATOM     14  C   UNL     1       2.594   7.062  19.756  0.00  0.00    +0.000 A 
ATOM     15  C   UNL     1       1.661   7.910  20.316  0.00  0.00    +0.000 A 
ATOM     16  C   UNL     1       1.100   8.971  19.619  0.00  0.00    +0.000 A 
ATOM     17  C   UNL     1       1.487   9.095  18.264  0.00  0.00    +0.000 A 
ATOM     18  C   UNL     1       2.366   8.171  17.650  0.00  0.00    +0.000 A 
BRANCH  13  24
ATOM     19  C   UNL     1       6.743   4.582  17.054  0.00  0.00    +0.000 C 
ATOM     20  C   UNL     1       5.348   4.970  17.333  0.00  0.00    +0.000 A 
ATOM     21  N   UNL     1       4.363   4.033  17.405  0.00  0.00    +0.000 NA
ATOM     22  C   UNL     1       3.285   4.740  17.671  0.00  0.00    +0.000 A 
ATOM     23  C   UNL     1       1.896   4.215  17.656  0.00  0.00    +0.000 C 
ATOM     24  N   UNL     1       3.659   6.071  17.871  0.00  0.00    +0.000 N 
ATOM     25  N   UNL     1       4.956   6.238  17.522  0.00  0.00    +0.000 NA
ENDBRANCH  13  24
ENDBRANCH   1  16
BRANCH  12  26
ATOM     26  C   UNL     1       2.046  12.538  18.776  0.00  0.00    +0.000 C 
ATOM     27  O   UNL     1       2.434  13.043  19.817  0.00  0.00    +0.000 OA
BRANCH  26  28
ATOM     28  O   UNL     1       2.798  12.535  17.646  0.00  0.00    +0.000 OA
ATOM     29  H   UNL     1       2.341  12.026  16.939  0.00  0.00    +0.000 HD
ENDBRANCH  26  28
ENDBRANCH  12  26
TORSDOF 4
ENDMDL
MODEL 9
REMARK VINA RESULT:      -7.2      7.458     11.126
REMARK  Name = 
REMARK  6 active torsions:
REMARK  status: ('A' for Active; 'I' for Inactive)
REMARK    1  A    between atoms: C_1  and  C_2
REMARK    2  A    between atoms: C_4  and  C_5
REMARK    3  A    between atoms: N_6  and  C_7
REMARK    4  A    between atoms: C_10  and  C_11
REMARK    5  A    between atoms: C_22  and  C_23
REMARK    6  A    between atoms: C_23  and  O_25
REMARK                            x       y       z     vdW  Elec       q    Type
REMARK                         _______ _______ _______ _____ _____    ______ ____
ROOT
ATOM      1  C   UNL     1       8.788  15.206  19.522  0.00  0.00    +0.000 C 
ATOM      2  O   UNL     1       9.540  15.651  18.649  0.00  0.00    +0.000 OA
ATOM      3  N   UNL     1       9.340  14.494  20.642  0.00  0.00    +0.000 N 
ATOM      4  C   UNL     1      10.753  14.086  20.471  0.00  0.00    +0.000 C 
ATOM      5  C   UNL     1      10.693  12.718  19.814  0.00  0.00    +0.000 A 
ATOM      6  C   UNL     1      11.153  12.514  18.517  0.00  0.00    +0.000 A 
ATOM      7  C   UNL     1      10.640  11.450  17.779  0.00  0.00    +0.000 A 
ATOM      8  C   UNL     1       9.686  10.593  18.337  0.00  0.00    +0.000 A 
ATOM      9  C   UNL     1       9.296  10.737  19.667  0.00  0.00    +0.000 A 
ATOM     10  C   UNL     1       9.823  11.784  20.419  0.00  0.00    +0.000 A 
ATOM     11  C   UNL     1       9.252  12.193  21.755  0.00  0.00    +0.000 C 
ATOM     12  C   UNL     1       8.544  13.524  21.478  0.00  0.00    +0.000 C 
ENDROOT
BRANCH   1  16
ATOM     13  C   UNL     1       4.554  15.973  18.896  0.00  0.00    +0.000 A 
ATOM     14  C   UNL     1       5.223  16.543  19.962  0.00  0.00    +0.000 A 
ATOM     15  C   UNL     1       6.583  16.369  20.117  0.00  0.00    +0.000 A 
ATOM     16  C   UNL     1       7.317  15.481  19.342  0.00  0.00    +0.000 A 
ATOM     17  C   UNL     1       6.599  14.807  18.326  0.00  0.00    +0.000 A 
ATOM     18  C   UNL     1       5.225  15.053  18.092  0.00  0.00    +0.000 A 
BRANCH  13  24
ATOM     19  C   UNL     1       0.765  18.220  16.949  0.00  0.00    +0.000 C 
ATOM     20  C   UNL     1       1.589  17.336  17.795  0.00  0.00    +0.000 A 
ATOM     21  N   UNL     1       1.028  16.303  18.482  0.00  0.00    +0.000 NA
ATOM     22  C   UNL     1       2.051  15.752  19.099  0.00  0.00    +0.000 A 
ATOM     23  C   UNL     1       1.952  14.700  20.141  0.00  0.00    +0.000 C 
ATOM     24  N   UNL     1       3.223  16.387  18.680  0.00  0.00    +0.000 N 
ATOM     25  N   UNL     1       2.912  17.484  17.951  0.00  0.00    +0.000 NA
ENDBRANCH  13  24
ENDBRANCH   1  16
BRANCH  12  26
ATOM     26  C   UNL     1       8.089  14.148  22.799  0.00  0.00    +0.000 C 
ATOM     27  O   UNL     1       8.806  14.819  23.524  0.00  0.00    +0.000 OA
BRANCH  26  28
ATOM     28  O   UNL     1       6.810  13.833  23.129  0.00  0.00    +0.000 OA
ATOM     29  H   UNL     1       6.803  13.121  23.808  0.00  0.00    +0.000 HD
ENDBRANCH  26  28
ENDBRANCH  12  26
TORSDOF 4
ENDMDL
