MODEL 1
REMARK VINA RESULT:      -9.9      0.000      0.000
REMARK  Name = 
REMARK  2 active torsions:
REMARK  status: ('A' for Active; 'I' for Inactive)
REMARK    1  A    between atoms: C_1  and  C_2
REMARK    2  A    between atoms: C_9  and  C_10
REMARK                            x       y       z     vdW  Elec       q    Type
REMARK                         _______ _______ _______ _____ _____    ______ ____
ROOT
ATOM      1  C   UNL     1       2.083   9.115  18.165  0.00  0.00    +0.000 C 
ATOM      2  O   UNL     1       2.201   9.842  17.187  0.00  0.00    +0.000 OA
ATOM      3  N   UNL     1       1.368   9.537  19.305  0.00  0.00    +0.000 N 
ATOM      4  C   UNL     1       1.060   8.559  20.359  0.00  0.00    +0.000 C 
ATOM      5  C   UNL     1      -0.033   8.894  21.332  0.00  0.00    +0.000 C 
ATOM      6  C   UNL     1       0.043  10.352  21.592  0.00  0.00    +0.000 C 
ATOM      7  C   UNL     1      -0.346  11.198  20.330  0.00  0.00    +0.000 C 
ATOM      8  C   UNL     1      -1.369  10.614  19.274  0.00  0.00    +0.000 C 
ATOM      9  C   UNL     1      -2.152  11.734  18.583  0.00  0.00    +0.000 C 
ATOM     10  C   UNL     1      -3.187  12.187  19.583  0.00  0.00    +0.000 C 
ATOM     11  C   UNL     1      -2.511  12.500  20.891  0.00  0.00    +0.000 A 
ATOM     12  C   UNL     1      -3.366  12.771  21.975  0.00  0.00    +0.000 A 
ATOM     13  C   UNL     1      -2.844  13.016  23.233  0.00  0.00    +0.000 A 
ATOM     14  C   UNL     1      -1.465  13.144  23.373  0.00  0.00    +0.000 A 
ATOM     15  C   UNL     1      -0.593  12.916  22.285  0.00  0.00    +0.000 A 
ATOM     16  C   UNL     1      -1.094  12.404  21.065  0.00  0.00    +0.000 A 
ATOM     17  C   UNL     1       1.005  11.050  19.505  0.00  0.00    +0.000 C 
ENDROOT
BRANCH   1  26
ATOM     18  C   UNL     1       3.358   2.508  17.475  0.00  0.00    +0.000 C 
ATOM     19  C   UNL     1       4.216   3.725  17.267  0.00  0.00    +0.000 A 
ATOM     20  C   UNL     1       5.424   3.619  16.680  0.00  0.00    +0.000 A 
ATOM     21  C   UNL     1       6.277   4.822  16.407  0.00  0.00    +0.000 A 
ATOM     22  O   UNL     1       7.383   4.674  15.917  0.00  0.00    +0.000 OA
ATOM     23  N   UNL     1       5.704   6.040  16.672  0.00  0.00    +0.000 N 
ATOM     24  C   UNL     1       4.444   6.191  17.264  0.00  0.00    +0.000 A 
ATOM     25  C   UNL     1       3.955   7.494  17.448  0.00  0.00    +0.000 A 
ATOM     26  C   UNL     1       2.727   7.735  18.075  0.00  0.00    +0.000 A 
ATOM     27  C   UNL     1       2.003   6.610  18.500  0.00  0.00    +0.000 A 
ATOM     28  C   UNL     1       2.475   5.297  18.281  0.00  0.00    +0.000 A 
ATOM     29  C   UNL     1       3.697   5.062  17.626  0.00  0.00    +0.000 A 
ATOM     30  H   UNL     1       6.274   6.844  16.447  0.00  0.00    +0.000 HD
ENDBRANCH   1  26
TORSDOF 1
ENDMDL
MODEL 2
REMARK VINA RESULT:      -9.2      1.801      2.232
REMARK  Name = 
REMARK  2 active torsions:
REMARK  status: ('A' for Active; 'I' for Inactive)
REMARK    1  A    between atoms: C_1  and  C_2
REMARK    2  A    between atoms: C_9  and  C_10
REMARK                            x       y       z     vdW  Elec       q    Type
REMARK                         _______ _______ _______ _____ _____    ______ ____
ROOT
ATOM      1  C   UNL     1       1.903   9.307  18.377  0.00  0.00    +0.000 C 
ATOM      2  O   UNL     1       2.000  10.013  17.381  0.00  0.00    +0.000 OA
ATOM      3  N   UNL     1       1.194   9.744  19.514  0.00  0.00    +0.000 N 
ATOM      4  C   UNL     1       0.913   8.785  20.593  0.00  0.00    +0.000 C 
ATOM      5  C   UNL     1      -0.176   9.125  21.569  0.00  0.00    +0.000 C 
ATOM      6  C   UNL     1      -0.121  10.590  21.796  0.00  0.00    +0.000 C 
ATOM      7  C   UNL     1      -0.537  11.399  20.519  0.00  0.00    +0.000 C 
ATOM      8  C   UNL     1      -1.561  10.775  19.487  0.00  0.00    +0.000 C 
ATOM      9  C   UNL     1      -2.370  11.865  18.778  0.00  0.00    +0.000 C 
ATOM     10  C   UNL     1      -3.402  12.324  19.778  0.00  0.00    +0.000 C 
ATOM     11  C   UNL     1      -2.718  12.678  21.072  0.00  0.00    +0.000 A 
ATOM     12  C   UNL     1      -3.566  12.961  22.158  0.00  0.00    +0.000 A 
ATOM     13  C   UNL     1      -3.036  13.243  23.405  0.00  0.00    +0.000 A 
ATOM     14  C   UNL     1      -1.658  13.397  23.527  0.00  0.00    +0.000 A 
ATOM     15  C   UNL     1      -0.794  13.158  22.435  0.00  0.00    +0.000 A 
ATOM     16  C   UNL     1      -1.298  12.610  21.233  0.00  0.00    +0.000 A 
ATOM     17  C   UNL     1       0.807  11.255  19.683  0.00  0.00    +0.000 C 
ENDROOT
BRANCH   1  26
ATOM     18  C   UNL     1       6.223   4.142  17.725  0.00  0.00    +0.000 C 
ATOM     19  C   UNL     1       4.942   4.291  18.499  0.00  0.00    +0.000 A 
ATOM     20  C   UNL     1       4.571   3.355  19.394  0.00  0.00    +0.000 A 
ATOM     21  C   UNL     1       3.330   3.505  20.223  0.00  0.00    +0.000 A 
ATOM     22  O   UNL     1       3.007   2.611  20.985  0.00  0.00    +0.000 OA
ATOM     23  N   UNL     1       2.670   4.702  20.109  0.00  0.00    +0.000 N 
ATOM     24  C   UNL     1       3.036   5.706  19.205  0.00  0.00    +0.000 A 
ATOM     25  C   UNL     1       2.301   6.901  19.214  0.00  0.00    +0.000 A 
ATOM     26  C   UNL     1       2.570   7.936  18.312  0.00  0.00    +0.000 A 
ATOM     27  C   UNL     1       3.621   7.726  17.405  0.00  0.00    +0.000 A 
ATOM     28  C   UNL     1       4.389   6.540  17.420  0.00  0.00    +0.000 A 
ATOM     29  C   UNL     1       4.129   5.516  18.348  0.00  0.00    +0.000 A 
ATOM     30  H   UNL     1       1.858   4.806  20.702  0.00  0.00    +0.000 HD
ENDBRANCH   1  26
TORSDOF 1
ENDMDL
MODEL 3
REMARK VINA RESULT:      -8.9      1.148      1.293
REMARK  Name = 
REMARK  2 active torsions:
REMARK  status: ('A' for Active; 'I' for Inactive)
REMARK    1  A    between atoms: C_1  and  C_2
REMARK    2  A    between atoms: C_9  and  C_10
REMARK                            x       y       z     vdW  Elec       q    Type
REMARK                         _______ _______ _______ _____ _____    ______ ____
ROOT
ATOM      1  C   UNL     1       1.682   9.141  18.989  0.00  0.00    +0.000 C 
ATOM      2  O   UNL     1       1.841   9.757  17.943  0.00  0.00    +0.000 OA
ATOM      3  N   UNL     1       0.995   9.715  20.077  0.00  0.00    +0.000 N 
ATOM      4  C   UNL     1       0.634   8.867  21.223  0.00  0.00    +0.000 C 
ATOM      5  C   UNL     1      -0.437   9.360  22.153  0.00  0.00    +0.000 C 
ATOM      6  C   UNL     1      -0.277  10.831  22.265  0.00  0.00    +0.000 C 
ATOM      7  C   UNL     1      -0.620  11.565  20.923  0.00  0.00    +0.000 C 
ATOM      8  C   UNL     1      -1.676  10.937  19.927  0.00  0.00    +0.000 C 
ATOM      9  C   UNL     1      -2.396  12.023  19.123  0.00  0.00    +0.000 C 
ATOM     10  C   UNL     1      -3.402  12.633  20.068  0.00  0.00    +0.000 C 
ATOM     11  C   UNL     1      -2.707  13.038  21.341  0.00  0.00    +0.000 A 
ATOM     12  C   UNL     1      -3.543  13.465  22.389  0.00  0.00    +0.000 A 
ATOM     13  C   UNL     1      -3.006  13.806  23.617  0.00  0.00    +0.000 A 
ATOM     14  C   UNL     1      -1.622  13.869  23.749  0.00  0.00    +0.000 A 
ATOM     15  C   UNL     1      -0.766  13.484  22.693  0.00  0.00    +0.000 A 
ATOM     16  C   UNL     1      -1.297  12.880  21.529  0.00  0.00    +0.000 A 
ATOM     17  C   UNL     1       0.718  11.259  20.122  0.00  0.00    +0.000 C 
ENDROOT
BRANCH   1  26
ATOM     18  C   UNL     1       2.670   2.503  19.848  0.00  0.00    +0.000 C 
ATOM     19  C   UNL     1       3.294   3.500  18.912  0.00  0.00    +0.000 A 
ATOM     20  C   UNL     1       4.085   3.089  17.902  0.00  0.00    +0.000 A 
ATOM     21  C   UNL     1       4.674   4.054  16.917  0.00  0.00    +0.000 A 
ATOM     22  O   UNL     1       5.423   3.642  16.049  0.00  0.00    +0.000 OA
ATOM     23  N   UNL     1       4.260   5.357  17.028  0.00  0.00    +0.000 N 
ATOM     24  C   UNL     1       3.423   5.819  18.052  0.00  0.00    +0.000 A 
ATOM     25  C   UNL     1       3.042   7.170  18.030  0.00  0.00    +0.000 A 
ATOM     26  C   UNL     1       2.248   7.724  19.041  0.00  0.00    +0.000 A 
ATOM     27  C   UNL     1       1.841   6.860  20.070  0.00  0.00    +0.000 A 
ATOM     28  C   UNL     1       2.192   5.491  20.073  0.00  0.00    +0.000 A 
ATOM     29  C   UNL     1       2.967   4.936  19.040  0.00  0.00    +0.000 A 
ATOM     30  H   UNL     1       4.633   5.990  16.335  0.00  0.00    +0.000 HD
ENDBRANCH   1  26
TORSDOF 1
ENDMDL
MODEL 4
REMARK VINA RESULT:      -8.6      2.408      9.526
REMARK  Name = 
REMARK  2 active torsions:
REMARK  status: ('A' for Active; 'I' for Inactive)
REMARK    1  A    between atoms: C_1  and  C_2
REMARK    2  A    between atoms: C_9  and  C_10
REMARK                            x       y       z     vdW  Elec       q    Type
REMARK                         _______ _______ _______ _____ _____    ______ ____
ROOT
ATOM      1  C   UNL     1       0.937   8.219  20.688  0.00  0.00    +0.000 C 
ATOM      2  O   UNL     1       0.670   7.422  21.578  0.00  0.00    +0.000 OA
ATOM      3  N   UNL     1       1.902   7.919  19.705  0.00  0.00    +0.000 N 
ATOM      4  C   UNL     1       2.030   8.800  18.535  0.00  0.00    +0.000 C 
ATOM      5  C   UNL     1       2.732   8.261  17.322  0.00  0.00    +0.000 C 
ATOM      6  C   UNL     1       3.844   7.406  17.803  0.00  0.00    +0.000 C 
ATOM      7  C   UNL     1       3.323   6.104  18.507  0.00  0.00    +0.000 C 
ATOM      8  C   UNL     1       1.940   5.472  18.074  0.00  0.00    +0.000 C 
ATOM      9  C   UNL     1       1.934   3.954  18.283  0.00  0.00    +0.000 C 
ATOM     10  C   UNL     1       2.742   3.381  17.145  0.00  0.00    +0.000 C 
ATOM     11  C   UNL     1       4.074   4.081  17.079  0.00  0.00    +0.000 A 
ATOM     12  C   UNL     1       4.873   3.777  15.962  0.00  0.00    +0.000 A 
ATOM     13  C   UNL     1       6.090   4.409  15.780  0.00  0.00    +0.000 A 
ATOM     14  C   UNL     1       6.579   5.228  16.794  0.00  0.00    +0.000 A 
ATOM     15  C   UNL     1       5.806   5.511  17.943  0.00  0.00    +0.000 A 
ATOM     16  C   UNL     1       4.458   5.091  18.018  0.00  0.00    +0.000 A 
ATOM     17  C   UNL     1       2.905   6.729  19.908  0.00  0.00    +0.000 C 
ENDROOT
BRANCH   1  26
ATOM     18  C   UNL     1      -3.646  13.128  19.870  0.00  0.00    +0.000 C 
ATOM     19  C   UNL     1      -2.565  12.920  20.895  0.00  0.00    +0.000 A 
ATOM     20  C   UNL     1      -2.507  13.698  21.994  0.00  0.00    +0.000 A 
ATOM     21  C   UNL     1      -1.477  13.477  23.062  0.00  0.00    +0.000 A 
ATOM     22  O   UNL     1      -1.432  14.234  24.015  0.00  0.00    +0.000 OA
ATOM     23  N   UNL     1      -0.686  12.367  22.916  0.00  0.00    +0.000 N 
ATOM     24  C   UNL     1      -0.730  11.525  21.798  0.00  0.00    +0.000 A 
ATOM     25  C   UNL     1       0.107  10.399  21.789  0.00  0.00    +0.000 A 
ATOM     26  C   UNL     1       0.160   9.532  20.690  0.00  0.00    +0.000 A 
ATOM     27  C   UNL     1      -0.675   9.838  19.604  0.00  0.00    +0.000 A 
ATOM     28  C   UNL     1      -1.547  10.950  19.628  0.00  0.00    +0.000 A 
ATOM     29  C   UNL     1      -1.614  11.799  20.745  0.00  0.00    +0.000 A 
ATOM     30  H   UNL     1      -0.022  12.208  23.662  0.00  0.00    +0.000 HD
ENDBRANCH   1  26
TORSDOF 1
ENDMDL
MODEL 5
REMARK VINA RESULT:      -8.6      2.466      9.285
REMARK  Name = 
REMARK  2 active torsions:
REMARK  status: ('A' for Active; 'I' for Inactive)
REMARK    1  A    between atoms: C_1  and  C_2
REMARK    2  A    between atoms: C_9  and  C_10
REMARK                            x       y       z     vdW  Elec       q    Type
REMARK                         _______ _______ _______ _____ _____    ______ ____
ROOT
ATOM      1  C   UNL     1       1.331   7.626  20.778  0.00  0.00    +0.000 C 
ATOM      2  O   UNL     1       1.087   6.745  21.593  0.00  0.00    +0.000 OA
ATOM      3  N   UNL     1       2.262   7.420  19.739  0.00  0.00    +0.000 N 
ATOM      4  C   UNL     1       2.360   8.413  18.659  0.00  0.00    +0.000 C 
ATOM      5  C   UNL     1       3.018   7.995  17.376  0.00  0.00    +0.000 C 
ATOM      6  C   UNL     1       4.138   7.089  17.733  0.00  0.00    +0.000 C 
ATOM      7  C   UNL     1       3.629   5.727  18.321  0.00  0.00    +0.000 C 
ATOM      8  C   UNL     1       2.228   5.148  17.872  0.00  0.00    +0.000 C 
ATOM      9  C   UNL     1       2.216   3.617  17.929  0.00  0.00    +0.000 C 
ATOM     10  C   UNL     1       2.982   3.156  16.714  0.00  0.00    +0.000 C 
ATOM     11  C   UNL     1       4.317   3.853  16.674  0.00  0.00    +0.000 A 
ATOM     12  C   UNL     1       5.078   3.657  15.507  0.00  0.00    +0.000 A 
ATOM     13  C   UNL     1       6.293   4.298  15.349  0.00  0.00    +0.000 A 
ATOM     14  C   UNL     1       6.821   5.009  16.424  0.00  0.00    +0.000 A 
ATOM     15  C   UNL     1       6.088   5.181  17.619  0.00  0.00    +0.000 A 
ATOM     16  C   UNL     1       4.739   4.762  17.696  0.00  0.00    +0.000 A 
ATOM     17  C   UNL     1       3.261   6.211  19.790  0.00  0.00    +0.000 C 
ENDROOT
BRANCH   1  26
ATOM     18  C   UNL     1      -1.596  13.271  23.086  0.00  0.00    +0.000 C 
ATOM     19  C   UNL     1      -1.090  12.884  21.724  0.00  0.00    +0.000 A 
ATOM     20  C   UNL     1      -0.997  13.803  20.743  0.00  0.00    +0.000 A 
ATOM     21  C   UNL     1      -0.441  13.461  19.392  0.00  0.00    +0.000 A 
ATOM     22  O   UNL     1      -0.420  14.312  18.521  0.00  0.00    +0.000 OA
ATOM     23  N   UNL     1       0.080  12.200  19.257  0.00  0.00    +0.000 N 
ATOM     24  C   UNL     1       0.018  11.224  20.259  0.00  0.00    +0.000 A 
ATOM     25  C   UNL     1       0.624   9.983  20.008  0.00  0.00    +0.000 A 
ATOM     26  C   UNL     1       0.567   8.937  20.936  0.00  0.00    +0.000 A 
ATOM     27  C   UNL     1      -0.114   9.194  22.136  0.00  0.00    +0.000 A 
ATOM     28  C   UNL     1      -0.691  10.455  22.408  0.00  0.00    +0.000 A 
ATOM     29  C   UNL     1      -0.606  11.509  21.481  0.00  0.00    +0.000 A 
ATOM     30  H   UNL     1       0.486  11.994  18.354  0.00  0.00    +0.000 HD
ENDBRANCH   1  26
TORSDOF 1
ENDMDL
MODEL 6
REMARK VINA RESULT:      -8.5      2.247      9.387
REMARK  Name = 
REMARK  2 active torsions:
REMARK  status: ('A' for Active; 'I' for Inactive)
REMARK    1  A    between atoms: C_1  and  C_2
REMARK    2  A    between atoms: C_9  and  C_10
REMARK                            x       y       z     vdW  Elec       q    Type
REMARK                         _______ _______ _______ _____ _____    ______ ____
ROOT
ATOM      1  C   UNL     1       1.516   9.706  18.624  0.00  0.00    +0.000 C 
ATOM      2  O   UNL     1       1.727  10.151  17.504  0.00  0.00    +0.000 OA
ATOM      3  N   UNL     1       1.648   8.330  18.900  0.00  0.00    +0.000 N 
ATOM      4  C   UNL     1       1.605   7.872  20.296  0.00  0.00    +0.000 C 
ATOM      5  C   UNL     1       2.160   6.512  20.608  0.00  0.00    +0.000 C 
ATOM      6  C   UNL     1       1.820   5.628  19.466  0.00  0.00    +0.000 C 
ATOM      7  C   UNL     1       2.594   6.026  18.162  0.00  0.00    +0.000 C 
ATOM      8  C   UNL     1       4.018   6.707  18.266  0.00  0.00    +0.000 C 
ATOM      9  C   UNL     1       4.885   6.370  17.049  0.00  0.00    +0.000 C 
ATOM     10  C   UNL     1       5.362   4.954  17.265  0.00  0.00    +0.000 C 
ATOM     11  C   UNL     1       4.178   4.070  17.558  0.00  0.00    +0.000 A 
ATOM     12  C   UNL     1       4.478   2.753  17.953  0.00  0.00    +0.000 A 
ATOM     13  C   UNL     1       3.463   1.879  18.297  0.00  0.00    +0.000 A 
ATOM     14  C   UNL     1       2.143   2.272  18.097  0.00  0.00    +0.000 A 
ATOM     15  C   UNL     1       1.825   3.578  17.662  0.00  0.00    +0.000 A 
ATOM     16  C   UNL     1       2.835   4.563  17.564  0.00  0.00    +0.000 A 
ATOM     17  C   UNL     1       1.726   7.285  17.731  0.00  0.00    +0.000 C 
ENDROOT
BRANCH   1  26
ATOM     18  C   UNL     1       0.290  15.292  22.239  0.00  0.00    +0.000 C 
ATOM     19  C   UNL     1      -0.307  13.912  22.285  0.00  0.00    +0.000 A 
ATOM     20  C   UNL     1      -1.406  13.667  23.024  0.00  0.00    +0.000 A 
ATOM     21  C   UNL     1      -2.058  12.317  23.043  0.00  0.00    +0.000 A 
ATOM     22  O   UNL     1      -3.023  12.128  23.763  0.00  0.00    +0.000 OA
ATOM     23  N   UNL     1      -1.548  11.388  22.172  0.00  0.00    +0.000 N 
ATOM     24  C   UNL     1      -0.419  11.612  21.375  0.00  0.00    +0.000 A 
ATOM     25  C   UNL     1      -0.021  10.592  20.496  0.00  0.00    +0.000 A 
ATOM     26  C   UNL     1       1.124  10.715  19.700  0.00  0.00    +0.000 A 
ATOM     27  C   UNL     1       1.846  11.914  19.813  0.00  0.00    +0.000 A 
ATOM     28  C   UNL     1       1.425  12.957  20.667  0.00  0.00    +0.000 A 
ATOM     29  C   UNL     1       0.260  12.837  21.444  0.00  0.00    +0.000 A 
ATOM     30  H   UNL     1      -2.021  10.495  22.167  0.00  0.00    +0.000 HD
ENDBRANCH   1  26
TORSDOF 1
ENDMDL
MODEL 7
REMARK VINA RESULT:      -8.4      2.379      3.465
REMARK  Name = 
REMARK  2 active torsions:
REMARK  status: ('A' for Active; 'I' for Inactive)
REMARK    1  A    between atoms: C_1  and  C_2
REMARK    2  A    between atoms: C_9  and  C_10
REMARK                            x       y       z     vdW  Elec       q    Type
REMARK                         _______ _______ _______ _____ _____    ______ ____
ROOT
ATOM      1  C   UNL     1       0.581  11.045  19.319  0.00  0.00    +0.000 C 
ATOM      2  O   UNL     1       0.560  11.807  18.362  0.00  0.00    +0.000 OA
ATOM      3  N   UNL     1       0.073  11.436  20.575  0.00  0.00    +0.000 N 
ATOM      4  C   UNL     1      -0.088  10.423  21.629  0.00  0.00    +0.000 C 
ATOM      5  C   UNL     1      -1.000  10.743  22.778  0.00  0.00    +0.000 C 
ATOM      6  C   UNL     1      -0.841  12.188  23.075  0.00  0.00    +0.000 C 
ATOM      7  C   UNL     1      -1.406  13.091  21.924  0.00  0.00    +0.000 C 
ATOM      8  C   UNL     1      -2.602  12.573  21.029  0.00  0.00    +0.000 C 
ATOM      9  C   UNL     1      -3.456  13.736  20.515  0.00  0.00    +0.000 C 
ATOM     10  C   UNL     1      -4.302  14.171  21.685  0.00  0.00    +0.000 C 
ATOM     11  C   UNL     1      -3.414  14.417  22.877  0.00  0.00    +0.000 A 
ATOM     12  C   UNL     1      -4.074  14.663  24.095  0.00  0.00    +0.000 A 
ATOM     13  C   UNL     1      -3.349  14.846  25.258  0.00  0.00    +0.000 A 
ATOM     14  C   UNL     1      -1.962  14.938  25.177  0.00  0.00    +0.000 A 
ATOM     15  C   UNL     1      -1.285  14.735  23.953  0.00  0.00    +0.000 A 
ATOM     16  C   UNL     1      -1.991  14.283  22.814  0.00  0.00    +0.000 A 
ATOM     17  C   UNL     1      -0.211  12.948  20.885  0.00  0.00    +0.000 C 
ENDROOT
BRANCH   1  26
ATOM     18  C   UNL     1       4.354   5.756  17.433  0.00  0.00    +0.000 C 
ATOM     19  C   UNL     1       3.397   5.953  18.576  0.00  0.00    +0.000 A 
ATOM     20  C   UNL     1       3.317   5.042  19.565  0.00  0.00    +0.000 A 
ATOM     21  C   UNL     1       2.415   5.238  20.747  0.00  0.00    +0.000 A 
ATOM     22  O   UNL     1       2.339   4.366  21.594  0.00  0.00    +0.000 OA
ATOM     23  N   UNL     1       1.777   6.450  20.823  0.00  0.00    +0.000 N 
ATOM     24  C   UNL     1       1.850   7.429  19.825  0.00  0.00    +0.000 A 
ATOM     25  C   UNL     1       1.181   8.643  20.042  0.00  0.00    +0.000 A 
ATOM     26  C   UNL     1       1.163   9.656  19.076  0.00  0.00    +0.000 A 
ATOM     27  C   UNL     1       1.860   9.402  17.883  0.00  0.00    +0.000 A 
ATOM     28  C   UNL     1       2.568   8.197  17.679  0.00  0.00    +0.000 A 
ATOM     29  C   UNL     1       2.602   7.196  18.665  0.00  0.00    +0.000 A 
ATOM     30  H   UNL     1       1.203   6.586  21.644  0.00  0.00    +0.000 HD
ENDBRANCH   1  26
TORSDOF 1
ENDMDL
MODEL 8
REMARK VINA RESULT:      -8.4      2.478      3.995
REMARK  Name = 
REMARK  2 active torsions:
REMARK  status: ('A' for Active; 'I' for Inactive)
REMARK    1  A    between atoms: C_1  and  C_2
REMARK    2  A    between atoms: C_9  and  C_10
REMARK                            x       y       z     vdW  Elec       q    Type
REMARK                         _______ _______ _______ _____ _____    ______ ____
ROOT
ATOM      1  C   UNL     1       0.426  10.408  20.982  0.00  0.00    +0.000 C 
ATOM      2  O   UNL     1       0.980  10.697  22.035  0.00  0.00    +0.000 OA
ATOM      3  N   UNL     1      -0.757  11.060  20.578  0.00  0.00    +0.000 N 
ATOM      4  C   UNL     1      -1.262  10.844  19.214  0.00  0.00    +0.000 C 
ATOM      5  C   UNL     1      -2.244  11.838  18.662  0.00  0.00    +0.000 C 
ATOM      6  C   UNL     1      -3.121  12.256  19.782  0.00  0.00    +0.000 C 
ATOM      7  C   UNL     1      -2.346  13.096  20.856  0.00  0.00    +0.000 C 
ATOM      8  C   UNL     1      -1.105  13.976  20.424  0.00  0.00    +0.000 C 
ATOM      9  C   UNL     1      -0.948  15.199  21.332  0.00  0.00    +0.000 C 
ATOM     10  C   UNL     1      -2.008  16.178  20.889  0.00  0.00    +0.000 C 
ATOM     11  C   UNL     1      -3.344  15.484  20.860  0.00  0.00    +0.000 A 
ATOM     12  C   UNL     1      -4.405  16.219  20.301  0.00  0.00    +0.000 A 
ATOM     13  C   UNL     1      -5.660  15.650  20.177  0.00  0.00    +0.000 A 
ATOM     14  C   UNL     1      -5.892  14.405  20.755  0.00  0.00    +0.000 A 
ATOM     15  C   UNL     1      -4.846  13.671  21.358  0.00  0.00    +0.000 A 
ATOM     16  C   UNL     1      -3.508  14.118  21.254  0.00  0.00    +0.000 A 
ATOM     17  C   UNL     1      -1.589  11.912  21.599  0.00  0.00    +0.000 C 
ENDROOT
BRANCH   1  26
ATOM     18  C   UNL     1       4.272   6.922  16.644  0.00  0.00    +0.000 C 
ATOM     19  C   UNL     1       3.552   6.517  17.901  0.00  0.00    +0.000 A 
ATOM     20  C   UNL     1       3.771   5.309  18.455  0.00  0.00    +0.000 A 
ATOM     21  C   UNL     1       3.112   4.899  19.739  0.00  0.00    +0.000 A 
ATOM     22  O   UNL     1       3.303   3.779  20.179  0.00  0.00    +0.000 OA
ATOM     23  N   UNL     1       2.380   5.867  20.376  0.00  0.00    +0.000 N 
ATOM     24  C   UNL     1       2.145   7.140  19.841  0.00  0.00    +0.000 A 
ATOM     25  C   UNL     1       1.410   8.053  20.612  0.00  0.00    +0.000 A 
ATOM     26  C   UNL     1       1.090   9.329  20.132  0.00  0.00    +0.000 A 
ATOM     27  C   UNL     1       1.552   9.654  18.847  0.00  0.00    +0.000 A 
ATOM     28  C   UNL     1       2.326   8.751  18.085  0.00  0.00    +0.000 A 
ATOM     29  C   UNL     1       2.666   7.482  18.585  0.00  0.00    +0.000 A 
ATOM     30  H   UNL     1       1.973   5.591  21.260  0.00  0.00    +0.000 HD
ENDBRANCH   1  26
TORSDOF 1
ENDMDL
MODEL 9
REMARK VINA RESULT:      -8.3      2.068      3.255
REMARK  Name = 
REMARK  2 active torsions:
REMARK  status: ('A' for Active; 'I' for Inactive)
REMARK    1  A    between atoms: C_1  and  C_2
REMARK    2  A    between atoms: C_9  and  C_10
REMARK                            x       y       z     vdW  Elec       q    Type
REMARK                         _______ _______ _______ _____ _____    ______ ____
ROOT
ATOM      1  C   UNL     1       1.069   9.165  20.873  0.00  0.00    +0.000 C 
ATOM      2  O   UNL     1       1.517   9.164  22.012  0.00  0.00    +0.000 OA
ATOM      3  N   UNL     1       0.002  10.011  20.509  0.00  0.00    +0.000 N 
ATOM      4  C   UNL     1      -0.355  10.144  19.089  0.00  0.00    +0.000 C 
ATOM      5  C   UNL     1      -1.176  11.331  18.678  0.00  0.00    +0.000 C 
ATOM      6  C   UNL     1      -2.142  11.597  19.772  0.00  0.00    +0.000 C 
ATOM      7  C   UNL     1      -1.431  12.103  21.075  0.00  0.00    +0.000 C 
ATOM      8  C   UNL     1      -0.077  12.915  20.971  0.00  0.00    +0.000 C 
ATOM      9  C   UNL     1       0.074  13.895  22.138  0.00  0.00    +0.000 C 
ATOM     10  C   UNL     1      -0.840  15.053  21.822  0.00  0.00    +0.000 C 
ATOM     11  C   UNL     1      -2.217  14.530  21.510  0.00  0.00    +0.000 A 
ATOM     12  C   UNL     1      -3.139  15.477  21.027  0.00  0.00    +0.000 A 
ATOM     13  C   UNL     1      -4.414  15.086  20.659  0.00  0.00    +0.000 A 
ATOM     14  C   UNL     1      -4.817  13.779  20.922  0.00  0.00    +0.000 A 
ATOM     15  C   UNL     1      -3.915  12.826  21.446  0.00  0.00    +0.000 A 
ATOM     16  C   UNL     1      -2.542  13.138  21.574  0.00  0.00    +0.000 A 
ATOM     17  C   UNL     1      -0.869  10.714  21.608  0.00  0.00    +0.000 C 
ENDROOT
BRANCH   1  26
ATOM     18  C   UNL     1       4.962   6.345  16.112  0.00  0.00    +0.000 C 
ATOM     19  C   UNL     1       4.204   5.757  17.270  0.00  0.00    +0.000 A 
ATOM     20  C   UNL     1       4.388   4.471  17.627  0.00  0.00    +0.000 A 
ATOM     21  C   UNL     1       3.691   3.874  18.812  0.00  0.00    +0.000 A 
ATOM     22  O   UNL     1       3.850   2.693  19.069  0.00  0.00    +0.000 OA
ATOM     23  N   UNL     1       2.959   4.741  19.582  0.00  0.00    +0.000 N 
ATOM     24  C   UNL     1       2.760   6.089  19.255  0.00  0.00    +0.000 A 
ATOM     25  C   UNL     1       2.021   6.881  20.147  0.00  0.00    +0.000 A 
ATOM     26  C   UNL     1       1.736   8.223  19.874  0.00  0.00    +0.000 A 
ATOM     27  C   UNL     1       2.236   8.742  18.669  0.00  0.00    +0.000 A 
ATOM     28  C   UNL     1       3.013   7.958  17.788  0.00  0.00    +0.000 A 
ATOM     29  C   UNL     1       3.318   6.618  18.083  0.00  0.00    +0.000 A 
ATOM     30  H   UNL     1       2.526   4.335  20.400  0.00  0.00    +0.000 HD
ENDBRANCH   1  26
TORSDOF 1
ENDMDL
