MODEL 1
REMARK VINA RESULT:      -9.3      0.000      0.000
REMARK  Name = 
REMARK  5 active torsions:
REMARK  status: ('A' for Active; 'I' for Inactive)
REMARK    1  A    between atoms: C_1  and  C_2
REMARK    2  A    between atoms: C_4  and  C_5
REMARK    3  A    between atoms: N_7  and  C_8
REMARK    4  A    between atoms: C_12  and  S_13
REMARK    5  A    between atoms: S_13  and  N_16
REMARK                            x       y       z     vdW  Elec       q    Type
REMARK                         _______ _______ _______ _____ _____    ______ ____
ROOT
ATOM      1  C   UNL     1       2.596   7.811  18.275  0.00  0.00    +0.000 C 
ATOM      2  O   UNL     1       2.366   8.721  17.484  0.00  0.00    +0.000 OA
ATOM      3  N   UNL     1       2.078   7.714  19.564  0.00  0.00    +0.000 N 
ATOM      4  H   UNL     1       2.425   6.973  20.167  0.00  0.00    +0.000 HD
ENDROOT
BRANCH   1   8
ATOM      5  C   UNL     1       7.152   6.278  16.953  0.00  0.00    +0.000 C 
ATOM      6  C   UNL     1       5.702   6.019  17.232  0.00  0.00    +0.000 A 
ATOM      7  C   UNL     1       4.829   7.052  17.524  0.00  0.00    +0.000 A 
ATOM      8  C   UNL     1       3.500   6.731  17.799  0.00  0.00    +0.000 A 
ATOM      9  C   UNL     1       3.058   5.374  17.775  0.00  0.00    +0.000 A 
ATOM     10  C   UNL     1       1.731   4.916  18.030  0.00  0.00    +0.000 A 
ATOM     11  C   UNL     1       1.408   3.559  18.038  0.00  0.00    +0.000 A 
ATOM     12  C   UNL     1       2.397   2.626  17.781  0.00  0.00    +0.000 A 
ATOM     13  C   UNL     1       3.694   3.060  17.502  0.00  0.00    +0.000 A 
ATOM     14  C   UNL     1       4.041   4.405  17.491  0.00  0.00    +0.000 A 
ATOM     15  N   UNL     1       5.314   4.723  17.213  0.00  0.00    +0.000 NA
ENDBRANCH   1   8
BRANCH   3  16
ATOM     16  C   UNL     1       1.297   8.725  20.192  0.00  0.00    +0.000 A 
ATOM     17  C   UNL     1       1.243   8.867  21.585  0.00  0.00    +0.000 A 
ATOM     18  C   UNL     1       0.298   9.680  22.207  0.00  0.00    +0.000 A 
ATOM     19  C   UNL     1      -0.558  10.451  21.432  0.00  0.00    +0.000 A 
ATOM     20  C   UNL     1      -0.396  10.449  20.046  0.00  0.00    +0.000 A 
ATOM     21  C   UNL     1       0.505   9.573  19.413  0.00  0.00    +0.000 A 
BRANCH  20  22
ATOM     22  S   UNL     1      -1.347  11.586  19.072  0.00  0.00    +0.000 S 
ATOM     23  O   UNL     1      -2.098  12.410  19.995  0.00  0.00    +0.000 OA
ATOM     24  O   UNL     1      -0.491  12.169  18.064  0.00  0.00    +0.000 OA
BRANCH  22  25
ATOM     25  N   UNL     1      -2.443  10.542  18.277  0.00  0.00    +0.000 NA
ATOM     26  C   UNL     1      -2.007   9.985  16.967  0.00  0.00    +0.000 C 
ATOM     27  C   UNL     1      -2.704  10.845  15.931  0.00  0.00    +0.000 C 
ATOM     28  C   UNL     1      -4.031  11.199  16.576  0.00  0.00    +0.000 C 
ATOM     29  C   UNL     1      -3.801  11.108  18.078  0.00  0.00    +0.000 C 
ENDBRANCH  22  25
ENDBRANCH  20  22
ENDBRANCH   3  16
TORSDOF 4
ENDMDL
MODEL 2
REMARK VINA RESULT:      -8.9      2.867      3.753
REMARK  Name = 
REMARK  5 active torsions:
REMARK  status: ('A' for Active; 'I' for Inactive)
REMARK    1  A    between atoms: C_1  and  C_2
REMARK    2  A    between atoms: C_4  and  C_5
REMARK    3  A    between atoms: N_7  and  C_8
REMARK    4  A    between atoms: C_12  and  S_13
REMARK    5  A    between atoms: S_13  and  N_16
REMARK                            x       y       z     vdW  Elec       q    Type
REMARK                         _______ _______ _______ _____ _____    ______ ____
ROOT
ATOM      1  C   UNL     1       2.455   7.573  18.566  0.00  0.00    +0.000 C 
ATOM      2  O   UNL     1       2.202   7.453  19.762  0.00  0.00    +0.000 OA
ATOM      3  N   UNL     1       1.978   8.587  17.740  0.00  0.00    +0.000 N 
ATOM      4  H   UNL     1       2.166   8.523  16.743  0.00  0.00    +0.000 HD
ENDROOT
BRANCH   1   8
ATOM      5  C   UNL     1       6.943   6.251  16.844  0.00  0.00    +0.000 C 
ATOM      6  C   UNL     1       5.525   5.933  17.212  0.00  0.00    +0.000 A 
ATOM      7  C   UNL     1       4.648   6.922  17.619  0.00  0.00    +0.000 A 
ATOM      8  C   UNL     1       3.351   6.546  17.972  0.00  0.00    +0.000 A 
ATOM      9  C   UNL     1       2.947   5.179  17.911  0.00  0.00    +0.000 A 
ATOM     10  C   UNL     1       1.657   4.667  18.236  0.00  0.00    +0.000 A 
ATOM     11  C   UNL     1       1.373   3.301  18.198  0.00  0.00    +0.000 A 
ATOM     12  C   UNL     1       2.367   2.414  17.824  0.00  0.00    +0.000 A 
ATOM     13  C   UNL     1       3.626   2.902  17.475  0.00  0.00    +0.000 A 
ATOM     14  C   UNL     1       3.934   4.257  17.508  0.00  0.00    +0.000 A 
ATOM     15  N   UNL     1       5.174   4.628  17.156  0.00  0.00    +0.000 NA
ENDBRANCH   1   8
BRANCH   3  16
ATOM     16  C   UNL     1       1.026   9.567  18.142  0.00  0.00    +0.000 A 
ATOM     17  C   UNL     1      -0.326   9.481  17.787  0.00  0.00    +0.000 A 
ATOM     18  C   UNL     1      -1.203  10.550  17.960  0.00  0.00    +0.000 A 
ATOM     19  C   UNL     1      -0.758  11.705  18.589  0.00  0.00    +0.000 A 
ATOM     20  C   UNL     1       0.539  11.734  19.103  0.00  0.00    +0.000 A 
ATOM     21  C   UNL     1       1.448  10.687  18.863  0.00  0.00    +0.000 A 
BRANCH  20  22
ATOM     22  S   UNL     1       1.039  13.124  20.085  0.00  0.00    +0.000 S 
ATOM     23  O   UNL     1       0.167  14.226  19.735  0.00  0.00    +0.000 OA
ATOM     24  O   UNL     1       1.201  12.695  21.455  0.00  0.00    +0.000 OA
BRANCH  22  25
ATOM     25  N   UNL     1       2.596  13.458  19.462  0.00  0.00    +0.000 NA
ATOM     26  C   UNL     1       3.474  14.332  20.286  0.00  0.00    +0.000 C 
ATOM     27  C   UNL     1       3.367  15.701  19.644  0.00  0.00    +0.000 C 
ATOM     28  C   UNL     1       3.206  15.405  18.165  0.00  0.00    +0.000 C 
ATOM     29  C   UNL     1       2.604  14.010  18.084  0.00  0.00    +0.000 C 
ENDBRANCH  22  25
ENDBRANCH  20  22
ENDBRANCH   3  16
TORSDOF 4
ENDMDL
MODEL 3
REMARK VINA RESULT:      -8.9      3.321      8.527
REMARK  Name = 
REMARK  5 active torsions:
REMARK  status: ('A' for Active; 'I' for Inactive)
REMARK    1  A    between atoms: C_1  and  C_2
REMARK    2  A    between atoms: C_4  and  C_5
REMARK    3  A    between atoms: N_7  and  C_8
REMARK    4  A    between atoms: C_12  and  S_13
REMARK    5  A    between atoms: S_13  and  N_16
REMARK                            x       y       z     vdW  Elec       q    Type
REMARK                         _______ _______ _______ _____ _____    ______ ____
ROOT
ATOM      1  C   UNL     1       1.649   8.473  18.841  0.00  0.00    +0.000 C 
ATOM      2  O   UNL     1       1.275   8.536  17.674  0.00  0.00    +0.000 OA
ATOM      3  N   UNL     1       2.506   7.507  19.361  0.00  0.00    +0.000 N 
ATOM      4  H   UNL     1       2.659   7.490  20.366  0.00  0.00    +0.000 HD
ENDROOT
BRANCH   1   8
ATOM      5  C   UNL     1      -0.465   9.761  23.168  0.00  0.00    +0.000 C 
ATOM      6  C   UNL     1       0.183  10.108  21.863  0.00  0.00    +0.000 A 
ATOM      7  C   UNL     1       0.515   9.130  20.941  0.00  0.00    +0.000 A 
ATOM      8  C   UNL     1       1.140   9.527  19.759  0.00  0.00    +0.000 A 
ATOM      9  C   UNL     1       1.426  10.903  19.511  0.00  0.00    +0.000 A 
ATOM     10  C   UNL     1       2.051  11.437  18.346  0.00  0.00    +0.000 A 
ATOM     11  C   UNL     1       2.339  12.797  18.220  0.00  0.00    +0.000 A 
ATOM     12  C   UNL     1       1.999  13.658  19.249  0.00  0.00    +0.000 A 
ATOM     13  C   UNL     1       1.360  13.155  20.382  0.00  0.00    +0.000 A 
ATOM     14  C   UNL     1       1.066  11.805  20.533  0.00  0.00    +0.000 A 
ATOM     15  N   UNL     1       0.452  11.418  21.660  0.00  0.00    +0.000 NA
ENDBRANCH   1   8
BRANCH   3  16
ATOM     16  C   UNL     1       2.978   6.378  18.632  0.00  0.00    +0.000 A 
ATOM     17  C   UNL     1       2.626   5.067  18.980  0.00  0.00    +0.000 A 
ATOM     18  C   UNL     1       3.275   3.961  18.435  0.00  0.00    +0.000 A 
ATOM     19  C   UNL     1       4.233   4.147  17.448  0.00  0.00    +0.000 A 
ATOM     20  C   UNL     1       4.465   5.438  16.970  0.00  0.00    +0.000 A 
ATOM     21  C   UNL     1       3.867   6.562  17.571  0.00  0.00    +0.000 A 
BRANCH  20  22
ATOM     22  S   UNL     1       5.533   5.654  15.570  0.00  0.00    +0.000 S 
ATOM     23  O   UNL     1       5.459   4.437  14.789  0.00  0.00    +0.000 OA
ATOM     24  O   UNL     1       5.275   6.947  14.979  0.00  0.00    +0.000 OA
BRANCH  22  25
ATOM     25  N   UNL     1       7.074   5.721  16.306  0.00  0.00    +0.000 NA
ATOM     26  C   UNL     1       7.432   4.598  17.216  0.00  0.00    +0.000 C 
ATOM     27  C   UNL     1       7.190   5.141  18.611  0.00  0.00    +0.000 C 
ATOM     28  C   UNL     1       7.548   6.611  18.504  0.00  0.00    +0.000 C 
ATOM     29  C   UNL     1       7.354   6.981  17.040  0.00  0.00    +0.000 C 
ENDBRANCH  22  25
ENDBRANCH  20  22
ENDBRANCH   3  16
TORSDOF 4
ENDMDL
MODEL 4
REMARK VINA RESULT:      -8.8      1.492      2.541
REMARK  Name = 
REMARK  5 active torsions:
REMARK  status: ('A' for Active; 'I' for Inactive)
REMARK    1  A    between atoms: C_1  and  C_2
REMARK    2  A    between atoms: C_4  and  C_5
REMARK    3  A    between atoms: N_7  and  C_8
REMARK    4  A    between atoms: C_12  and  S_13
REMARK    5  A    between atoms: S_13  and  N_16
REMARK                            x       y       z     vdW  Elec       q    Type
REMARK                         _______ _______ _______ _____ _____    ______ ____
ROOT
ATOM      1  C   UNL     1       1.946   7.437  19.886  0.00  0.00    +0.000 C 
ATOM      2  O   UNL     1       2.199   8.237  18.990  0.00  0.00    +0.000 OA
ATOM      3  N   UNL     1       1.103   7.679  20.967  0.00  0.00    +0.000 N 
ATOM      4  H   UNL     1       1.055   6.981  21.705  0.00  0.00    +0.000 HD
ENDROOT
BRANCH   1   8
ATOM      5  C   UNL     1       2.335   2.711  21.424  0.00  0.00    +0.000 C 
ATOM      6  C   UNL     1       2.713   3.835  20.509  0.00  0.00    +0.000 A 
ATOM      7  C   UNL     1       2.222   5.115  20.698  0.00  0.00    +0.000 A 
ATOM      8  C   UNL     1       2.598   6.105  19.789  0.00  0.00    +0.000 A 
ATOM      9  C   UNL     1       3.466   5.800  18.698  0.00  0.00    +0.000 A 
ATOM     10  C   UNL     1       3.928   6.717  17.708  0.00  0.00    +0.000 A 
ATOM     11  C   UNL     1       4.734   6.310  16.644  0.00  0.00    +0.000 A 
ATOM     12  C   UNL     1       5.107   4.981  16.547  0.00  0.00    +0.000 A 
ATOM     13  C   UNL     1       4.686   4.078  17.524  0.00  0.00    +0.000 A 
ATOM     14  C   UNL     1       3.881   4.457  18.591  0.00  0.00    +0.000 A 
ATOM     15  N   UNL     1       3.528   3.515  19.478  0.00  0.00    +0.000 NA
ENDBRANCH   1   8
BRANCH   3  16
ATOM     16  C   UNL     1       0.504   8.939  21.251  0.00  0.00    +0.000 A 
ATOM     17  C   UNL     1       0.397   9.437  22.556  0.00  0.00    +0.000 A 
ATOM     18  C   UNL     1      -0.401  10.537  22.863  0.00  0.00    +0.000 A 
ATOM     19  C   UNL     1      -1.037  11.228  21.840  0.00  0.00    +0.000 A 
ATOM     20  C   UNL     1      -0.795  10.846  20.519  0.00  0.00    +0.000 A 
ATOM     21  C   UNL     1      -0.052   9.691  20.213  0.00  0.00    +0.000 A 
BRANCH  20  22
ATOM     22  S   UNL     1      -1.438  11.852  19.207  0.00  0.00    +0.000 S 
ATOM     23  O   UNL     1      -2.256  12.876  19.820  0.00  0.00    +0.000 OA
ATOM     24  O   UNL     1      -0.361  12.186  18.302  0.00  0.00    +0.000 OA
BRANCH  22  25
ATOM     25  N   UNL     1      -2.472  10.759  18.395  0.00  0.00    +0.000 NA
ATOM     26  C   UNL     1      -1.980  10.205  17.104  0.00  0.00    +0.000 C 
ATOM     27  C   UNL     1      -2.681  11.026  16.040  0.00  0.00    +0.000 C 
ATOM     28  C   UNL     1      -4.037  11.336  16.646  0.00  0.00    +0.000 C 
ATOM     29  C   UNL     1      -3.844  11.270  18.154  0.00  0.00    +0.000 C 
ENDBRANCH  22  25
ENDBRANCH  20  22
ENDBRANCH   3  16
TORSDOF 4
ENDMDL
MODEL 5
REMARK VINA RESULT:      -8.8      3.263      8.322
REMARK  Name = 
REMARK  5 active torsions:
REMARK  status: ('A' for Active; 'I' for Inactive)
REMARK    1  A    between atoms: C_1  and  C_2
REMARK    2  A    between atoms: C_4  and  C_5
REMARK    3  A    between atoms: N_7  and  C_8
REMARK    4  A    between atoms: C_12  and  S_13
REMARK    5  A    between atoms: S_13  and  N_16
REMARK                            x       y       z     vdW  Elec       q    Type
REMARK                         _______ _______ _______ _____ _____    ______ ____
ROOT
ATOM      1  C   UNL     1       1.662   8.818  18.443  0.00  0.00    +0.000 C 
ATOM      2  O   UNL     1       0.942   8.577  17.479  0.00  0.00    +0.000 OA
ATOM      3  N   UNL     1       2.731   8.034  18.866  0.00  0.00    +0.000 N 
ATOM      4  H   UNL     1       3.188   8.274  19.742  0.00  0.00    +0.000 HD
ENDROOT
BRANCH   1   8
ATOM      5  C   UNL     1       1.357  13.791  18.638  0.00  0.00    +0.000 C 
ATOM      6  C   UNL     1       1.165  12.433  19.242  0.00  0.00    +0.000 A 
ATOM      7  C   UNL     1       1.594  11.288  18.593  0.00  0.00    +0.000 A 
ATOM      8  C   UNL     1       1.356  10.057  19.206  0.00  0.00    +0.000 A 
ATOM      9  C   UNL     1       0.690   9.987  20.466  0.00  0.00    +0.000 A 
ATOM     10  C   UNL     1       0.394   8.799  21.197  0.00  0.00    +0.000 A 
ATOM     11  C   UNL     1      -0.313   8.829  22.400  0.00  0.00    +0.000 A 
ATOM     12  C   UNL     1      -0.732  10.046  22.908  0.00  0.00    +0.000 A 
ATOM     13  C   UNL     1      -0.424  11.220  22.219  0.00  0.00    +0.000 A 
ATOM     14  C   UNL     1       0.275  11.216  21.019  0.00  0.00    +0.000 A 
ATOM     15  N   UNL     1       0.521  12.396  20.431  0.00  0.00    +0.000 NA
ENDBRANCH   1   8
BRANCH   3  16
ATOM     16  C   UNL     1       3.068   6.769  18.306  0.00  0.00    +0.000 A 
ATOM     17  C   UNL     1       2.475   5.578  18.745  0.00  0.00    +0.000 A 
ATOM     18  C   UNL     1       2.974   4.328  18.383  0.00  0.00    +0.000 A 
ATOM     19  C   UNL     1       4.030   4.247  17.486  0.00  0.00    +0.000 A 
ATOM     20  C   UNL     1       4.514   5.422  16.908  0.00  0.00    +0.000 A 
ATOM     21  C   UNL     1       4.063   6.687  17.329  0.00  0.00    +0.000 A 
BRANCH  20  22
ATOM     22  S   UNL     1       5.718   5.304  15.611  0.00  0.00    +0.000 S 
ATOM     23  O   UNL     1       5.668   3.948  15.108  0.00  0.00    +0.000 OA
ATOM     24  O   UNL     1       5.572   6.442  14.731  0.00  0.00    +0.000 OA
BRANCH  22  25
ATOM     25  N   UNL     1       7.184   5.501  16.468  0.00  0.00    +0.000 NA
ATOM     26  C   UNL     1       7.453   4.532  17.566  0.00  0.00    +0.000 C 
ATOM     27  C   UNL     1       7.083   5.275  18.834  0.00  0.00    +0.000 C 
ATOM     28  C   UNL     1       7.452   6.717  18.541  0.00  0.00    +0.000 C 
ATOM     29  C   UNL     1       7.396   6.860  17.027  0.00  0.00    +0.000 C 
ENDBRANCH  22  25
ENDBRANCH  20  22
ENDBRANCH   3  16
TORSDOF 4
ENDMDL
MODEL 6
REMARK VINA RESULT:      -8.7      1.092      1.164
REMARK  Name = 
REMARK  5 active torsions:
REMARK  status: ('A' for Active; 'I' for Inactive)
REMARK    1  A    between atoms: C_1  and  C_2
REMARK    2  A    between atoms: C_4  and  C_5
REMARK    3  A    between atoms: N_7  and  C_8
REMARK    4  A    between atoms: C_12  and  S_13
REMARK    5  A    between atoms: S_13  and  N_16
REMARK                            x       y       z     vdW  Elec       q    Type
REMARK                         _______ _______ _______ _____ _____    ______ ____
ROOT
ATOM      1  C   UNL     1       2.137   6.954  19.450  0.00  0.00    +0.000 C 
ATOM      2  O   UNL     1       1.833   6.516  20.556  0.00  0.00    +0.000 OA
ATOM      3  N   UNL     1       1.889   8.248  19.001  0.00  0.00    +0.000 N 
ATOM      4  H   UNL     1       2.088   8.465  18.028  0.00  0.00    +0.000 HD
ENDROOT
BRANCH   1   8
ATOM      5  C   UNL     1       5.905   5.967  16.339  0.00  0.00    +0.000 C 
ATOM      6  C   UNL     1       4.679   5.557  17.098  0.00  0.00    +0.000 A 
ATOM      7  C   UNL     1       3.945   6.473  17.829  0.00  0.00    +0.000 A 
ATOM      8  C   UNL     1       2.832   6.013  18.532  0.00  0.00    +0.000 A 
ATOM      9  C   UNL     1       2.464   4.635  18.493  0.00  0.00    +0.000 A 
ATOM     10  C   UNL     1       1.351   4.041  19.158  0.00  0.00    +0.000 A 
ATOM     11  C   UNL     1       1.105   2.668  19.103  0.00  0.00    +0.000 A 
ATOM     12  C   UNL     1       1.957   1.856  18.375  0.00  0.00    +0.000 A 
ATOM     13  C   UNL     1       3.034   2.427  17.696  0.00  0.00    +0.000 A 
ATOM     14  C   UNL     1       3.302   3.790  17.737  0.00  0.00    +0.000 A 
ATOM     15  N   UNL     1       4.361   4.243  17.052  0.00  0.00    +0.000 NA
ENDBRANCH   1   8
BRANCH   3  16
ATOM     16  C   UNL     1       1.136   9.217  19.723  0.00  0.00    +0.000 A 
ATOM     17  C   UNL     1       1.261   9.376  21.110  0.00  0.00    +0.000 A 
ATOM     18  C   UNL     1       0.358  10.138  21.848  0.00  0.00    +0.000 A 
ATOM     19  C   UNL     1      -0.642  10.842  21.191  0.00  0.00    +0.000 A 
ATOM     20  C   UNL     1      -0.667  10.831  19.796  0.00  0.00    +0.000 A 
ATOM     21  C   UNL     1       0.196  10.003  19.052  0.00  0.00    +0.000 A 
BRANCH  20  22
ATOM     22  S   UNL     1      -1.810  11.892  18.951  0.00  0.00    +0.000 S 
ATOM     23  O   UNL     1      -2.588  12.569  19.967  0.00  0.00    +0.000 OA
ATOM     24  O   UNL     1      -1.100  12.627  17.929  0.00  0.00    +0.000 OA
BRANCH  22  25
ATOM     25  N   UNL     1      -2.826  10.765  18.164  0.00  0.00    +0.000 NA
ATOM     26  C   UNL     1      -2.374  10.268  16.836  0.00  0.00    +0.000 C 
ATOM     27  C   UNL     1      -3.171  11.076  15.831  0.00  0.00    +0.000 C 
ATOM     28  C   UNL     1      -4.508  11.299  16.511  0.00  0.00    +0.000 C 
ATOM     29  C   UNL     1      -4.234  11.208  18.005  0.00  0.00    +0.000 C 
ENDBRANCH  22  25
ENDBRANCH  20  22
ENDBRANCH   3  16
TORSDOF 4
ENDMDL
MODEL 7
REMARK VINA RESULT:      -8.7      2.314      3.036
REMARK  Name = 
REMARK  5 active torsions:
REMARK  status: ('A' for Active; 'I' for Inactive)
REMARK    1  A    between atoms: C_1  and  C_2
REMARK    2  A    between atoms: C_4  and  C_5
REMARK    3  A    between atoms: N_7  and  C_8
REMARK    4  A    between atoms: C_12  and  S_13
REMARK    5  A    between atoms: S_13  and  N_16
REMARK                            x       y       z     vdW  Elec       q    Type
REMARK                         _______ _______ _______ _____ _____    ______ ____
ROOT
ATOM      1  C   UNL     1       2.382   7.421  18.483  0.00  0.00    +0.000 C 
ATOM      2  O   UNL     1       1.798   8.104  17.647  0.00  0.00    +0.000 OA
ATOM      3  N   UNL     1       2.212   7.516  19.862  0.00  0.00    +0.000 N 
ATOM      4  H   UNL     1       2.831   6.975  20.461  0.00  0.00    +0.000 HD
ENDROOT
BRANCH   1   8
ATOM      5  C   UNL     1       6.992   6.214  17.019  0.00  0.00    +0.000 C 
ATOM      6  C   UNL     1       5.570   5.856  17.327  0.00  0.00    +0.000 A 
ATOM      7  C   UNL     1       4.640   6.824  17.662  0.00  0.00    +0.000 A 
ATOM      8  C   UNL     1       3.341   6.411  17.963  0.00  0.00    +0.000 A 
ATOM      9  C   UNL     1       2.988   5.029  17.922  0.00  0.00    +0.000 A 
ATOM     10  C   UNL     1       1.702   4.481  18.199  0.00  0.00    +0.000 A 
ATOM     11  C   UNL     1       1.467   3.105  18.187  0.00  0.00    +0.000 A 
ATOM     12  C   UNL     1       2.508   2.244  17.887  0.00  0.00    +0.000 A 
ATOM     13  C   UNL     1       3.766   2.768  17.586  0.00  0.00    +0.000 A 
ATOM     14  C   UNL     1       4.025   4.133  17.594  0.00  0.00    +0.000 A 
ATOM     15  N   UNL     1       5.267   4.538  17.292  0.00  0.00    +0.000 NA
ENDBRANCH   1   8
BRANCH   3  16
ATOM     16  C   UNL     1       1.419   8.508  20.505  0.00  0.00    +0.000 A 
ATOM     17  C   UNL     1       0.668   8.231  21.656  0.00  0.00    +0.000 A 
ATOM     18  C   UNL     1      -0.294   9.115  22.138  0.00  0.00    +0.000 A 
ATOM     19  C   UNL     1      -0.456  10.351  21.527  0.00  0.00    +0.000 A 
ATOM     20  C   UNL     1       0.407  10.707  20.490  0.00  0.00    +0.000 A 
ATOM     21  C   UNL     1       1.327   9.788  19.952  0.00  0.00    +0.000 A 
BRANCH  20  22
ATOM     22  S   UNL     1       0.339  12.360  19.848  0.00  0.00    +0.000 S 
ATOM     23  O   UNL     1      -0.303  12.284  18.553  0.00  0.00    +0.000 OA
ATOM     24  O   UNL     1      -0.147  13.244  20.882  0.00  0.00    +0.000 OA
BRANCH  22  25
ATOM     25  N   UNL     1       1.994  12.714  19.603  0.00  0.00    +0.000 NA
ATOM     26  C   UNL     1       2.569  13.822  20.414  0.00  0.00    +0.000 C 
ATOM     27  C   UNL     1       2.592  15.013  19.477  0.00  0.00    +0.000 C 
ATOM     28  C   UNL     1       2.866  14.407  18.113  0.00  0.00    +0.000 C 
ATOM     29  C   UNL     1       2.367  12.971  18.190  0.00  0.00    +0.000 C 
ENDBRANCH  22  25
ENDBRANCH  20  22
ENDBRANCH   3  16
TORSDOF 4
ENDMDL
MODEL 8
REMARK VINA RESULT:      -8.7      2.269      3.386
REMARK  Name = 
REMARK  5 active torsions:
REMARK  status: ('A' for Active; 'I' for Inactive)
REMARK    1  A    between atoms: C_1  and  C_2
REMARK    2  A    between atoms: C_4  and  C_5
REMARK    3  A    between atoms: N_7  and  C_8
REMARK    4  A    between atoms: C_12  and  S_13
REMARK    5  A    between atoms: S_13  and  N_16
REMARK                            x       y       z     vdW  Elec       q    Type
REMARK                         _______ _______ _______ _____ _____    ______ ____
ROOT
ATOM      1  C   UNL     1       2.478   7.619  18.539  0.00  0.00    +0.000 C 
ATOM      2  O   UNL     1       2.229   7.491  19.734  0.00  0.00    +0.000 OA
ATOM      3  N   UNL     1       1.970   8.618  17.713  0.00  0.00    +0.000 N 
ATOM      4  H   UNL     1       2.158   8.560  16.716  0.00  0.00    +0.000 HD
ENDROOT
BRANCH   1   8
ATOM      5  C   UNL     1       7.022   6.411  16.882  0.00  0.00    +0.000 C 
ATOM      6  C   UNL     1       5.604   6.061  17.216  0.00  0.00    +0.000 A 
ATOM      7  C   UNL     1       4.700   7.026  17.623  0.00  0.00    +0.000 A 
ATOM      8  C   UNL     1       3.404   6.620  17.943  0.00  0.00    +0.000 A 
ATOM      9  C   UNL     1       3.027   5.247  17.850  0.00  0.00    +0.000 A 
ATOM     10  C   UNL     1       1.740   4.706  18.140  0.00  0.00    +0.000 A 
ATOM     11  C   UNL     1       1.482   3.336  18.071  0.00  0.00    +0.000 A 
ATOM     12  C   UNL     1       2.499   2.474  17.701  0.00  0.00    +0.000 A 
ATOM     13  C   UNL     1       3.756   2.991  17.386  0.00  0.00    +0.000 A 
ATOM     14  C   UNL     1       4.039   4.350  17.449  0.00  0.00    +0.000 A 
ATOM     15  N   UNL     1       5.278   4.751  17.129  0.00  0.00    +0.000 NA
ENDBRANCH   1   8
BRANCH   3  16
ATOM     16  C   UNL     1       0.989   9.568  18.115  0.00  0.00    +0.000 A 
ATOM     17  C   UNL     1      -0.351   9.470  17.718  0.00  0.00    +0.000 A 
ATOM     18  C   UNL     1      -1.252  10.518  17.897  0.00  0.00    +0.000 A 
ATOM     19  C   UNL     1      -0.847  11.661  18.573  0.00  0.00    +0.000 A 
ATOM     20  C   UNL     1       0.434  11.696  19.127  0.00  0.00    +0.000 A 
ATOM     21  C   UNL     1       1.368  10.673  18.882  0.00  0.00    +0.000 A 
BRANCH  20  22
ATOM     22  S   UNL     1       0.879  13.064  20.165  0.00  0.00    +0.000 S 
ATOM     23  O   UNL     1       1.741  12.542  21.205  0.00  0.00    +0.000 OA
ATOM     24  O   UNL     1       1.287  14.172  19.332  0.00  0.00    +0.000 OA
BRANCH  22  25
ATOM     25  N   UNL     1      -0.621  13.476  20.873  0.00  0.00    +0.000 NA
ATOM     26  C   UNL     1      -0.901  14.927  21.053  0.00  0.00    +0.000 C 
ATOM     27  C   UNL     1      -0.597  15.200  22.513  0.00  0.00    +0.000 C 
ATOM     28  C   UNL     1      -0.997  13.918  23.220  0.00  0.00    +0.000 C 
ATOM     29  C   UNL     1      -0.892  12.817  22.175  0.00  0.00    +0.000 C 
ENDBRANCH  22  25
ENDBRANCH  20  22
ENDBRANCH   3  16
TORSDOF 4
ENDMDL
MODEL 9
REMARK VINA RESULT:      -8.7      2.090      3.313
REMARK  Name = 
REMARK  5 active torsions:
REMARK  status: ('A' for Active; 'I' for Inactive)
REMARK    1  A    between atoms: C_1  and  C_2
REMARK    2  A    between atoms: C_4  and  C_5
REMARK    3  A    between atoms: N_7  and  C_8
REMARK    4  A    between atoms: C_12  and  S_13
REMARK    5  A    between atoms: S_13  and  N_16
REMARK                            x       y       z     vdW  Elec       q    Type
REMARK                         _______ _______ _______ _____ _____    ______ ____
ROOT
ATOM      1  C   UNL     1       2.498   7.562  18.548  0.00  0.00    +0.000 C 
ATOM      2  O   UNL     1       2.203   7.439  19.733  0.00  0.00    +0.000 OA
ATOM      3  N   UNL     1       2.055   8.582  17.710  0.00  0.00    +0.000 N 
ATOM      4  H   UNL     1       2.276   8.521  16.719  0.00  0.00    +0.000 HD
ENDROOT
BRANCH   1   8
ATOM      5  C   UNL     1       7.030   6.230  16.954  0.00  0.00    +0.000 C 
ATOM      6  C   UNL     1       5.602   5.915  17.283  0.00  0.00    +0.000 A 
ATOM      7  C   UNL     1       4.715   6.906  17.664  0.00  0.00    +0.000 A 
ATOM      8  C   UNL     1       3.409   6.533  17.980  0.00  0.00    +0.000 A 
ATOM      9  C   UNL     1       3.004   5.166  17.910  0.00  0.00    +0.000 A 
ATOM     10  C   UNL     1       1.704   4.657  18.200  0.00  0.00    +0.000 A 
ATOM     11  C   UNL     1       1.419   3.292  18.157  0.00  0.00    +0.000 A 
ATOM     12  C   UNL     1       2.422   2.402  17.812  0.00  0.00    +0.000 A 
ATOM     13  C   UNL     1       3.692   2.888  17.497  0.00  0.00    +0.000 A 
ATOM     14  C   UNL     1       4.001   4.242  17.537  0.00  0.00    +0.000 A 
ATOM     15  N   UNL     1       5.250   4.611  17.219  0.00  0.00    +0.000 NA
ENDBRANCH   1   8
BRANCH   3  16
ATOM     16  C   UNL     1       1.095   9.565  18.082  0.00  0.00    +0.000 A 
ATOM     17  C   UNL     1      -0.280   9.372  17.897  0.00  0.00    +0.000 A 
ATOM     18  C   UNL     1      -1.195  10.415  18.024  0.00  0.00    +0.000 A 
ATOM     19  C   UNL     1      -0.755  11.665  18.439  0.00  0.00    +0.000 A 
ATOM     20  C   UNL     1       0.585  11.822  18.795  0.00  0.00    +0.000 A 
ATOM     21  C   UNL     1       1.524  10.792  18.596  0.00  0.00    +0.000 A 
BRANCH  20  22
ATOM     22  S   UNL     1       1.104  13.355  19.521  0.00  0.00    +0.000 S 
ATOM     23  O   UNL     1       2.512  13.509  19.224  0.00  0.00    +0.000 OA
ATOM     24  O   UNL     1       0.144  14.381  19.184  0.00  0.00    +0.000 OA
BRANCH  22  25
ATOM     25  N   UNL     1       0.944  13.029  21.192  0.00  0.00    +0.000 NA
ATOM     26  C   UNL     1       0.007  11.938  21.575  0.00  0.00    +0.000 C 
ATOM     27  C   UNL     1      -1.259  12.651  22.007  0.00  0.00    +0.000 C 
ATOM     28  C   UNL     1      -0.761  13.934  22.647  0.00  0.00    +0.000 C 
ATOM     29  C   UNL     1       0.598  14.210  22.022  0.00  0.00    +0.000 C 
ENDBRANCH  22  25
ENDBRANCH  20  22
ENDBRANCH   3  16
TORSDOF 4
ENDMDL
