MODEL 1
REMARK VINA RESULT:      -8.4      0.000      0.000
REMARK  Name = 
REMARK  8 active torsions:
REMARK  status: ('A' for Active; 'I' for Inactive)
REMARK    1  A    between atoms: C_1  and  C_2
REMARK    2  A    between atoms: C_4  and  C_5
REMARK    3  A    between atoms: N_7  and  C_8
REMARK    4  A    between atoms: C_12  and  C_13
REMARK    5  A    between atoms: C_13  and  C_14
REMARK    6  A    between atoms: C_13  and  C_15
REMARK    7  A    between atoms: N_19  and  C_20
REMARK    8  A    between atoms: C_23  and  C_24
REMARK                            x       y       z     vdW  Elec       q    Type
REMARK                         _______ _______ _______ _____ _____    ______ ____
ROOT
ATOM      1  C   UNL     1       2.329   8.105  18.335  0.00  0.00    +0.000 C 
ATOM      2  O   UNL     1       3.009   8.555  17.421  0.00  0.00    +0.000 OA
ATOM      3  N   UNL     1       2.261   6.770  18.721  0.00  0.00    +0.000 N 
ATOM      4  H   UNL     1       1.569   6.549  19.431  0.00  0.00    +0.000 HD
ENDROOT
BRANCH   1   8
ATOM      5  C   UNL     1       0.063  12.512  18.695  0.00  0.00    +0.000 C 
ATOM      6  C   UNL     1       0.414  11.151  19.211  0.00  0.00    +0.000 A 
ATOM      7  C   UNL     1       1.227  10.302  18.511  0.00  0.00    +0.000 A 
ATOM      8  C   UNL     1       1.454   9.065  19.086  0.00  0.00    +0.000 A 
ATOM      9  N   UNL     1       0.928   8.664  20.269  0.00  0.00    +0.000 NA
ATOM     10  C   UNL     1       0.140   9.567  20.891  0.00  0.00    +0.000 A 
ATOM     11  N   UNL     1      -0.123  10.795  20.391  0.00  0.00    +0.000 NA
BRANCH  10  12
ATOM     12  C   UNL     1      -0.517   9.247  22.211  0.00  0.00    +0.000 C 
ATOM     13  C   UNL     1      -0.965  10.301  23.188  0.00  0.00    +0.000 C 
ATOM     14  C   UNL     1       0.276   9.513  23.477  0.00  0.00    +0.000 C 
ENDBRANCH  10  12
ENDBRANCH   1   8
BRANCH   3  15
ATOM     15  C   UNL     1       2.967   5.701  18.110  0.00  0.00    +0.000 A 
ATOM     16  C   UNL     1       2.350   4.499  17.748  0.00  0.00    +0.000 A 
ATOM     17  C   UNL     1       3.087   3.434  17.228  0.00  0.00    +0.000 A 
ATOM     18  C   UNL     1       4.456   3.567  17.031  0.00  0.00    +0.000 A 
ATOM     19  C   UNL     1       5.100   4.778  17.323  0.00  0.00    +0.000 A 
ATOM     20  C   UNL     1       4.342   5.842  17.867  0.00  0.00    +0.000 A 
BRANCH  19  21
ATOM     21  C   UNL     1       6.585   4.914  17.003  0.00  0.00    +0.000 C 
ATOM     22  C   UNL     1       6.814   4.695  15.499  0.00  0.00    +0.000 C 
BRANCH  21  23
ATOM     23  C   UNL     1       7.205   6.210  17.467  0.00  0.00    +0.000 A 
ATOM     24  N   UNL     1       7.274   7.321  16.752  0.00  0.00    +0.000 NA
ATOM     25  C   UNL     1       7.959   8.228  17.512  0.00  0.00    +0.000 A 
ATOM     26  C   UNL     1       8.311   7.679  18.717  0.00  0.00    +0.000 A 
ATOM     27  N   UNL     1       7.847   6.391  18.676  0.00  0.00    +0.000 N 
ATOM     28  C   UNL     1       8.039   5.420  19.726  0.00  0.00    +0.000 C 
ENDBRANCH  21  23
ENDBRANCH  19  21
ENDBRANCH   3  15
TORSDOF 5
ENDMDL
MODEL 2
REMARK VINA RESULT:      -8.3      0.809      2.336
REMARK  Name = 
REMARK  8 active torsions:
REMARK  status: ('A' for Active; 'I' for Inactive)
REMARK    1  A    between atoms: C_1  and  C_2
REMARK    2  A    between atoms: C_4  and  C_5
REMARK    3  A    between atoms: N_7  and  C_8
REMARK    4  A    between atoms: C_12  and  C_13
REMARK    5  A    between atoms: C_13  and  C_14
REMARK    6  A    between atoms: C_13  and  C_15
REMARK    7  A    between atoms: N_19  and  C_20
REMARK    8  A    between atoms: C_23  and  C_24
REMARK                            x       y       z     vdW  Elec       q    Type
REMARK                         _______ _______ _______ _____ _____    ______ ____
ROOT
ATOM      1  C   UNL     1       1.927   8.317  18.672  0.00  0.00    +0.000 C 
ATOM      2  O   UNL     1       2.099   8.696  17.520  0.00  0.00    +0.000 OA
ATOM      3  N   UNL     1       2.240   7.056  19.171  0.00  0.00    +0.000 N 
ATOM      4  H   UNL     1       1.939   6.869  20.123  0.00  0.00    +0.000 HD
ENDROOT
BRANCH   1   8
ATOM      5  C   UNL     1       0.031   9.331  23.151  0.00  0.00    +0.000 C 
ATOM      6  C   UNL     1       0.397   9.701  21.747  0.00  0.00    +0.000 A 
ATOM      7  C   UNL     1       0.971   8.801  20.891  0.00  0.00    +0.000 A 
ATOM      8  C   UNL     1       1.283   9.276  19.630  0.00  0.00    +0.000 A 
ATOM      9  N   UNL     1       1.059  10.545  19.213  0.00  0.00    +0.000 NA
ATOM     10  C   UNL     1       0.488  11.363  20.123  0.00  0.00    +0.000 A 
ATOM     11  N   UNL     1       0.152  10.969  21.372  0.00  0.00    +0.000 NA
BRANCH  10  12
ATOM     12  C   UNL     1       0.192  12.806  19.795  0.00  0.00    +0.000 C 
ATOM     13  C   UNL     1       0.416  13.405  18.433  0.00  0.00    +0.000 C 
ATOM     14  C   UNL     1       1.372  13.727  19.542  0.00  0.00    +0.000 C 
ENDBRANCH  10  12
ENDBRANCH   1   8
BRANCH   3  15
ATOM     15  C   UNL     1       2.805   5.992  18.421  0.00  0.00    +0.000 A 
ATOM     16  C   UNL     1       2.052   4.905  17.967  0.00  0.00    +0.000 A 
ATOM     17  C   UNL     1       2.652   3.832  17.306  0.00  0.00    +0.000 A 
ATOM     18  C   UNL     1       4.019   3.846  17.058  0.00  0.00    +0.000 A 
ATOM     19  C   UNL     1       4.798   4.947  17.442  0.00  0.00    +0.000 A 
ATOM     20  C   UNL     1       4.178   6.018  18.127  0.00  0.00    +0.000 A 
BRANCH  19  21
ATOM     21  C   UNL     1       6.277   4.965  17.067  0.00  0.00    +0.000 C 
ATOM     22  C   UNL     1       6.433   4.699  15.561  0.00  0.00    +0.000 C 
BRANCH  21  23
ATOM     23  C   UNL     1       7.007   6.221  17.479  0.00  0.00    +0.000 A 
ATOM     24  N   UNL     1       7.095   7.324  16.755  0.00  0.00    +0.000 NA
ATOM     25  C   UNL     1       7.887   8.187  17.459  0.00  0.00    +0.000 A 
ATOM     26  C   UNL     1       8.288   7.618  18.639  0.00  0.00    +0.000 A 
ATOM     27  N   UNL     1       7.743   6.361  18.638  0.00  0.00    +0.000 N 
ATOM     28  C   UNL     1       7.947   5.382  19.677  0.00  0.00    +0.000 C 
ENDBRANCH  21  23
ENDBRANCH  19  21
ENDBRANCH   3  15
TORSDOF 5
ENDMDL
MODEL 3
REMARK VINA RESULT:      -7.9      1.187      2.456
REMARK  Name = 
REMARK  8 active torsions:
REMARK  status: ('A' for Active; 'I' for Inactive)
REMARK    1  A    between atoms: C_1  and  C_2
REMARK    2  A    between atoms: C_4  and  C_5
REMARK    3  A    between atoms: N_7  and  C_8
REMARK    4  A    between atoms: C_12  and  C_13
REMARK    5  A    between atoms: C_13  and  C_14
REMARK    6  A    between atoms: C_13  and  C_15
REMARK    7  A    between atoms: N_19  and  C_20
REMARK    8  A    between atoms: C_23  and  C_24
REMARK                            x       y       z     vdW  Elec       q    Type
REMARK                         _______ _______ _______ _____ _____    ______ ____
ROOT
ATOM      1  C   UNL     1       1.759   7.293  19.957  0.00  0.00    +0.000 C 
ATOM      2  O   UNL     1       1.857   6.460  20.849  0.00  0.00    +0.000 OA
ATOM      3  N   UNL     1       2.185   7.134  18.642  0.00  0.00    +0.000 N 
ATOM      4  H   UNL     1       2.124   7.959  18.053  0.00  0.00    +0.000 HD
ENDROOT
BRANCH   1   8
ATOM      5  C   UNL     1      -0.767  10.200  23.096  0.00  0.00    +0.000 C 
ATOM      6  C   UNL     1      -0.030   9.948  21.817  0.00  0.00    +0.000 A 
ATOM      7  C   UNL     1       0.488   8.719  21.514  0.00  0.00    +0.000 A 
ATOM      8  C   UNL     1       1.167   8.625  20.313  0.00  0.00    +0.000 A 
ATOM      9  N   UNL     1       1.342   9.656  19.451  0.00  0.00    +0.000 NA
ATOM     10  C   UNL     1       0.796  10.831  19.831  0.00  0.00    +0.000 A 
ATOM     11  N   UNL     1       0.116  10.996  20.988  0.00  0.00    +0.000 NA
BRANCH  10  12
ATOM     12  C   UNL     1       0.925  12.063  18.971  0.00  0.00    +0.000 C 
ATOM     13  C   UNL     1       2.241  12.735  18.682  0.00  0.00    +0.000 C 
ATOM     14  C   UNL     1       1.294  13.367  19.657  0.00  0.00    +0.000 C 
ENDBRANCH  10  12
ENDBRANCH   1   8
BRANCH   3  15
ATOM     15  C   UNL     1       2.814   5.975  18.116  0.00  0.00    +0.000 A 
ATOM     16  C   UNL     1       2.115   4.794  17.846  0.00  0.00    +0.000 A 
ATOM     17  C   UNL     1       2.776   3.645  17.410  0.00  0.00    +0.000 A 
ATOM     18  C   UNL     1       4.150   3.668  17.206  0.00  0.00    +0.000 A 
ATOM     19  C   UNL     1       4.876   4.851  17.406  0.00  0.00    +0.000 A 
ATOM     20  C   UNL     1       4.195   6.002  17.865  0.00  0.00    +0.000 A 
BRANCH  19  21
ATOM     21  C   UNL     1       6.366   4.860  17.079  0.00  0.00    +0.000 C 
ATOM     22  C   UNL     1       6.572   4.545  15.588  0.00  0.00    +0.000 C 
BRANCH  21  23
ATOM     23  C   UNL     1       7.081   6.129  17.474  0.00  0.00    +0.000 A 
ATOM     24  N   UNL     1       7.239   7.189  16.698  0.00  0.00    +0.000 NA
ATOM     25  C   UNL     1       7.987   8.083  17.410  0.00  0.00    +0.000 A 
ATOM     26  C   UNL     1       8.292   7.578  18.647  0.00  0.00    +0.000 A 
ATOM     27  N   UNL     1       7.731   6.329  18.675  0.00  0.00    +0.000 N 
ATOM     28  C   UNL     1       7.843   5.408  19.780  0.00  0.00    +0.000 C 
ENDBRANCH  21  23
ENDBRANCH  19  21
ENDBRANCH   3  15
TORSDOF 5
ENDMDL
MODEL 4
REMARK VINA RESULT:      -7.9      1.203      2.421
REMARK  Name = 
REMARK  8 active torsions:
REMARK  status: ('A' for Active; 'I' for Inactive)
REMARK    1  A    between atoms: C_1  and  C_2
REMARK    2  A    between atoms: C_4  and  C_5
REMARK    3  A    between atoms: N_7  and  C_8
REMARK    4  A    between atoms: C_12  and  C_13
REMARK    5  A    between atoms: C_13  and  C_14
REMARK    6  A    between atoms: C_13  and  C_15
REMARK    7  A    between atoms: N_19  and  C_20
REMARK    8  A    between atoms: C_23  and  C_24
REMARK                            x       y       z     vdW  Elec       q    Type
REMARK                         _______ _______ _______ _____ _____    ______ ____
ROOT
ATOM      1  C   UNL     1       2.124   7.769  19.324  0.00  0.00    +0.000 C 
ATOM      2  O   UNL     1       2.450   7.919  18.153  0.00  0.00    +0.000 OA
ATOM      3  N   UNL     1       2.372   6.642  20.101  0.00  0.00    +0.000 N 
ATOM      4  H   UNL     1       1.944   6.637  21.023  0.00  0.00    +0.000 HD
ENDROOT
BRANCH   1   8
ATOM      5  C   UNL     1      -0.317   9.611  23.240  0.00  0.00    +0.000 C 
ATOM      6  C   UNL     1       0.207   9.694  21.840  0.00  0.00    +0.000 A 
ATOM      7  C   UNL     1       0.899   8.663  21.266  0.00  0.00    +0.000 A 
ATOM      8  C   UNL     1       1.350   8.876  19.976  0.00  0.00    +0.000 A 
ATOM      9  N   UNL     1       1.150  10.019  19.275  0.00  0.00    +0.000 NA
ATOM     10  C   UNL     1       0.456  10.982  19.920  0.00  0.00    +0.000 A 
ATOM     11  N   UNL     1      -0.018  10.843  21.178  0.00  0.00    +0.000 NA
BRANCH  10  12
ATOM     12  C   UNL     1       0.171  12.308  19.260  0.00  0.00    +0.000 C 
ATOM     13  C   UNL     1      -0.938  13.227  19.698  0.00  0.00    +0.000 C 
ATOM     14  C   UNL     1      -1.101  12.429  18.440  0.00  0.00    +0.000 C 
ENDBRANCH  10  12
ENDBRANCH   1   8
BRANCH   3  15
ATOM     15  C   UNL     1       3.041   5.470  19.661  0.00  0.00    +0.000 A 
ATOM     16  C   UNL     1       2.564   4.183  19.931  0.00  0.00    +0.000 A 
ATOM     17  C   UNL     1       3.289   3.050  19.559  0.00  0.00    +0.000 A 
ATOM     18  C   UNL     1       4.492   3.186  18.879  0.00  0.00    +0.000 A 
ATOM     19  C   UNL     1       4.972   4.459  18.535  0.00  0.00    +0.000 A 
ATOM     20  C   UNL     1       4.236   5.598  18.935  0.00  0.00    +0.000 A 
BRANCH  19  21
ATOM     21  C   UNL     1       6.248   4.561  17.706  0.00  0.00    +0.000 C 
ATOM     22  C   UNL     1       5.953   4.165  16.250  0.00  0.00    +0.000 C 
BRANCH  21  23
ATOM     23  C   UNL     1       6.931   5.906  17.779  0.00  0.00    +0.000 A 
ATOM     24  N   UNL     1       6.843   6.856  16.864  0.00  0.00    +0.000 NA
ATOM     25  C   UNL     1       7.653   7.874  17.284  0.00  0.00    +0.000 A 
ATOM     26  C   UNL     1       8.244   7.557  18.479  0.00  0.00    +0.000 A 
ATOM     27  N   UNL     1       7.797   6.298  18.780  0.00  0.00    +0.000 N 
ATOM     28  C   UNL     1       8.205   5.542  19.939  0.00  0.00    +0.000 C 
ENDBRANCH  21  23
ENDBRANCH  19  21
ENDBRANCH   3  15
TORSDOF 5
ENDMDL
MODEL 5
REMARK VINA RESULT:      -7.8      2.816      8.895
REMARK  Name = 
REMARK  8 active torsions:
REMARK  status: ('A' for Active; 'I' for Inactive)
REMARK    1  A    between atoms: C_1  and  C_2
REMARK    2  A    between atoms: C_4  and  C_5
REMARK    3  A    between atoms: N_7  and  C_8
REMARK    4  A    between atoms: C_12  and  C_13
REMARK    5  A    between atoms: C_13  and  C_14
REMARK    6  A    between atoms: C_13  and  C_15
REMARK    7  A    between atoms: N_19  and  C_20
REMARK    8  A    between atoms: C_23  and  C_24
REMARK                            x       y       z     vdW  Elec       q    Type
REMARK                         _______ _______ _______ _____ _____    ______ ____
ROOT
ATOM      1  C   UNL     1       2.374   7.643  18.653  0.00  0.00    +0.000 C 
ATOM      2  O   UNL     1       2.189   7.688  19.863  0.00  0.00    +0.000 OA
ATOM      3  N   UNL     1       2.094   8.661  17.747  0.00  0.00    +0.000 N 
ATOM      4  H   UNL     1       2.210   8.426  16.766  0.00  0.00    +0.000 HD
ENDROOT
BRANCH   1   8
ATOM      5  C   UNL     1       5.882   5.158  16.162  0.00  0.00    +0.000 C 
ATOM      6  C   UNL     1       4.580   5.242  16.898  0.00  0.00    +0.000 A 
ATOM      7  C   UNL     1       4.111   6.426  17.399  0.00  0.00    +0.000 A 
ATOM      8  C   UNL     1       2.908   6.364  18.079  0.00  0.00    +0.000 A 
ATOM      9  N   UNL     1       2.195   5.227  18.269  0.00  0.00    +0.000 NA
ATOM     10  C   UNL     1       2.733   4.108  17.739  0.00  0.00    +0.000 A 
ATOM     11  N   UNL     1       3.902   4.093  17.060  0.00  0.00    +0.000 NA
BRANCH  10  12
ATOM     12  C   UNL     1       2.049   2.771  17.887  0.00  0.00    +0.000 C 
ATOM     13  C   UNL     1       0.869   2.543  18.793  0.00  0.00    +0.000 C 
ATOM     14  C   UNL     1       2.218   2.034  19.203  0.00  0.00    +0.000 C 
ENDBRANCH  10  12
ENDBRANCH   1   8
BRANCH   3  15
ATOM     15  C   UNL     1       1.540   9.925  18.077  0.00  0.00    +0.000 A 
ATOM     16  C   UNL     1       2.305  11.095  18.129  0.00  0.00    +0.000 A 
ATOM     17  C   UNL     1       1.749  12.307  18.540  0.00  0.00    +0.000 A 
ATOM     18  C   UNL     1       0.402  12.376  18.875  0.00  0.00    +0.000 A 
ATOM     19  C   UNL     1      -0.412  11.239  18.774  0.00  0.00    +0.000 A 
ATOM     20  C   UNL     1       0.170  10.014  18.374  0.00  0.00    +0.000 A 
BRANCH  19  21
ATOM     21  C   UNL     1      -1.905  11.379  19.059  0.00  0.00    +0.000 C 
ATOM     22  C   UNL     1      -2.165  12.679  19.836  0.00  0.00    +0.000 C 
BRANCH  21  23
ATOM     23  C   UNL     1      -2.782  11.288  17.834  0.00  0.00    +0.000 A 
ATOM     24  N   UNL     1      -2.347  11.131  16.595  0.00  0.00    +0.000 NA
ATOM     25  C   UNL     1      -3.451  11.161  15.790  0.00  0.00    +0.000 A 
ATOM     26  C   UNL     1      -4.587  11.329  16.538  0.00  0.00    +0.000 A 
ATOM     27  N   UNL     1      -4.155  11.429  17.834  0.00  0.00    +0.000 N 
ATOM     28  C   UNL     1      -5.017  11.663  18.967  0.00  0.00    +0.000 C 
ENDBRANCH  21  23
ENDBRANCH  19  21
ENDBRANCH   3  15
TORSDOF 5
ENDMDL
MODEL 6
REMARK VINA RESULT:      -7.8      2.446      8.910
REMARK  Name = 
REMARK  8 active torsions:
REMARK  status: ('A' for Active; 'I' for Inactive)
REMARK    1  A    between atoms: C_1  and  C_2
REMARK    2  A    between atoms: C_4  and  C_5
REMARK    3  A    between atoms: N_7  and  C_8
REMARK    4  A    between atoms: C_12  and  C_13
REMARK    5  A    between atoms: C_13  and  C_14
REMARK    6  A    between atoms: C_13  and  C_15
REMARK    7  A    between atoms: N_19  and  C_20
REMARK    8  A    between atoms: C_23  and  C_24
REMARK                            x       y       z     vdW  Elec       q    Type
REMARK                         _______ _______ _______ _____ _____    ______ ____
ROOT
ATOM      1  C   UNL     1       1.719   7.540  20.092  0.00  0.00    +0.000 C 
ATOM      2  O   UNL     1       2.071   8.372  19.265  0.00  0.00    +0.000 OA
ATOM      3  N   UNL     1       0.858   7.767  21.160  0.00  0.00    +0.000 N 
ATOM      4  H   UNL     1       0.749   6.996  21.814  0.00  0.00    +0.000 HD
ENDROOT
BRANCH   1   8
ATOM      5  C   UNL     1       1.822   2.770  21.479  0.00  0.00    +0.000 C 
ATOM      6  C   UNL     1       2.309   3.930  20.666  0.00  0.00    +0.000 A 
ATOM      7  C   UNL     1       1.773   5.181  20.803  0.00  0.00    +0.000 A 
ATOM      8  C   UNL     1       2.296   6.160  19.977  0.00  0.00    +0.000 A 
ATOM      9  N   UNL     1       3.278   5.949  19.067  0.00  0.00    +0.000 NA
ATOM     10  C   UNL     1       3.748   4.684  19.003  0.00  0.00    +0.000 A 
ATOM     11  N   UNL     1       3.289   3.678  19.781  0.00  0.00    +0.000 NA
BRANCH  10  12
ATOM     12  C   UNL     1       4.835   4.308  18.027  0.00  0.00    +0.000 C 
ATOM     13  C   UNL     1       5.405   5.266  17.015  0.00  0.00    +0.000 C 
ATOM     14  C   UNL     1       4.459   4.196  16.561  0.00  0.00    +0.000 C 
ENDBRANCH  10  12
ENDBRANCH   1   8
BRANCH   3  15
ATOM     15  C   UNL     1       0.247   9.008  21.476  0.00  0.00    +0.000 A 
ATOM     16  C   UNL     1      -0.096   9.371  22.782  0.00  0.00    +0.000 A 
ATOM     17  C   UNL     1      -0.773  10.561  23.050  0.00  0.00    +0.000 A 
ATOM     18  C   UNL     1      -1.091  11.429  22.013  0.00  0.00    +0.000 A 
ATOM     19  C   UNL     1      -0.709  11.130  20.697  0.00  0.00    +0.000 A 
ATOM     20  C   UNL     1      -0.039   9.911  20.439  0.00  0.00    +0.000 A 
BRANCH  19  21
ATOM     21  C   UNL     1      -0.992  12.153  19.601  0.00  0.00    +0.000 C 
ATOM     22  C   UNL     1       0.308  12.486  18.853  0.00  0.00    +0.000 C 
BRANCH  21  23
ATOM     23  C   UNL     1      -2.088  11.750  18.643  0.00  0.00    +0.000 A 
ATOM     24  N   UNL     1      -1.897  11.220  17.447  0.00  0.00    +0.000 NA
ATOM     25  C   UNL     1      -3.135  11.064  16.890  0.00  0.00    +0.000 A 
ATOM     26  C   UNL     1      -4.108  11.494  17.754  0.00  0.00    +0.000 A 
ATOM     27  N   UNL     1      -3.437  11.947  18.858  0.00  0.00    +0.000 N 
ATOM     28  C   UNL     1      -4.068  12.540  20.012  0.00  0.00    +0.000 C 
ENDBRANCH  21  23
ENDBRANCH  19  21
ENDBRANCH   3  15
TORSDOF 5
ENDMDL
MODEL 7
REMARK VINA RESULT:      -7.8      2.180      8.361
REMARK  Name = 
REMARK  8 active torsions:
REMARK  status: ('A' for Active; 'I' for Inactive)
REMARK    1  A    between atoms: C_1  and  C_2
REMARK    2  A    between atoms: C_4  and  C_5
REMARK    3  A    between atoms: N_7  and  C_8
REMARK    4  A    between atoms: C_12  and  C_13
REMARK    5  A    between atoms: C_13  and  C_14
REMARK    6  A    between atoms: C_13  and  C_15
REMARK    7  A    between atoms: N_19  and  C_20
REMARK    8  A    between atoms: C_23  and  C_24
REMARK                            x       y       z     vdW  Elec       q    Type
REMARK                         _______ _______ _______ _____ _____    ______ ____
ROOT
ATOM      1  C   UNL     1       2.276   5.905  20.188  0.00  0.00    +0.000 C 
ATOM      2  O   UNL     1       1.291   5.399  20.712  0.00  0.00    +0.000 OA
ATOM      3  N   UNL     1       2.487   7.266  19.995  0.00  0.00    +0.000 N 
ATOM      4  H   UNL     1       3.309   7.515  19.451  0.00  0.00    +0.000 HD
ENDROOT
BRANCH   1   8
ATOM      5  C   UNL     1       3.713   1.398  18.670  0.00  0.00    +0.000 C 
ATOM      6  C   UNL     1       3.964   2.844  18.965  0.00  0.00    +0.000 A 
ATOM      7  C   UNL     1       2.981   3.660  19.456  0.00  0.00    +0.000 A 
ATOM      8  C   UNL     1       3.335   4.981  19.663  0.00  0.00    +0.000 A 
ATOM      9  N   UNL     1       4.564   5.492  19.411  0.00  0.00    +0.000 NA
ATOM     10  C   UNL     1       5.471   4.614  18.930  0.00  0.00    +0.000 A 
ATOM     11  N   UNL     1       5.198   3.309  18.706  0.00  0.00    +0.000 NA
BRANCH  10  12
ATOM     12  C   UNL     1       6.876   5.052  18.596  0.00  0.00    +0.000 C 
ATOM     13  C   UNL     1       7.226   6.454  18.176  0.00  0.00    +0.000 C 
ATOM     14  C   UNL     1       7.189   5.367  17.144  0.00  0.00    +0.000 C 
ENDBRANCH  10  12
ENDBRANCH   1   8
BRANCH   3  15
ATOM     15  C   UNL     1       1.590   8.299  20.370  0.00  0.00    +0.000 A 
ATOM     16  C   UNL     1       1.188   8.506  21.694  0.00  0.00    +0.000 A 
ATOM     17  C   UNL     1       0.237   9.475  22.020  0.00  0.00    +0.000 A 
ATOM     18  C   UNL     1      -0.304  10.280  21.025  0.00  0.00    +0.000 A 
ATOM     19  C   UNL     1       0.120  10.145  19.695  0.00  0.00    +0.000 A 
ATOM     20  C   UNL     1       1.070   9.146  19.378  0.00  0.00    +0.000 A 
BRANCH  19  21
ATOM     21  C   UNL     1      -0.428  11.112  18.650  0.00  0.00    +0.000 C 
ATOM     22  C   UNL     1      -1.929  10.856  18.444  0.00  0.00    +0.000 C 
BRANCH  21  23
ATOM     23  C   UNL     1      -0.156  12.567  18.946  0.00  0.00    +0.000 A 
ATOM     24  N   UNL     1      -1.059  13.444  19.353  0.00  0.00    +0.000 NA
ATOM     25  C   UNL     1      -0.418  14.647  19.443  0.00  0.00    +0.000 A 
ATOM     26  C   UNL     1       0.902  14.516  19.098  0.00  0.00    +0.000 A 
ATOM     27  N   UNL     1       1.058  13.197  18.764  0.00  0.00    +0.000 N 
ATOM     28  C   UNL     1       2.290  12.615  18.289  0.00  0.00    +0.000 C 
ENDBRANCH  21  23
ENDBRANCH  19  21
ENDBRANCH   3  15
TORSDOF 5
ENDMDL
MODEL 8
REMARK VINA RESULT:      -7.8      2.735      9.115
REMARK  Name = 
REMARK  8 active torsions:
REMARK  status: ('A' for Active; 'I' for Inactive)
REMARK    1  A    between atoms: C_1  and  C_2
REMARK    2  A    between atoms: C_4  and  C_5
REMARK    3  A    between atoms: N_7  and  C_8
REMARK    4  A    between atoms: C_12  and  C_13
REMARK    5  A    between atoms: C_13  and  C_14
REMARK    6  A    between atoms: C_13  and  C_15
REMARK    7  A    between atoms: N_19  and  C_20
REMARK    8  A    between atoms: C_23  and  C_24
REMARK                            x       y       z     vdW  Elec       q    Type
REMARK                         _______ _______ _______ _____ _____    ______ ____
ROOT
ATOM      1  C   UNL     1       2.321   7.305  18.796  0.00  0.00    +0.000 C 
ATOM      2  O   UNL     1       2.238   7.466  20.008  0.00  0.00    +0.000 OA
ATOM      3  N   UNL     1       2.014   8.254  17.826  0.00  0.00    +0.000 N 
ATOM      4  H   UNL     1       2.038   7.928  16.864  0.00  0.00    +0.000 HD
ENDROOT
BRANCH   1   8
ATOM      5  C   UNL     1       1.527   2.423  18.329  0.00  0.00    +0.000 C 
ATOM      6  C   UNL     1       2.334   3.666  18.114  0.00  0.00    +0.000 A 
ATOM      7  C   UNL     1       1.925   4.882  18.589  0.00  0.00    +0.000 A 
ATOM      8  C   UNL     1       2.749   5.955  18.302  0.00  0.00    +0.000 A 
ATOM      9  N   UNL     1       3.903   5.867  17.596  0.00  0.00    +0.000 NA
ATOM     10  C   UNL     1       4.229   4.628  17.169  0.00  0.00    +0.000 A 
ATOM     11  N   UNL     1       3.475   3.533  17.414  0.00  0.00    +0.000 NA
BRANCH  10  12
ATOM     12  C   UNL     1       5.481   4.388  16.363  0.00  0.00    +0.000 C 
ATOM     13  C   UNL     1       6.270   5.494  15.714  0.00  0.00    +0.000 C 
ATOM     14  C   UNL     1       5.408   4.610  14.863  0.00  0.00    +0.000 C 
ENDBRANCH  10  12
ENDBRANCH   1   8
BRANCH   3  15
ATOM     15  C   UNL     1       1.545   9.569  18.081  0.00  0.00    +0.000 A 
ATOM     16  C   UNL     1       2.386  10.687  18.063  0.00  0.00    +0.000 A 
ATOM     17  C   UNL     1       1.912  11.955  18.402  0.00  0.00    +0.000 A 
ATOM     18  C   UNL     1       0.575  12.132  18.733  0.00  0.00    +0.000 A 
ATOM     19  C   UNL     1      -0.313  11.047  18.701  0.00  0.00    +0.000 A 
ATOM     20  C   UNL     1       0.186   9.765  18.374  0.00  0.00    +0.000 A 
BRANCH  19  21
ATOM     21  C   UNL     1      -1.792  11.301  18.978  0.00  0.00    +0.000 C 
ATOM     22  C   UNL     1      -1.960  12.647  19.700  0.00  0.00    +0.000 C 
BRANCH  21  23
ATOM     23  C   UNL     1      -2.676  11.221  17.757  0.00  0.00    +0.000 A 
ATOM     24  N   UNL     1      -2.249  11.051  16.516  0.00  0.00    +0.000 NA
ATOM     25  C   UNL     1      -3.355  11.098  15.716  0.00  0.00    +0.000 A 
ATOM     26  C   UNL     1      -4.485  11.290  16.467  0.00  0.00    +0.000 A 
ATOM     27  N   UNL     1      -4.046  11.387  17.761  0.00  0.00    +0.000 N 
ATOM     28  C   UNL     1      -4.899  11.642  18.896  0.00  0.00    +0.000 C 
ENDBRANCH  21  23
ENDBRANCH  19  21
ENDBRANCH   3  15
TORSDOF 5
ENDMDL
MODEL 9
REMARK VINA RESULT:      -7.7      3.059      9.149
REMARK  Name = 
REMARK  8 active torsions:
REMARK  status: ('A' for Active; 'I' for Inactive)
REMARK    1  A    between atoms: C_1  and  C_2
REMARK    2  A    between atoms: C_4  and  C_5
REMARK    3  A    between atoms: N_7  and  C_8
REMARK    4  A    between atoms: C_12  and  C_13
REMARK    5  A    between atoms: C_13  and  C_14
REMARK    6  A    between atoms: C_13  and  C_15
REMARK    7  A    between atoms: N_19  and  C_20
REMARK    8  A    between atoms: C_23  and  C_24
REMARK                            x       y       z     vdW  Elec       q    Type
REMARK                         _______ _______ _______ _____ _____    ______ ____
ROOT
ATOM      1  C   UNL     1       2.145   8.290  18.202  0.00  0.00    +0.000 C 
ATOM      2  O   UNL     1       2.432   8.649  17.067  0.00  0.00    +0.000 OA
ATOM      3  N   UNL     1       1.311   8.969  19.085  0.00  0.00    +0.000 N 
ATOM      4  H   UNL     1       1.258   8.589  20.026  0.00  0.00    +0.000 HD
ENDROOT
BRANCH   1   8
ATOM      5  C   UNL     1       5.876   5.009  18.176  0.00  0.00    +0.000 C 
ATOM      6  C   UNL     1       4.551   5.513  18.660  0.00  0.00    +0.000 A 
ATOM      7  C   UNL     1       3.992   6.660  18.165  0.00  0.00    +0.000 A 
ATOM      8  C   UNL     1       2.777   7.029  18.713  0.00  0.00    +0.000 A 
ATOM      9  N   UNL     1       2.134   6.337  19.685  0.00  0.00    +0.000 NA
ATOM     10  C   UNL     1       2.759   5.218  20.111  0.00  0.00    +0.000 A 
ATOM     11  N   UNL     1       3.945   4.793  19.620  0.00  0.00    +0.000 NA
BRANCH  10  12
ATOM     12  C   UNL     1       2.159   4.358  21.196  0.00  0.00    +0.000 C 
ATOM     13  C   UNL     1       2.454   2.889  21.344  0.00  0.00    +0.000 C 
ATOM     14  C   UNL     1       1.131   3.319  20.785  0.00  0.00    +0.000 C 
ENDBRANCH  10  12
ENDBRANCH   1   8
BRANCH   3  15
ATOM     15  C   UNL     1       0.657  10.200  18.817  0.00  0.00    +0.000 A 
ATOM     16  C   UNL     1       1.311  11.433  18.893  0.00  0.00    +0.000 A 
ATOM     17  C   UNL     1       0.621  12.632  18.708  0.00  0.00    +0.000 A 
ATOM     18  C   UNL     1      -0.736  12.614  18.410  0.00  0.00    +0.000 A 
ATOM     19  C   UNL     1      -1.413  11.395  18.263  0.00  0.00    +0.000 A 
ATOM     20  C   UNL     1      -0.704  10.189  18.472  0.00  0.00    +0.000 A 
BRANCH  19  21
ATOM     21  C   UNL     1      -2.879  11.417  17.842  0.00  0.00    +0.000 C 
ATOM     22  C   UNL     1      -3.333   9.997  17.470  0.00  0.00    +0.000 C 
BRANCH  21  23
ATOM     23  C   UNL     1      -3.808  12.041  18.856  0.00  0.00    +0.000 A 
ATOM     24  N   UNL     1      -3.527  12.223  20.136  0.00  0.00    +0.000 NA
ATOM     25  C   UNL     1      -4.650  12.754  20.706  0.00  0.00    +0.000 A 
ATOM     26  C   UNL     1      -5.637  12.912  19.770  0.00  0.00    +0.000 A 
ATOM     27  N   UNL     1      -5.104  12.439  18.600  0.00  0.00    +0.000 N 
ATOM     28  C   UNL     1      -5.817  12.368  17.347  0.00  0.00    +0.000 C 
ENDBRANCH  21  23
ENDBRANCH  19  21
ENDBRANCH   3  15
TORSDOF 5
ENDMDL
