MODEL 1
REMARK VINA RESULT:      -8.6      0.000      0.000
REMARK  Name = 
REMARK  3 active torsions:
REMARK  status: ('A' for Active; 'I' for Inactive)
REMARK    1  A    between atoms: C_2  and  C_14
REMARK    2  A    between atoms: N_3  and  C_4
REMARK    3  A    between atoms: C_18  and  N_19
REMARK                            x       y       z     vdW  Elec       q    Type
REMARK                         _______ _______ _______ _____ _____    ______ ____
ROOT
ATOM      1  O   UNL     1       1.198   5.745  20.970  0.00  0.00    +0.000 OA
ATOM      2  C   UNL     1       1.833   6.274  20.066  0.00  0.00    +0.000 C 
ATOM      3  N   UNL     1       1.891   7.629  19.791  0.00  0.00    +0.000 N 
ATOM      4  H   UNL     1       2.305   7.917  18.914  0.00  0.00    +0.000 HD
ENDROOT
BRANCH   3   5
ATOM      5  C   UNL     1       1.253   8.642  20.541  0.00  0.00    +0.000 A 
ATOM      6  C   UNL     1       1.403   8.825  21.910  0.00  0.00    +0.000 A 
ATOM      7  N   UNL     1       0.768   9.786  22.628  0.00  0.00    +0.000 NA
ATOM      8  C   UNL     1      -0.077  10.599  21.982  0.00  0.00    +0.000 A 
ATOM      9  C   UNL     1      -0.769  11.562  22.701  0.00  0.00    +0.000 A 
ATOM     10  C   UNL     1      -1.681  12.423  22.086  0.00  0.00    +0.000 A 
ATOM     11  C   UNL     1      -1.908  12.325  20.718  0.00  0.00    +0.000 A 
ATOM     12  C   UNL     1      -1.217  11.374  19.969  0.00  0.00    +0.000 A 
ATOM     13  C   UNL     1      -0.301  10.506  20.592  0.00  0.00    +0.000 A 
ATOM     14  C   UNL     1       0.400   9.521  19.875  0.00  0.00    +0.000 A 
ENDBRANCH   3   5
BRANCH   2  15
ATOM     15  C   UNL     1       2.554   5.394  19.108  0.00  0.00    +0.000 A 
ATOM     16  C   UNL     1       1.794   4.589  18.253  0.00  0.00    +0.000 A 
ATOM     17  C   UNL     1       2.423   3.756  17.328  0.00  0.00    +0.000 A 
ATOM     18  C   UNL     1       3.816   3.727  17.245  0.00  0.00    +0.000 A 
ATOM     19  C   UNL     1       4.585   4.530  18.101  0.00  0.00    +0.000 A 
ATOM     20  C   UNL     1       3.952   5.350  19.050  0.00  0.00    +0.000 A 
BRANCH  19  21
ATOM     21  N   UNL     1       5.997   4.544  18.006  0.00  0.00    +0.000 N 
ATOM     22  C   UNL     1       6.804   4.349  16.914  0.00  0.00    +0.000 A 
ATOM     23  N   UNL     1       8.059   4.504  17.268  0.00  0.00    +0.000 NA
ATOM     24  N   UNL     1       8.035   4.797  18.605  0.00  0.00    +0.000 NA
ATOM     25  N   UNL     1       6.791   4.827  19.064  0.00  0.00    +0.000 NA
ENDBRANCH  19  21
ENDBRANCH   2  15
TORSDOF 3
ENDMDL
MODEL 2
REMARK VINA RESULT:      -8.6      1.188      1.211
REMARK  Name = 
REMARK  3 active torsions:
REMARK  status: ('A' for Active; 'I' for Inactive)
REMARK    1  A    between atoms: C_2  and  C_14
REMARK    2  A    between atoms: N_3  and  C_4
REMARK    3  A    between atoms: C_18  and  N_19
REMARK                            x       y       z     vdW  Elec       q    Type
REMARK                         _______ _______ _______ _____ _____    ______ ____
ROOT
ATOM      1  O   UNL     1       2.471   8.128  18.740  0.00  0.00    +0.000 OA
ATOM      2  C   UNL     1       2.340   7.281  19.614  0.00  0.00    +0.000 C 
ATOM      3  N   UNL     1       1.691   7.448  20.825  0.00  0.00    +0.000 N 
ATOM      4  H   UNL     1       1.808   6.730  21.528  0.00  0.00    +0.000 HD
ENDROOT
BRANCH   3   5
ATOM      5  C   UNL     1       1.031   8.625  21.241  0.00  0.00    +0.000 A 
ATOM      6  C   UNL     1       1.042   9.121  22.540  0.00  0.00    +0.000 A 
ATOM      7  N   UNL     1       0.385  10.240  22.938  0.00  0.00    +0.000 NA
ATOM      8  C   UNL     1      -0.340  10.901  22.026  0.00  0.00    +0.000 A 
ATOM      9  C   UNL     1      -1.053  12.025  22.418  0.00  0.00    +0.000 A 
ATOM     10  C   UNL     1      -1.845  12.742  21.519  0.00  0.00    +0.000 A 
ATOM     11  C   UNL     1      -1.928  12.332  20.193  0.00  0.00    +0.000 A 
ATOM     12  C   UNL     1      -1.212  11.213  19.770  0.00  0.00    +0.000 A 
ATOM     13  C   UNL     1      -0.417  10.491  20.679  0.00  0.00    +0.000 A 
ATOM     14  C   UNL     1       0.304   9.346  20.296  0.00  0.00    +0.000 A 
ENDBRANCH   3   5
BRANCH   2  15
ATOM     15  C   UNL     1       2.999   5.962  19.418  0.00  0.00    +0.000 A 
ATOM     16  C   UNL     1       2.339   4.820  19.884  0.00  0.00    +0.000 A 
ATOM     17  C   UNL     1       2.911   3.560  19.713  0.00  0.00    +0.000 A 
ATOM     18  C   UNL     1       4.143   3.429  19.070  0.00  0.00    +0.000 A 
ATOM     19  C   UNL     1       4.812   4.571  18.602  0.00  0.00    +0.000 A 
ATOM     20  C   UNL     1       4.248   5.843  18.796  0.00  0.00    +0.000 A 
BRANCH  19  21
ATOM     21  N   UNL     1       6.042   4.457  17.912  0.00  0.00    +0.000 N 
ATOM     22  C   UNL     1       6.290   4.425  16.563  0.00  0.00    +0.000 A 
ATOM     23  N   UNL     1       7.586   4.365  16.362  0.00  0.00    +0.000 NA
ATOM     24  N   UNL     1       8.156   4.356  17.606  0.00  0.00    +0.000 NA
ATOM     25  N   UNL     1       7.231   4.414  18.554  0.00  0.00    +0.000 NA
ENDBRANCH  19  21
ENDBRANCH   2  15
TORSDOF 3
ENDMDL
MODEL 3
REMARK VINA RESULT:      -8.5      1.135      1.251
REMARK  Name = 
REMARK  3 active torsions:
REMARK  status: ('A' for Active; 'I' for Inactive)
REMARK    1  A    between atoms: C_2  and  C_14
REMARK    2  A    between atoms: N_3  and  C_4
REMARK    3  A    between atoms: C_18  and  N_19
REMARK                            x       y       z     vdW  Elec       q    Type
REMARK                         _______ _______ _______ _____ _____    ______ ____
ROOT
ATOM      1  O   UNL     1       1.405   5.799  20.850  0.00  0.00    +0.000 OA
ATOM      2  C   UNL     1       1.958   6.406  19.941  0.00  0.00    +0.000 C 
ATOM      3  N   UNL     1       1.906   7.771  19.717  0.00  0.00    +0.000 N 
ATOM      4  H   UNL     1       2.257   8.120  18.834  0.00  0.00    +0.000 HD
ENDROOT
BRANCH   3   5
ATOM      5  C   UNL     1       1.233   8.706  20.533  0.00  0.00    +0.000 A 
ATOM      6  C   UNL     1       1.345   8.773  21.917  0.00  0.00    +0.000 A 
ATOM      7  N   UNL     1       0.675   9.659  22.697  0.00  0.00    +0.000 NA
ATOM      8  C   UNL     1      -0.165  10.513  22.100  0.00  0.00    +0.000 A 
ATOM      9  C   UNL     1      -0.891  11.401  22.881  0.00  0.00    +0.000 A 
ATOM     10  C   UNL     1      -1.800  12.299  22.317  0.00  0.00    +0.000 A 
ATOM     11  C   UNL     1      -1.991  12.317  20.940  0.00  0.00    +0.000 A 
ATOM     12  C   UNL     1      -1.265  11.444  20.131  0.00  0.00    +0.000 A 
ATOM     13  C   UNL     1      -0.352  10.538  20.702  0.00  0.00    +0.000 A 
ATOM     14  C   UNL     1       0.384   9.628  19.922  0.00  0.00    +0.000 A 
ENDBRANCH   3   5
BRANCH   2  15
ATOM     15  C   UNL     1       2.695   5.617  18.917  0.00  0.00    +0.000 A 
ATOM     16  C   UNL     1       2.112   4.433  18.453  0.00  0.00    +0.000 A 
ATOM     17  C   UNL     1       2.757   3.665  17.485  0.00  0.00    +0.000 A 
ATOM     18  C   UNL     1       3.987   4.076  16.968  0.00  0.00    +0.000 A 
ATOM     19  C   UNL     1       4.579   5.261  17.431  0.00  0.00    +0.000 A 
ATOM     20  C   UNL     1       3.941   6.022  18.425  0.00  0.00    +0.000 A 
BRANCH  19  21
ATOM     21  N   UNL     1       5.806   5.716  16.892  0.00  0.00    +0.000 N 
ATOM     22  C   UNL     1       6.575   6.793  17.254  0.00  0.00    +0.000 A 
ATOM     23  N   UNL     1       7.665   6.813  16.520  0.00  0.00    +0.000 NA
ATOM     24  N   UNL     1       7.571   5.732  15.685  0.00  0.00    +0.000 NA
ATOM     25  N   UNL     1       6.451   5.058  15.902  0.00  0.00    +0.000 NA
ENDBRANCH  19  21
ENDBRANCH   2  15
TORSDOF 3
ENDMDL
MODEL 4
REMARK VINA RESULT:      -8.5      2.636      3.066
REMARK  Name = 
REMARK  3 active torsions:
REMARK  status: ('A' for Active; 'I' for Inactive)
REMARK    1  A    between atoms: C_2  and  C_14
REMARK    2  A    between atoms: N_3  and  C_4
REMARK    3  A    between atoms: C_18  and  N_19
REMARK                            x       y       z     vdW  Elec       q    Type
REMARK                         _______ _______ _______ _____ _____    ______ ____
ROOT
ATOM      1  O   UNL     1       1.987   7.720  19.961  0.00  0.00    +0.000 OA
ATOM      2  C   UNL     1       2.231   7.695  18.761  0.00  0.00    +0.000 C 
ATOM      3  N   UNL     1       1.986   8.712  17.855  0.00  0.00    +0.000 N 
ATOM      4  H   UNL     1       2.069   8.498  16.869  0.00  0.00    +0.000 HD
ENDROOT
BRANCH   3   5
ATOM      5  C   UNL     1       1.444   9.977  18.174  0.00  0.00    +0.000 A 
ATOM      6  C   UNL     1       0.109  10.209  18.481  0.00  0.00    +0.000 A 
ATOM      7  N   UNL     1      -0.410  11.432  18.763  0.00  0.00    +0.000 NA
ATOM      8  C   UNL     1       0.412  12.488  18.723  0.00  0.00    +0.000 A 
ATOM      9  C   UNL     1      -0.103  13.753  18.969  0.00  0.00    +0.000 A 
ATOM     10  C   UNL     1       0.700  14.894  18.918  0.00  0.00    +0.000 A 
ATOM     11  C   UNL     1       2.052  14.775  18.618  0.00  0.00    +0.000 A 
ATOM     12  C   UNL     1       2.598  13.515  18.380  0.00  0.00    +0.000 A 
ATOM     13  C   UNL     1       1.787  12.367  18.429  0.00  0.00    +0.000 A 
ATOM     14  C   UNL     1       2.295  11.081  18.175  0.00  0.00    +0.000 A 
ENDBRANCH   3   5
BRANCH   2  15
ATOM     15  C   UNL     1       2.768   6.435  18.181  0.00  0.00    +0.000 A 
ATOM     16  C   UNL     1       1.969   5.289  18.244  0.00  0.00    +0.000 A 
ATOM     17  C   UNL     1       2.422   4.086  17.703  0.00  0.00    +0.000 A 
ATOM     18  C   UNL     1       3.674   4.021  17.089  0.00  0.00    +0.000 A 
ATOM     19  C   UNL     1       4.482   5.166  17.024  0.00  0.00    +0.000 A 
ATOM     20  C   UNL     1       4.036   6.372  17.591  0.00  0.00    +0.000 A 
BRANCH  19  21
ATOM     21  N   UNL     1       5.737   5.132  16.371  0.00  0.00    +0.000 N 
ATOM     22  C   UNL     1       6.893   4.487  16.730  0.00  0.00    +0.000 A 
ATOM     23  N   UNL     1       7.804   4.682  15.804  0.00  0.00    +0.000 NA
ATOM     24  N   UNL     1       7.206   5.464  14.853  0.00  0.00    +0.000 NA
ATOM     25  N   UNL     1       5.953   5.741  15.183  0.00  0.00    +0.000 NA
ENDBRANCH  19  21
ENDBRANCH   2  15
TORSDOF 3
ENDMDL
MODEL 5
REMARK VINA RESULT:      -8.5      1.501      1.684
REMARK  Name = 
REMARK  3 active torsions:
REMARK  status: ('A' for Active; 'I' for Inactive)
REMARK    1  A    between atoms: C_2  and  C_14
REMARK    2  A    between atoms: N_3  and  C_4
REMARK    3  A    between atoms: C_18  and  N_19
REMARK                            x       y       z     vdW  Elec       q    Type
REMARK                         _______ _______ _______ _____ _____    ______ ____
ROOT
ATOM      1  O   UNL     1       2.510   8.907  18.130  0.00  0.00    +0.000 OA
ATOM      2  C   UNL     1       2.230   7.872  18.723  0.00  0.00    +0.000 C 
ATOM      3  N   UNL     1       1.521   7.775  19.908  0.00  0.00    +0.000 N 
ATOM      4  H   UNL     1       1.513   6.881  20.383  0.00  0.00    +0.000 HD
ENDROOT
BRANCH   3   5
ATOM      5  C   UNL     1       0.964   8.861  20.618  0.00  0.00    +0.000 A 
ATOM      6  C   UNL     1       1.213   9.143  21.956  0.00  0.00    +0.000 A 
ATOM      7  N   UNL     1       0.654  10.175  22.637  0.00  0.00    +0.000 NA
ATOM      8  C   UNL     1      -0.210  10.964  21.987  0.00  0.00    +0.000 A 
ATOM      9  C   UNL     1      -0.825  12.001  22.673  0.00  0.00    +0.000 A 
ATOM     10  C   UNL     1      -1.753  12.842  22.055  0.00  0.00    +0.000 A 
ATOM     11  C   UNL     1      -2.076  12.648  20.717  0.00  0.00    +0.000 A 
ATOM     12  C   UNL     1      -1.464  11.621  20.000  0.00  0.00    +0.000 A 
ATOM     13  C   UNL     1      -0.532  10.774  20.626  0.00  0.00    +0.000 A 
ATOM     14  C   UNL     1       0.092   9.715  19.943  0.00  0.00    +0.000 A 
ENDBRANCH   3   5
BRANCH   2  15
ATOM     15  C   UNL     1       2.757   6.590  18.185  0.00  0.00    +0.000 A 
ATOM     16  C   UNL     1       1.929   5.463  18.240  0.00  0.00    +0.000 A 
ATOM     17  C   UNL     1       2.373   4.241  17.737  0.00  0.00    +0.000 A 
ATOM     18  C   UNL     1       3.644   4.135  17.169  0.00  0.00    +0.000 A 
ATOM     19  C   UNL     1       4.480   5.261  17.112  0.00  0.00    +0.000 A 
ATOM     20  C   UNL     1       4.043   6.487  17.642  0.00  0.00    +0.000 A 
BRANCH  19  21
ATOM     21  N   UNL     1       5.756   5.185  16.505  0.00  0.00    +0.000 N 
ATOM     22  C   UNL     1       6.875   4.498  16.902  0.00  0.00    +0.000 A 
ATOM     23  N   UNL     1       7.825   4.666  16.010  0.00  0.00    +0.000 NA
ATOM     24  N   UNL     1       7.290   5.474  15.044  0.00  0.00    +0.000 NA
ATOM     25  N   UNL     1       6.036   5.794  15.330  0.00  0.00    +0.000 NA
ENDBRANCH  19  21
ENDBRANCH   2  15
TORSDOF 3
ENDMDL
MODEL 6
REMARK VINA RESULT:      -8.5      2.313      2.710
REMARK  Name = 
REMARK  3 active torsions:
REMARK  status: ('A' for Active; 'I' for Inactive)
REMARK    1  A    between atoms: C_2  and  C_14
REMARK    2  A    between atoms: N_3  and  C_4
REMARK    3  A    between atoms: C_18  and  N_19
REMARK                            x       y       z     vdW  Elec       q    Type
REMARK                         _______ _______ _______ _____ _____    ______ ____
ROOT
ATOM      1  O   UNL     1       2.160   7.823  20.071  0.00  0.00    +0.000 OA
ATOM      2  C   UNL     1       2.181   7.652  18.858  0.00  0.00    +0.000 C 
ATOM      3  N   UNL     1       1.696   8.526  17.900  0.00  0.00    +0.000 N 
ATOM      4  H   UNL     1       1.612   8.187  16.950  0.00  0.00    +0.000 HD
ENDROOT
BRANCH   3   5
ATOM      5  C   UNL     1       1.126   9.791  18.163  0.00  0.00    +0.000 A 
ATOM      6  C   UNL     1      -0.237  10.037  18.269  0.00  0.00    +0.000 A 
ATOM      7  N   UNL     1      -0.779  11.260  18.498  0.00  0.00    +0.000 NA
ATOM      8  C   UNL     1       0.051  12.305  18.607  0.00  0.00    +0.000 A 
ATOM      9  C   UNL     1      -0.481  13.571  18.801  0.00  0.00    +0.000 A 
ATOM     10  C   UNL     1       0.333  14.702  18.899  0.00  0.00    +0.000 A 
ATOM     11  C   UNL     1       1.714  14.569  18.805  0.00  0.00    +0.000 A 
ATOM     12  C   UNL     1       2.276  13.307  18.623  0.00  0.00    +0.000 A 
ATOM     13  C   UNL     1       1.453  12.169  18.522  0.00  0.00    +0.000 A 
ATOM     14  C   UNL     1       1.980  10.882  18.318  0.00  0.00    +0.000 A 
ENDBRANCH   3   5
BRANCH   2  15
ATOM     15  C   UNL     1       2.697   6.357  18.341  0.00  0.00    +0.000 A 
ATOM     16  C   UNL     1       1.769   5.362  18.012  0.00  0.00    +0.000 A 
ATOM     17  C   UNL     1       2.202   4.135  17.512  0.00  0.00    +0.000 A 
ATOM     18  C   UNL     1       3.565   3.893  17.331  0.00  0.00    +0.000 A 
ATOM     19  C   UNL     1       4.502   4.885  17.661  0.00  0.00    +0.000 A 
ATOM     20  C   UNL     1       4.067   6.112  18.189  0.00  0.00    +0.000 A 
BRANCH  19  21
ATOM     21  N   UNL     1       5.885   4.674  17.448  0.00  0.00    +0.000 N 
ATOM     22  C   UNL     1       6.591   4.617  16.273  0.00  0.00    +0.000 A 
ATOM     23  N   UNL     1       7.867   4.457  16.542  0.00  0.00    +0.000 NA
ATOM     24  N   UNL     1       7.957   4.410  17.907  0.00  0.00    +0.000 NA
ATOM     25  N   UNL     1       6.763   4.543  18.468  0.00  0.00    +0.000 NA
ENDBRANCH  19  21
ENDBRANCH   2  15
TORSDOF 3
ENDMDL
MODEL 7
REMARK VINA RESULT:      -8.3      2.204      2.549
REMARK  Name = 
REMARK  3 active torsions:
REMARK  status: ('A' for Active; 'I' for Inactive)
REMARK    1  A    between atoms: C_2  and  C_14
REMARK    2  A    between atoms: N_3  and  C_4
REMARK    3  A    between atoms: C_18  and  N_19
REMARK                            x       y       z     vdW  Elec       q    Type
REMARK                         _______ _______ _______ _____ _____    ______ ____
ROOT
ATOM      1  O   UNL     1       2.041   7.755  19.986  0.00  0.00    +0.000 OA
ATOM      2  C   UNL     1       2.280   7.736  18.785  0.00  0.00    +0.000 C 
ATOM      3  N   UNL     1       2.051   8.765  17.887  0.00  0.00    +0.000 N 
ATOM      4  H   UNL     1       2.126   8.557  16.900  0.00  0.00    +0.000 HD
ENDROOT
BRANCH   3   5
ATOM      5  C   UNL     1       1.536  10.037  18.219  0.00  0.00    +0.000 A 
ATOM      6  C   UNL     1       2.260  11.222  18.163  0.00  0.00    +0.000 A 
ATOM      7  N   UNL     1       1.765  12.438  18.507  0.00  0.00    +0.000 NA
ATOM      8  C   UNL     1       0.503  12.501  18.950  0.00  0.00    +0.000 A 
ATOM      9  C   UNL     1      -0.012  13.727  19.346  0.00  0.00    +0.000 A 
ATOM     10  C   UNL     1      -1.313  13.852  19.839  0.00  0.00    +0.000 A 
ATOM     11  C   UNL     1      -2.124  12.727  19.938  0.00  0.00    +0.000 A 
ATOM     12  C   UNL     1      -1.636  11.485  19.536  0.00  0.00    +0.000 A 
ATOM     13  C   UNL     1      -0.324  11.362  19.042  0.00  0.00    +0.000 A 
ATOM     14  C   UNL     1       0.212  10.124  18.645  0.00  0.00    +0.000 A 
ENDBRANCH   3   5
BRANCH   2  15
ATOM     15  C   UNL     1       2.789   6.470  18.192  0.00  0.00    +0.000 A 
ATOM     16  C   UNL     1       1.967   5.339  18.248  0.00  0.00    +0.000 A 
ATOM     17  C   UNL     1       2.394   4.132  17.695  0.00  0.00    +0.000 A 
ATOM     18  C   UNL     1       3.642   4.047  17.076  0.00  0.00    +0.000 A 
ATOM     19  C   UNL     1       4.473   5.177  17.018  0.00  0.00    +0.000 A 
ATOM     20  C   UNL     1       4.054   6.386  17.597  0.00  0.00    +0.000 A 
BRANCH  19  21
ATOM     21  N   UNL     1       5.725   5.122  16.360  0.00  0.00    +0.000 N 
ATOM     22  C   UNL     1       6.858   4.422  16.690  0.00  0.00    +0.000 A 
ATOM     23  N   UNL     1       7.773   4.620  15.769  0.00  0.00    +0.000 NA
ATOM     24  N   UNL     1       7.203   5.461  14.852  0.00  0.00    +0.000 NA
ATOM     25  N   UNL     1       5.961   5.770  15.197  0.00  0.00    +0.000 NA
ENDBRANCH  19  21
ENDBRANCH   2  15
TORSDOF 3
ENDMDL
MODEL 8
REMARK VINA RESULT:      -8.3      1.951      2.476
REMARK  Name = 
REMARK  3 active torsions:
REMARK  status: ('A' for Active; 'I' for Inactive)
REMARK    1  A    between atoms: C_2  and  C_14
REMARK    2  A    between atoms: N_3  and  C_4
REMARK    3  A    between atoms: C_18  and  N_19
REMARK                            x       y       z     vdW  Elec       q    Type
REMARK                         _______ _______ _______ _____ _____    ______ ____
ROOT
ATOM      1  O   UNL     1       2.236   8.284  17.430  0.00  0.00    +0.000 OA
ATOM      2  C   UNL     1       2.504   7.670  18.455  0.00  0.00    +0.000 C 
ATOM      3  N   UNL     1       2.059   7.973  19.730  0.00  0.00    +0.000 N 
ATOM      4  H   UNL     1       2.496   7.497  20.509  0.00  0.00    +0.000 HD
ENDROOT
BRANCH   3   5
ATOM      5  C   UNL     1       1.179   9.027  20.059  0.00  0.00    +0.000 A 
ATOM      6  C   UNL     1       0.866  10.086  19.215  0.00  0.00    +0.000 A 
ATOM      7  N   UNL     1       0.038  11.110  19.546  0.00  0.00    +0.000 NA
ATOM      8  C   UNL     1      -0.498  11.113  20.774  0.00  0.00    +0.000 A 
ATOM      9  C   UNL     1      -1.315  12.170  21.149  0.00  0.00    +0.000 A 
ATOM     10  C   UNL     1      -1.882  12.240  22.424  0.00  0.00    +0.000 A 
ATOM     11  C   UNL     1      -1.633  11.233  23.348  0.00  0.00    +0.000 A 
ATOM     12  C   UNL     1      -0.826  10.153  22.992  0.00  0.00    +0.000 A 
ATOM     13  C   UNL     1      -0.253  10.086  21.709  0.00  0.00    +0.000 A 
ATOM     14  C   UNL     1       0.583   9.025  21.319  0.00  0.00    +0.000 A 
ENDBRANCH   3   5
BRANCH   2  15
ATOM     15  C   UNL     1       3.463   6.536  18.363  0.00  0.00    +0.000 A 
ATOM     16  C   UNL     1       3.491   5.612  19.413  0.00  0.00    +0.000 A 
ATOM     17  C   UNL     1       4.363   4.525  19.369  0.00  0.00    +0.000 A 
ATOM     18  C   UNL     1       5.209   4.349  18.272  0.00  0.00    +0.000 A 
ATOM     19  C   UNL     1       5.187   5.273  17.216  0.00  0.00    +0.000 A 
ATOM     20  C   UNL     1       4.327   6.382  17.273  0.00  0.00    +0.000 A 
BRANCH  19  21
ATOM     21  N   UNL     1       6.008   5.091  16.078  0.00  0.00    +0.000 N 
ATOM     22  C   UNL     1       5.803   4.313  14.966  0.00  0.00    +0.000 A 
ATOM     23  N   UNL     1       6.799   4.486  14.128  0.00  0.00    +0.000 NA
ATOM     24  N   UNL     1       7.641   5.383  14.728  0.00  0.00    +0.000 NA
ATOM     25  N   UNL     1       7.171   5.760  15.909  0.00  0.00    +0.000 NA
ENDBRANCH  19  21
ENDBRANCH   2  15
TORSDOF 3
ENDMDL
MODEL 9
REMARK VINA RESULT:      -8.3      1.092      1.498
REMARK  Name = 
REMARK  3 active torsions:
REMARK  status: ('A' for Active; 'I' for Inactive)
REMARK    1  A    between atoms: C_2  and  C_14
REMARK    2  A    between atoms: N_3  and  C_4
REMARK    3  A    between atoms: C_18  and  N_19
REMARK                            x       y       z     vdW  Elec       q    Type
REMARK                         _______ _______ _______ _____ _____    ______ ____
ROOT
ATOM      1  O   UNL     1       1.624   6.417  20.727  0.00  0.00    +0.000 OA
ATOM      2  C   UNL     1       2.030   6.694  19.605  0.00  0.00    +0.000 C 
ATOM      3  N   UNL     1       1.906   7.916  18.968  0.00  0.00    +0.000 N 
ATOM      4  H   UNL     1       2.123   7.959  17.980  0.00  0.00    +0.000 HD
ENDROOT
BRANCH   3   5
ATOM      5  C   UNL     1       1.320   9.072  19.528  0.00  0.00    +0.000 A 
ATOM      6  C   UNL     1       1.401  10.346  18.977  0.00  0.00    +0.000 A 
ATOM      7  N   UNL     1       0.856  11.457  19.534  0.00  0.00    +0.000 NA
ATOM      8  C   UNL     1       0.215  11.325  20.702  0.00  0.00    +0.000 A 
ATOM      9  C   UNL     1      -0.316  12.453  21.311  0.00  0.00    +0.000 A 
ATOM     10  C   UNL     1      -0.974  12.382  22.541  0.00  0.00    +0.000 A 
ATOM     11  C   UNL     1      -1.111  11.156  23.181  0.00  0.00    +0.000 A 
ATOM     12  C   UNL     1      -0.598  10.004  22.585  0.00  0.00    +0.000 A 
ATOM     13  C   UNL     1       0.067  10.079  21.348  0.00  0.00    +0.000 A 
ATOM     14  C   UNL     1       0.616   8.945  20.724  0.00  0.00    +0.000 A 
ENDBRANCH   3   5
BRANCH   2  15
ATOM     15  C   UNL     1       2.646   5.609  18.795  0.00  0.00    +0.000 A 
ATOM     16  C   UNL     1       1.800   4.653  18.222  0.00  0.00    +0.000 A 
ATOM     17  C   UNL     1       2.328   3.624  17.444  0.00  0.00    +0.000 A 
ATOM     18  C   UNL     1       3.705   3.544  17.227  0.00  0.00    +0.000 A 
ATOM     19  C   UNL     1       4.560   4.498  17.800  0.00  0.00    +0.000 A 
ATOM     20  C   UNL     1       4.030   5.521  18.605  0.00  0.00    +0.000 A 
BRANCH  19  21
ATOM     21  N   UNL     1       5.954   4.459  17.560  0.00  0.00    +0.000 N 
ATOM     22  C   UNL     1       6.637   4.420  16.371  0.00  0.00    +0.000 A 
ATOM     23  N   UNL     1       7.928   4.447  16.611  0.00  0.00    +0.000 NA
ATOM     24  N   UNL     1       8.052   4.500  17.973  0.00  0.00    +0.000 NA
ATOM     25  N   UNL     1       6.863   4.510  18.560  0.00  0.00    +0.000 NA
ENDBRANCH  19  21
ENDBRANCH   2  15
TORSDOF 3
ENDMDL
