MODEL 1
REMARK VINA RESULT:      -8.4      0.000      0.000
REMARK  Name = 
REMARK  5 active torsions:
REMARK  status: ('A' for Active; 'I' for Inactive)
REMARK    1  A    between atoms: C_1  and  N_2
REMARK    2  A    between atoms: N_6  and  C_7
REMARK    3  A    between atoms: C_7  and  C_8
REMARK    4  A    between atoms: C_8  and  C_9
REMARK    5  A    between atoms: C_21  and  C_22
REMARK                            x       y       z     vdW  Elec       q    Type
REMARK                         _______ _______ _______ _____ _____    ______ ____
ROOT
ATOM      1  C   UNL     1       4.388   4.327  16.864  0.00  0.00    +0.000 A 
ATOM      2  C   UNL     1       4.305   3.066  17.447  0.00  0.00    +0.000 A 
ATOM      3  C   UNL     1       3.595   2.941  18.627  0.00  0.00    +0.000 A 
ATOM      4  N   UNL     1       2.982   3.969  19.250  0.00  0.00    +0.000 NA
ATOM      5  C   UNL     1       3.039   5.189  18.687  0.00  0.00    +0.000 A 
ATOM      6  N   UNL     1       2.409   6.277  19.324  0.00  0.00    +0.000 N 
ATOM      7  C   UNL     1       2.319   7.588  18.719  0.00  0.00    +0.000 C 
ATOM      8  C   UNL     1       1.528   8.378  19.708  0.00  0.00    +0.000 A 
ATOM      9  C   UNL     1       1.247   7.575  20.812  0.00  0.00    +0.000 A 
ATOM     10  C   UNL     1       0.545   8.037  21.908  0.00  0.00    +0.000 A 
ATOM     11  C   UNL     1       0.109   9.360  21.883  0.00  0.00    +0.000 A 
ATOM     12  C   UNL     1       0.372  10.178  20.765  0.00  0.00    +0.000 A 
ATOM     13  C   UNL     1       1.089   9.698  19.654  0.00  0.00    +0.000 A 
ATOM     14  C   UNL     1       1.798   6.230  20.575  0.00  0.00    +0.000 C 
ATOM     15  O   UNL     1       1.682   5.341  21.396  0.00  0.00    +0.000 OA
ATOM     16  C   UNL     1       3.720   5.389  17.485  0.00  0.00    +0.000 A 
ENDROOT
BRANCH  13  17
ATOM     17  C   UNL     1       1.337  10.591  18.467  0.00  0.00    +0.000 C 
ATOM     18  F   UNL     1       2.648  10.659  18.100  0.00  0.00    +0.000 F 
ATOM     19  F   UNL     1       0.665  10.180  17.357  0.00  0.00    +0.000 F 
ATOM     20  F   UNL     1       0.950  11.876  18.689  0.00  0.00    +0.000 F 
ENDBRANCH  13  17
BRANCH   1  21
ATOM     21  C   UNL     1       5.214   4.574  15.622  0.00  0.00    +0.000 C 
BRANCH  21  22
ATOM     22  C   UNL     1       5.940   5.935  15.708  0.00  0.00    +0.000 C 
BRANCH  22  28
ATOM     23  C   UNL     1       7.737   8.030  17.509  0.00  0.00    +0.000 C 
ATOM     24  N   UNL     1       7.255   6.663  17.483  0.00  0.00    +0.000 N 
ATOM     25  C   UNL     1       7.450   5.798  18.520  0.00  0.00    +0.000 C 
ATOM     26  N   UNL     1       7.616   4.537  18.279  0.00  0.00    +0.000 NA
ATOM     27  C   UNL     1       7.640   4.546  16.797  0.00  0.00    +0.000 C 
ATOM     28  N   UNL     1       7.302   5.893  16.279  0.00  0.00    +0.000 NA
ENDBRANCH  22  28
ENDBRANCH  21  22
ENDBRANCH   1  21
TORSDOF 4
ENDMDL
MODEL 2
REMARK VINA RESULT:      -8.2      3.036      4.859
REMARK  Name = 
REMARK  5 active torsions:
REMARK  status: ('A' for Active; 'I' for Inactive)
REMARK    1  A    between atoms: C_1  and  N_2
REMARK    2  A    between atoms: N_6  and  C_7
REMARK    3  A    between atoms: C_7  and  C_8
REMARK    4  A    between atoms: C_8  and  C_9
REMARK    5  A    between atoms: C_21  and  C_22
REMARK                            x       y       z     vdW  Elec       q    Type
REMARK                         _______ _______ _______ _____ _____    ______ ____
ROOT
ATOM      1  C   UNL     1       4.047   5.210  19.194  0.00  0.00    +0.000 A 
ATOM      2  C   UNL     1       4.747   5.346  17.999  0.00  0.00    +0.000 A 
ATOM      3  C   UNL     1       4.508   6.470  17.231  0.00  0.00    +0.000 A 
ATOM      4  N   UNL     1       3.633   7.442  17.567  0.00  0.00    +0.000 NA
ATOM      5  C   UNL     1       2.965   7.331  18.729  0.00  0.00    +0.000 A 
ATOM      6  N   UNL     1       2.045   8.333  19.097  0.00  0.00    +0.000 N 
ATOM      7  C   UNL     1       1.383   8.348  20.385  0.00  0.00    +0.000 C 
ATOM      8  C   UNL     1       0.572   9.600  20.348  0.00  0.00    +0.000 A 
ATOM      9  C   UNL     1       0.729  10.208  19.104  0.00  0.00    +0.000 A 
ATOM     10  C   UNL     1       0.079  11.378  18.761  0.00  0.00    +0.000 A 
ATOM     11  C   UNL     1      -0.755  11.954  19.716  0.00  0.00    +0.000 A 
ATOM     12  C   UNL     1      -0.910  11.358  20.984  0.00  0.00    +0.000 A 
ATOM     13  C   UNL     1      -0.244  10.166  21.323  0.00  0.00    +0.000 A 
ATOM     14  C   UNL     1       1.671   9.412  18.300  0.00  0.00    +0.000 C 
ATOM     15  O   UNL     1       1.976   9.737  17.169  0.00  0.00    +0.000 OA
ATOM     16  C   UNL     1       3.169   6.234  19.567  0.00  0.00    +0.000 A 
ENDROOT
BRANCH  13  17
ATOM     17  C   UNL     1      -0.415   9.564  22.693  0.00  0.00    +0.000 C 
ATOM     18  F   UNL     1      -0.972   8.320  22.677  0.00  0.00    +0.000 F 
ATOM     19  F   UNL     1       0.768   9.430  23.353  0.00  0.00    +0.000 F 
ATOM     20  F   UNL     1      -1.214  10.315  23.498  0.00  0.00    +0.000 F 
ENDBRANCH  13  17
BRANCH   1  21
ATOM     21  C   UNL     1       4.179   3.973  20.054  0.00  0.00    +0.000 C 
BRANCH  21  22
ATOM     22  C   UNL     1       4.035   2.694  19.201  0.00  0.00    +0.000 C 
BRANCH  22  28
ATOM     23  C   UNL     1       1.781   2.395  21.587  0.00  0.00    +0.000 C 
ATOM     24  N   UNL     1       1.936   2.786  20.200  0.00  0.00    +0.000 N 
ATOM     25  C   UNL     1       0.913   3.318  19.471  0.00  0.00    +0.000 C 
ATOM     26  N   UNL     1       0.836   3.070  18.202  0.00  0.00    +0.000 NA
ATOM     27  C   UNL     1       1.953   2.110  18.046  0.00  0.00    +0.000 C 
ATOM     28  N   UNL     1       2.731   2.007  19.303  0.00  0.00    +0.000 NA
ENDBRANCH  22  28
ENDBRANCH  21  22
ENDBRANCH   1  21
TORSDOF 4
ENDMDL
MODEL 3
REMARK VINA RESULT:      -7.8      3.028      4.722
REMARK  Name = 
REMARK  5 active torsions:
REMARK  status: ('A' for Active; 'I' for Inactive)
REMARK    1  A    between atoms: C_1  and  N_2
REMARK    2  A    between atoms: N_6  and  C_7
REMARK    3  A    between atoms: C_7  and  C_8
REMARK    4  A    between atoms: C_8  and  C_9
REMARK    5  A    between atoms: C_21  and  C_22
REMARK                            x       y       z     vdW  Elec       q    Type
REMARK                         _______ _______ _______ _____ _____    ______ ____
ROOT
ATOM      1  C   UNL     1       4.181   5.191  19.233  0.00  0.00    +0.000 A 
ATOM      2  C   UNL     1       4.858   5.321  18.023  0.00  0.00    +0.000 A 
ATOM      3  C   UNL     1       4.574   6.419  17.234  0.00  0.00    +0.000 A 
ATOM      4  N   UNL     1       3.676   7.372  17.562  0.00  0.00    +0.000 NA
ATOM      5  C   UNL     1       3.029   7.268  18.737  0.00  0.00    +0.000 A 
ATOM      6  N   UNL     1       2.084   8.250  19.096  0.00  0.00    +0.000 N 
ATOM      7  C   UNL     1       1.443   8.275  20.394  0.00  0.00    +0.000 C 
ATOM      8  C   UNL     1       0.593   9.501  20.342  0.00  0.00    +0.000 A 
ATOM      9  C   UNL     1       0.713  10.084  19.082  0.00  0.00    +0.000 A 
ATOM     10  C   UNL     1       0.023  11.226  18.723  0.00  0.00    +0.000 A 
ATOM     11  C   UNL     1      -0.814  11.799  19.678  0.00  0.00    +0.000 A 
ATOM     12  C   UNL     1      -0.931  11.229  20.962  0.00  0.00    +0.000 A 
ATOM     13  C   UNL     1      -0.225  10.065  21.316  0.00  0.00    +0.000 A 
ATOM     14  C   UNL     1       1.666   9.298  18.282  0.00  0.00    +0.000 C 
ATOM     15  O   UNL     1       1.943   9.607  17.138  0.00  0.00    +0.000 OA
ATOM     16  C   UNL     1       3.278   6.197  19.596  0.00  0.00    +0.000 A 
ENDROOT
BRANCH  13  17
ATOM     17  C   UNL     1      -0.356   9.490  22.703  0.00  0.00    +0.000 C 
ATOM     18  F   UNL     1      -1.168  10.218  23.521  0.00  0.00    +0.000 F 
ATOM     19  F   UNL     1      -0.872   8.231  22.697  0.00  0.00    +0.000 F 
ATOM     20  F   UNL     1       0.838   9.407  23.349  0.00  0.00    +0.000 F 
ENDBRANCH  13  17
BRANCH   1  21
ATOM     21  C   UNL     1       4.364   3.980  20.118  0.00  0.00    +0.000 C 
BRANCH  21  22
ATOM     22  C   UNL     1       2.997   3.381  20.518  0.00  0.00    +0.000 C 
BRANCH  22  28
ATOM     23  C   UNL     1       0.323   2.552  18.779  0.00  0.00    +0.000 C 
ATOM     24  N   UNL     1       1.768   2.627  18.692  0.00  0.00    +0.000 N 
ATOM     25  C   UNL     1       2.447   2.373  17.536  0.00  0.00    +0.000 C 
ATOM     26  N   UNL     1       3.620   1.828  17.589  0.00  0.00    +0.000 NA
ATOM     27  C   UNL     1       3.730   1.566  19.043  0.00  0.00    +0.000 C 
ATOM     28  N   UNL     1       2.591   2.173  19.770  0.00  0.00    +0.000 NA
ENDBRANCH  22  28
ENDBRANCH  21  22
ENDBRANCH   1  21
TORSDOF 4
ENDMDL
MODEL 4
REMARK VINA RESULT:      -7.8      4.380      8.514
REMARK  Name = 
REMARK  5 active torsions:
REMARK  status: ('A' for Active; 'I' for Inactive)
REMARK    1  A    between atoms: C_1  and  N_2
REMARK    2  A    between atoms: N_6  and  C_7
REMARK    3  A    between atoms: C_7  and  C_8
REMARK    4  A    between atoms: C_8  and  C_9
REMARK    5  A    between atoms: C_21  and  C_22
REMARK                            x       y       z     vdW  Elec       q    Type
REMARK                         _______ _______ _______ _____ _____    ______ ____
ROOT
ATOM      1  C   UNL     1       0.462  10.174  19.788  0.00  0.00    +0.000 A 
ATOM      2  C   UNL     1       0.832  11.053  18.774  0.00  0.00    +0.000 A 
ATOM      3  C   UNL     1       1.737  10.610  17.828  0.00  0.00    +0.000 A 
ATOM      4  N   UNL     1       2.289   9.378  17.831  0.00  0.00    +0.000 NA
ATOM      5  C   UNL     1       1.926   8.514  18.796  0.00  0.00    +0.000 A 
ATOM      6  N   UNL     1       2.494   7.224  18.818  0.00  0.00    +0.000 N 
ATOM      7  C   UNL     1       2.061   6.199  19.745  0.00  0.00    +0.000 C 
ATOM      8  C   UNL     1       2.880   5.012  19.362  0.00  0.00    +0.000 A 
ATOM      9  C   UNL     1       3.747   5.369  18.332  0.00  0.00    +0.000 A 
ATOM     10  C   UNL     1       4.651   4.483  17.780  0.00  0.00    +0.000 A 
ATOM     11  C   UNL     1       4.673   3.186  18.288  0.00  0.00    +0.000 A 
ATOM     12  C   UNL     1       3.790   2.806  19.319  0.00  0.00    +0.000 A 
ATOM     13  C   UNL     1       2.873   3.718  19.875  0.00  0.00    +0.000 A 
ATOM     14  C   UNL     1       3.505   6.776  17.973  0.00  0.00    +0.000 C 
ATOM     15  O   UNL     1       4.139   7.327  17.093  0.00  0.00    +0.000 OA
ATOM     16  C   UNL     1       1.001   8.882  19.773  0.00  0.00    +0.000 A 
ENDROOT
BRANCH  13  17
ATOM     17  C   UNL     1       1.929   3.277  20.962  0.00  0.00    +0.000 C 
ATOM     18  F   UNL     1       1.933   1.930  21.176  0.00  0.00    +0.000 F 
ATOM     19  F   UNL     1       2.220   3.842  22.166  0.00  0.00    +0.000 F 
ATOM     20  F   UNL     1       0.635   3.602  20.695  0.00  0.00    +0.000 F 
ENDBRANCH  13  17
BRANCH   1  21
ATOM     21  C   UNL     1      -0.455  10.600  20.912  0.00  0.00    +0.000 C 
BRANCH  21  22
ATOM     22  C   UNL     1       0.004  11.947  21.513  0.00  0.00    +0.000 C 
BRANCH  22  28
ATOM     23  C   UNL     1      -0.696  14.752  23.095  0.00  0.00    +0.000 C 
ATOM     24  N   UNL     1      -1.276  13.485  22.700  0.00  0.00    +0.000 N 
ATOM     25  C   UNL     1      -2.592  13.188  22.901  0.00  0.00    +0.000 C 
ATOM     26  N   UNL     1      -2.941  11.967  23.156  0.00  0.00    +0.000 NA
ATOM     27  C   UNL     1      -1.612  11.319  23.246  0.00  0.00    +0.000 C 
ATOM     28  N   UNL     1      -0.544  12.266  22.848  0.00  0.00    +0.000 NA
ENDBRANCH  22  28
ENDBRANCH  21  22
ENDBRANCH   1  21
TORSDOF 4
ENDMDL
MODEL 5
REMARK VINA RESULT:      -7.7      4.692      9.086
REMARK  Name = 
REMARK  5 active torsions:
REMARK  status: ('A' for Active; 'I' for Inactive)
REMARK    1  A    between atoms: C_1  and  N_2
REMARK    2  A    between atoms: N_6  and  C_7
REMARK    3  A    between atoms: C_7  and  C_8
REMARK    4  A    between atoms: C_8  and  C_9
REMARK    5  A    between atoms: C_21  and  C_22
REMARK                            x       y       z     vdW  Elec       q    Type
REMARK                         _______ _______ _______ _____ _____    ______ ____
ROOT
ATOM      1  C   UNL     1       0.110  10.500  21.123  0.00  0.00    +0.000 A 
ATOM      2  C   UNL     1       0.202  11.541  20.204  0.00  0.00    +0.000 A 
ATOM      3  C   UNL     1       0.880  11.306  19.022  0.00  0.00    +0.000 A 
ATOM      4  N   UNL     1       1.462  10.129  18.708  0.00  0.00    +0.000 NA
ATOM      5  C   UNL     1       1.364   9.110  19.580  0.00  0.00    +0.000 A 
ATOM      6  N   UNL     1       1.968   7.875  19.272  0.00  0.00    +0.000 N 
ATOM      7  C   UNL     1       1.799   6.698  20.098  0.00  0.00    +0.000 C 
ATOM      8  C   UNL     1       2.549   5.641  19.361  0.00  0.00    +0.000 A 
ATOM      9  C   UNL     1       3.141   6.205  18.232  0.00  0.00    +0.000 A 
ATOM     10  C   UNL     1       3.924   5.475  17.359  0.00  0.00    +0.000 A 
ATOM     11  C   UNL     1       4.111   4.123  17.639  0.00  0.00    +0.000 A 
ATOM     12  C   UNL     1       3.504   3.535  18.768  0.00  0.00    +0.000 A 
ATOM     13  C   UNL     1       2.709   4.288  19.651  0.00  0.00    +0.000 A 
ATOM     14  C   UNL     1       2.771   7.628  18.162  0.00  0.00    +0.000 C 
ATOM     15  O   UNL     1       3.164   8.344  17.261  0.00  0.00    +0.000 OA
ATOM     16  C   UNL     1       0.677   9.266  20.785  0.00  0.00    +0.000 A 
ENDROOT
BRANCH  13  17
ATOM     17  C   UNL     1       2.059   3.628  20.838  0.00  0.00    +0.000 C 
ATOM     18  F   UNL     1       2.388   4.201  22.030  0.00  0.00    +0.000 F 
ATOM     19  F   UNL     1       0.699   3.666  20.775  0.00  0.00    +0.000 F 
ATOM     20  F   UNL     1       2.396   2.315  20.956  0.00  0.00    +0.000 F 
ENDBRANCH  13  17
BRANCH   1  21
ATOM     21  C   UNL     1      -0.536  10.692  22.477  0.00  0.00    +0.000 C 
BRANCH  21  22
ATOM     22  C   UNL     1      -1.160  12.100  22.592  0.00  0.00    +0.000 C 
BRANCH  22  28
ATOM     23  C   UNL     1      -3.854  12.403  24.466  0.00  0.00    +0.000 C 
ATOM     24  N   UNL     1      -3.175  12.996  23.332  0.00  0.00    +0.000 N 
ATOM     25  C   UNL     1      -3.614  14.141  22.733  0.00  0.00    +0.000 C 
ATOM     26  N   UNL     1      -3.452  14.300  21.459  0.00  0.00    +0.000 NA
ATOM     27  C   UNL     1      -2.888  12.980  21.092  0.00  0.00    +0.000 C 
ATOM     28  N   UNL     1      -2.608  12.178  22.306  0.00  0.00    +0.000 NA
ENDBRANCH  22  28
ENDBRANCH  21  22
ENDBRANCH   1  21
TORSDOF 4
ENDMDL
MODEL 6
REMARK VINA RESULT:      -7.6      3.399      7.676
REMARK  Name = 
REMARK  5 active torsions:
REMARK  status: ('A' for Active; 'I' for Inactive)
REMARK    1  A    between atoms: C_1  and  N_2
REMARK    2  A    between atoms: N_6  and  C_7
REMARK    3  A    between atoms: C_7  and  C_8
REMARK    4  A    between atoms: C_8  and  C_9
REMARK    5  A    between atoms: C_21  and  C_22
REMARK                            x       y       z     vdW  Elec       q    Type
REMARK                         _______ _______ _______ _____ _____    ______ ____
ROOT
ATOM      1  C   UNL     1       0.720  10.430  20.116  0.00  0.00    +0.000 A 
ATOM      2  C   UNL     1       0.051  10.185  21.312  0.00  0.00    +0.000 A 
ATOM      3  C   UNL     1       0.139   8.918  21.858  0.00  0.00    +0.000 A 
ATOM      4  N   UNL     1       0.831   7.902  21.298  0.00  0.00    +0.000 NA
ATOM      5  C   UNL     1       1.496   8.132  20.152  0.00  0.00    +0.000 A 
ATOM      6  N   UNL     1       2.221   7.083  19.551  0.00  0.00    +0.000 N 
ATOM      7  C   UNL     1       3.063   7.284  18.390  0.00  0.00    +0.000 C 
ATOM      8  C   UNL     1       3.664   5.939  18.155  0.00  0.00    +0.000 A 
ATOM      9  C   UNL     1       3.148   5.041  19.087  0.00  0.00    +0.000 A 
ATOM     10  C   UNL     1       3.501   3.705  19.107  0.00  0.00    +0.000 A 
ATOM     11  C   UNL     1       4.414   3.266  18.150  0.00  0.00    +0.000 A 
ATOM     12  C   UNL     1       4.956   4.168  17.212  0.00  0.00    +0.000 A 
ATOM     13  C   UNL     1       4.589   5.526  17.200  0.00  0.00    +0.000 A 
ATOM     14  C   UNL     1       2.232   5.761  19.987  0.00  0.00    +0.000 C 
ATOM     15  O   UNL     1       1.652   5.193  20.892  0.00  0.00    +0.000 OA
ATOM     16  C   UNL     1       1.471   9.391  19.553  0.00  0.00    +0.000 A 
ENDROOT
BRANCH  13  17
ATOM     17  C   UNL     1       5.200   6.469  16.197  0.00  0.00    +0.000 C 
ATOM     18  F   UNL     1       5.892   5.839  15.206  0.00  0.00    +0.000 F 
ATOM     19  F   UNL     1       4.267   7.234  15.566  0.00  0.00    +0.000 F 
ATOM     20  F   UNL     1       6.080   7.337  16.765  0.00  0.00    +0.000 F 
ENDBRANCH  13  17
BRANCH   1  21
ATOM     21  C   UNL     1       0.609  11.758  19.402  0.00  0.00    +0.000 C 
BRANCH  21  22
ATOM     22  C   UNL     1      -0.486  11.707  18.315  0.00  0.00    +0.000 C 
BRANCH  22  28
ATOM     23  C   UNL     1      -3.306  12.391  19.878  0.00  0.00    +0.000 C 
ATOM     24  N   UNL     1      -2.785  11.834  18.646  0.00  0.00    +0.000 N 
ATOM     25  C   UNL     1      -3.593  11.473  17.607  0.00  0.00    +0.000 C 
ATOM     26  N   UNL     1      -3.265  10.466  16.862  0.00  0.00    +0.000 NA
ATOM     27  C   UNL     1      -2.062   9.980  17.577  0.00  0.00    +0.000 C 
ATOM     28  N   UNL     1      -1.687  10.919  18.661  0.00  0.00    +0.000 NA
ENDBRANCH  22  28
ENDBRANCH  21  22
ENDBRANCH   1  21
TORSDOF 4
ENDMDL
MODEL 7
REMARK VINA RESULT:      -7.6      1.768      2.620
REMARK  Name = 
REMARK  5 active torsions:
REMARK  status: ('A' for Active; 'I' for Inactive)
REMARK    1  A    between atoms: C_1  and  N_2
REMARK    2  A    between atoms: N_6  and  C_7
REMARK    3  A    between atoms: C_7  and  C_8
REMARK    4  A    between atoms: C_8  and  C_9
REMARK    5  A    between atoms: C_21  and  C_22
REMARK                            x       y       z     vdW  Elec       q    Type
REMARK                         _______ _______ _______ _____ _____    ______ ____
ROOT
ATOM      1  C   UNL     1       3.589   7.005  17.765  0.00  0.00    +0.000 A 
ATOM      2  C   UNL     1       3.591   5.820  18.495  0.00  0.00    +0.000 A 
ATOM      3  C   UNL     1       2.826   5.765  19.646  0.00  0.00    +0.000 A 
ATOM      4  N   UNL     1       2.083   6.793  20.107  0.00  0.00    +0.000 NA
ATOM      5  C   UNL     1       2.059   7.937  19.401  0.00  0.00    +0.000 A 
ATOM      6  N   UNL     1       1.292   9.023  19.868  0.00  0.00    +0.000 N 
ATOM      7  C   UNL     1       1.114  10.238  19.102  0.00  0.00    +0.000 C 
ATOM      8  C   UNL     1       0.196  11.055  19.947  0.00  0.00    +0.000 A 
ATOM      9  C   UNL     1      -0.074  10.364  21.126  0.00  0.00    +0.000 A 
ATOM     10  C   UNL     1      -0.880  10.880  22.122  0.00  0.00    +0.000 A 
ATOM     11  C   UNL     1      -1.437  12.139  21.913  0.00  0.00    +0.000 A 
ATOM     12  C   UNL     1      -1.186  12.842  20.717  0.00  0.00    +0.000 A 
ATOM     13  C   UNL     1      -0.362  12.308  19.709  0.00  0.00    +0.000 A 
ATOM     14  C   UNL     1       0.615   9.063  21.084  0.00  0.00    +0.000 C 
ATOM     15  O   UNL     1       0.534   8.271  22.003  0.00  0.00    +0.000 OA
ATOM     16  C   UNL     1       2.788   8.060  18.218  0.00  0.00    +0.000 A 
ENDROOT
BRANCH  13  17
ATOM     17  C   UNL     1      -0.129  13.075  18.433  0.00  0.00    +0.000 C 
ATOM     18  F   UNL     1       1.167  13.049  18.010  0.00  0.00    +0.000 F 
ATOM     19  F   UNL     1      -0.865  12.594  17.395  0.00  0.00    +0.000 F 
ATOM     20  F   UNL     1      -0.451  14.391  18.549  0.00  0.00    +0.000 F 
ENDBRANCH  13  17
BRANCH   1  21
ATOM     21  C   UNL     1       4.461   7.186  16.543  0.00  0.00    +0.000 C 
BRANCH  21  22
ATOM     22  C   UNL     1       5.192   5.871  16.192  0.00  0.00    +0.000 C 
BRANCH  22  28
ATOM     23  C   UNL     1       7.336   8.021  17.475  0.00  0.00    +0.000 C 
ATOM     24  N   UNL     1       6.964   6.620  17.499  0.00  0.00    +0.000 N 
ATOM     25  C   UNL     1       7.545   5.724  18.349  0.00  0.00    +0.000 C 
ATOM     26  N   UNL     1       7.706   4.497  17.971  0.00  0.00    +0.000 NA
ATOM     27  C   UNL     1       7.244   4.583  16.566  0.00  0.00    +0.000 C 
ATOM     28  N   UNL     1       6.666   5.920  16.290  0.00  0.00    +0.000 NA
ENDBRANCH  22  28
ENDBRANCH  21  22
ENDBRANCH   1  21
TORSDOF 4
ENDMDL
MODEL 8
REMARK VINA RESULT:      -7.6      2.280      3.558
REMARK  Name = 
REMARK  5 active torsions:
REMARK  status: ('A' for Active; 'I' for Inactive)
REMARK    1  A    between atoms: C_1  and  N_2
REMARK    2  A    between atoms: N_6  and  C_7
REMARK    3  A    between atoms: C_7  and  C_8
REMARK    4  A    between atoms: C_8  and  C_9
REMARK    5  A    between atoms: C_21  and  C_22
REMARK                            x       y       z     vdW  Elec       q    Type
REMARK                         _______ _______ _______ _____ _____    ______ ____
ROOT
ATOM      1  C   UNL     1       2.727   7.108  18.481  0.00  0.00    +0.000 A 
ATOM      2  C   UNL     1       2.633   6.021  19.346  0.00  0.00    +0.000 A 
ATOM      3  C   UNL     1       1.950   6.195  20.536  0.00  0.00    +0.000 A 
ATOM      4  N   UNL     1       1.374   7.356  20.912  0.00  0.00    +0.000 NA
ATOM      5  C   UNL     1       1.443   8.408  20.076  0.00  0.00    +0.000 A 
ATOM      6  N   UNL     1       0.851   9.631  20.453  0.00  0.00    +0.000 N 
ATOM      7  C   UNL     1       0.773  10.766  19.558  0.00  0.00    +0.000 C 
ATOM      8  C   UNL     1       0.024  11.786  20.349  0.00  0.00    +0.000 A 
ATOM      9  C   UNL     1      -0.246  11.271  21.615  0.00  0.00    +0.000 A 
ATOM     10  C   UNL     1      -0.911  11.996  22.586  0.00  0.00    +0.000 A 
ATOM     11  C   UNL     1      -1.320  13.286  22.258  0.00  0.00    +0.000 A 
ATOM     12  C   UNL     1      -1.068  13.813  20.975  0.00  0.00    +0.000 A 
ATOM     13  C   UNL     1      -0.389  13.067  19.994  0.00  0.00    +0.000 A 
ATOM     14  C   UNL     1       0.271   9.895  21.690  0.00  0.00    +0.000 C 
ATOM     15  O   UNL     1       0.157   9.226  22.700  0.00  0.00    +0.000 OA
ATOM     16  C   UNL     1       2.097   8.303  18.849  0.00  0.00    +0.000 A 
ENDROOT
BRANCH  13  17
ATOM     17  C   UNL     1      -0.152  13.650  18.626  0.00  0.00    +0.000 C 
ATOM     18  F   UNL     1       1.146  13.570  18.216  0.00  0.00    +0.000 F 
ATOM     19  F   UNL     1      -0.882  13.026  17.661  0.00  0.00    +0.000 F 
ATOM     20  F   UNL     1      -0.479  14.968  18.556  0.00  0.00    +0.000 F 
ENDBRANCH  13  17
BRANCH   1  21
ATOM     21  C   UNL     1       3.527   7.035  17.201  0.00  0.00    +0.000 C 
BRANCH  21  22
ATOM     22  C   UNL     1       4.996   6.655  17.492  0.00  0.00    +0.000 C 
BRANCH  22  28
ATOM     23  C   UNL     1       5.634   4.404  15.172  0.00  0.00    +0.000 C 
ATOM     24  N   UNL     1       6.151   4.950  16.410  0.00  0.00    +0.000 N 
ATOM     25  C   UNL     1       7.359   4.581  16.926  0.00  0.00    +0.000 C 
ATOM     26  N   UNL     1       7.520   4.537  18.210  0.00  0.00    +0.000 NA
ATOM     27  C   UNL     1       6.143   4.834  18.666  0.00  0.00    +0.000 C 
ATOM     28  N   UNL     1       5.283   5.206  17.517  0.00  0.00    +0.000 NA
ENDBRANCH  22  28
ENDBRANCH  21  22
ENDBRANCH   1  21
TORSDOF 4
ENDMDL
MODEL 9
REMARK VINA RESULT:      -7.5      4.422      8.548
REMARK  Name = 
REMARK  5 active torsions:
REMARK  status: ('A' for Active; 'I' for Inactive)
REMARK    1  A    between atoms: C_1  and  N_2
REMARK    2  A    between atoms: N_6  and  C_7
REMARK    3  A    between atoms: C_7  and  C_8
REMARK    4  A    between atoms: C_8  and  C_9
REMARK    5  A    between atoms: C_21  and  C_22
REMARK                            x       y       z     vdW  Elec       q    Type
REMARK                         _______ _______ _______ _____ _____    ______ ____
ROOT
ATOM      1  C   UNL     1       0.776  10.322  19.930  0.00  0.00    +0.000 A 
ATOM      2  C   UNL     1       1.137  11.187  18.901  0.00  0.00    +0.000 A 
ATOM      3  C   UNL     1       1.938  10.693  17.888  0.00  0.00    +0.000 A 
ATOM      4  N   UNL     1       2.396   9.424  17.840  0.00  0.00    +0.000 NA
ATOM      5  C   UNL     1       2.039   8.574  18.819  0.00  0.00    +0.000 A 
ATOM      6  N   UNL     1       2.510   7.246  18.788  0.00  0.00    +0.000 N 
ATOM      7  C   UNL     1       2.069   6.242  19.733  0.00  0.00    +0.000 C 
ATOM      8  C   UNL     1       2.769   5.004  19.281  0.00  0.00    +0.000 A 
ATOM      9  C   UNL     1       3.585   5.312  18.195  0.00  0.00    +0.000 A 
ATOM     10  C   UNL     1       4.379   4.370  17.570  0.00  0.00    +0.000 A 
ATOM     11  C   UNL     1       4.341   3.068  18.063  0.00  0.00    +0.000 A 
ATOM     12  C   UNL     1       3.508   2.738  19.151  0.00  0.00    +0.000 A 
ATOM     13  C   UNL     1       2.703   3.706  19.780  0.00  0.00    +0.000 A 
ATOM     14  C   UNL     1       3.423   6.739  17.868  0.00  0.00    +0.000 C 
ATOM     15  O   UNL     1       4.032   7.254  16.950  0.00  0.00    +0.000 OA
ATOM     16  C   UNL     1       1.216   8.995  19.864  0.00  0.00    +0.000 A 
ENDROOT
BRANCH  13  17
ATOM     17  C   UNL     1       1.808   3.319  20.928  0.00  0.00    +0.000 C 
ATOM     18  F   UNL     1       0.529   3.773  20.800  0.00  0.00    +0.000 F 
ATOM     19  F   UNL     1       1.707   1.969  21.077  0.00  0.00    +0.000 F 
ATOM     20  F   UNL     1       2.251   3.799  22.121  0.00  0.00    +0.000 F 
ENDBRANCH  13  17
BRANCH   1  21
ATOM     21  C   UNL     1      -0.024  10.797  21.122  0.00  0.00    +0.000 C 
BRANCH  21  22
ATOM     22  C   UNL     1      -1.269  11.589  20.666  0.00  0.00    +0.000 C 
BRANCH  22  28
ATOM     23  C   UNL     1      -3.693  13.694  21.411  0.00  0.00    +0.000 C 
ATOM     24  N   UNL     1      -2.456  13.143  21.926  0.00  0.00    +0.000 N 
ATOM     25  C   UNL     1      -2.001  13.416  23.183  0.00  0.00    +0.000 C 
ATOM     26  N   UNL     1      -0.727  13.486  23.401  0.00  0.00    +0.000 NA
ATOM     27  C   UNL     1      -0.207  13.334  22.022  0.00  0.00    +0.000 C 
ATOM     28  N   UNL     1      -1.308  13.006  21.085  0.00  0.00    +0.000 NA
ENDBRANCH  22  28
ENDBRANCH  21  22
ENDBRANCH   1  21
TORSDOF 4
ENDMDL
