MODEL 1
REMARK VINA RESULT:      -9.5      0.000      0.000
REMARK  Name = 
REMARK  6 active torsions:
REMARK  status: ('A' for Active; 'I' for Inactive)
REMARK    1  A    between atoms: C_1  and  C_2
REMARK    2  A    between atoms: C_6  and  C_7
REMARK    3  A    between atoms: C_10  and  C_11
REMARK    4  A    between atoms: N_13  and  C_14
REMARK    5  A    between atoms: C_14  and  C_15
REMARK    6  A    between atoms: C_14  and  C_16
REMARK                            x       y       z     vdW  Elec       q    Type
REMARK                         _______ _______ _______ _____ _____    ______ ____
ROOT
ATOM      1  C   UNL     1       8.599   9.006  18.558  0.00  0.00    +0.000 A 
ATOM      2  C   UNL     1       7.745   8.988  17.523  0.00  0.00    +0.000 A 
ATOM      3  C   UNL     1       7.050   7.765  17.186  0.00  0.00    +0.000 A 
ATOM      4  C   UNL     1       7.229   6.623  17.880  0.00  0.00    +0.000 A 
ATOM      5  C   UNL     1       8.191   6.651  19.023  0.00  0.00    +0.000 A 
ATOM      6  O   UNL     1       8.426   5.655  19.700  0.00  0.00    +0.000 OA
ATOM      7  N   UNL     1       8.809   7.857  19.281  0.00  0.00    +0.000 N 
ATOM      8  H   UNL     1       9.458   7.872  20.057  0.00  0.00    +0.000 HD
ENDROOT
BRANCH   1  14
ATOM      9  C   UNL     1      11.274  13.032  17.273  0.00  0.00    +0.000 C 
ATOM     10  C   UNL     1      10.629  12.188  18.332  0.00  0.00    +0.000 A 
ATOM     11  C   UNL     1      10.705  12.547  19.683  0.00  0.00    +0.000 A 
ATOM     12  C   UNL     1      10.098  11.754  20.657  0.00  0.00    +0.000 A 
ATOM     13  C   UNL     1       9.408  10.596  20.291  0.00  0.00    +0.000 A 
ATOM     14  C   UNL     1       9.318  10.223  18.945  0.00  0.00    +0.000 A 
ATOM     15  C   UNL     1       9.933  11.022  17.972  0.00  0.00    +0.000 A 
ENDBRANCH   1  14
BRANCH   4  16
ATOM     16  C   UNL     1       6.455   5.419  17.449  0.00  0.00    +0.000 C 
ATOM     17  O   UNL     1       6.569   4.353  18.055  0.00  0.00    +0.000 OA
ATOM     18  N   UNL     1       5.627   5.552  16.361  0.00  0.00    +0.000 N 
ATOM     19  H   UNL     1       5.500   6.467  15.928  0.00  0.00    +0.000 HD
BRANCH  18  20
ATOM     20  C   UNL     1       4.779   4.450  15.940  0.00  0.00    +0.000 C 
ATOM     21  C   UNL     1       5.589   3.270  15.412  0.00  0.00    +0.000 C 
BRANCH  20  22
ATOM     22  C   UNL     1       3.844   4.042  17.031  0.00  0.00    +0.000 A 
ATOM     23  C   UNL     1       3.496   2.791  17.502  0.00  0.00    +0.000 A 
ATOM     24  C   UNL     1       2.637   2.989  18.611  0.00  0.00    +0.000 A 
ATOM     25  C   UNL     1       1.970   2.147  19.518  0.00  0.00    +0.000 A 
ATOM     26  C   UNL     1       1.186   2.726  20.523  0.00  0.00    +0.000 A 
ATOM     27  C   UNL     1       1.071   4.115  20.630  0.00  0.00    +0.000 A 
ATOM     28  C   UNL     1       1.734   4.971  19.739  0.00  0.00    +0.000 A 
ATOM     29  C   UNL     1       2.504   4.366  18.745  0.00  0.00    +0.000 A 
ATOM     30  O   UNL     1       3.234   5.011  17.783  0.00  0.00    +0.000 OA
ENDBRANCH  20  22
ENDBRANCH  18  20
ENDBRANCH   4  16
TORSDOF 4
ENDMDL
MODEL 2
REMARK VINA RESULT:      -9.5      7.091      9.934
REMARK  Name = 
REMARK  6 active torsions:
REMARK  status: ('A' for Active; 'I' for Inactive)
REMARK    1  A    between atoms: C_1  and  C_2
REMARK    2  A    between atoms: C_6  and  C_7
REMARK    3  A    between atoms: C_10  and  C_11
REMARK    4  A    between atoms: N_13  and  C_14
REMARK    5  A    between atoms: C_14  and  C_15
REMARK    6  A    between atoms: C_14  and  C_16
REMARK                            x       y       z     vdW  Elec       q    Type
REMARK                         _______ _______ _______ _____ _____    ______ ____
ROOT
ATOM      1  C   UNL     1       2.458   7.374  18.443  0.00  0.00    +0.000 A 
ATOM      2  C   UNL     1       2.134   8.456  17.720  0.00  0.00    +0.000 A 
ATOM      3  C   UNL     1       1.469   9.573  18.355  0.00  0.00    +0.000 A 
ATOM      4  C   UNL     1       1.156   9.569  19.667  0.00  0.00    +0.000 A 
ATOM      5  C   UNL     1       1.512   8.354  20.460  0.00  0.00    +0.000 A 
ATOM      6  O   UNL     1       1.251   8.259  21.655  0.00  0.00    +0.000 OA
ATOM      7  N   UNL     1       2.147   7.336  19.780  0.00  0.00    +0.000 N 
ATOM      8  H   UNL     1       2.388   6.516  20.322  0.00  0.00    +0.000 HD
ENDROOT
BRANCH   1  14
ATOM      9  C   UNL     1       2.666   2.453  17.572  0.00  0.00    +0.000 C 
ATOM     10  C   UNL     1       3.258   3.822  17.420  0.00  0.00    +0.000 A 
ATOM     11  C   UNL     1       4.453   4.015  16.716  0.00  0.00    +0.000 A 
ATOM     12  C   UNL     1       4.991   5.295  16.580  0.00  0.00    +0.000 A 
ATOM     13  C   UNL     1       4.340   6.395  17.143  0.00  0.00    +0.000 A 
ATOM     14  C   UNL     1       3.142   6.222  17.847  0.00  0.00    +0.000 A 
ATOM     15  C   UNL     1       2.610   4.934  17.983  0.00  0.00    +0.000 A 
ENDBRANCH   1  14
BRANCH   4  16
ATOM     16  C   UNL     1       0.476  10.778  20.222  0.00  0.00    +0.000 C 
ATOM     17  O   UNL     1       0.889  11.311  21.253  0.00  0.00    +0.000 OA
ATOM     18  N   UNL     1      -0.618  11.260  19.545  0.00  0.00    +0.000 N 
ATOM     19  H   UNL     1      -0.889  10.840  18.655  0.00  0.00    +0.000 HD
BRANCH  18  20
ATOM     20  C   UNL     1      -1.275  12.481  19.976  0.00  0.00    +0.000 C 
ATOM     21  C   UNL     1      -0.708  13.716  19.284  0.00  0.00    +0.000 C 
BRANCH  20  22
ATOM     22  C   UNL     1      -2.757  12.381  19.813  0.00  0.00    +0.000 A 
ATOM     23  C   UNL     1      -3.787  12.854  20.604  0.00  0.00    +0.000 A 
ATOM     24  C   UNL     1      -4.997  12.557  19.930  0.00  0.00    +0.000 A 
ATOM     25  C   UNL     1      -6.361  12.782  20.185  0.00  0.00    +0.000 A 
ATOM     26  C   UNL     1      -7.304  12.334  19.251  0.00  0.00    +0.000 A 
ATOM     27  C   UNL     1      -6.900  11.680  18.084  0.00  0.00    +0.000 A 
ATOM     28  C   UNL     1      -5.545  11.452  17.809  0.00  0.00    +0.000 A 
ATOM     29  C   UNL     1      -4.628  11.905  18.758  0.00  0.00    +0.000 A 
ATOM     30  O   UNL     1      -3.266  11.794  18.685  0.00  0.00    +0.000 OA
ENDBRANCH  20  22
ENDBRANCH  18  20
ENDBRANCH   4  16
TORSDOF 4
ENDMDL
MODEL 3
REMARK VINA RESULT:      -9.4      7.025      9.663
REMARK  Name = 
REMARK  6 active torsions:
REMARK  status: ('A' for Active; 'I' for Inactive)
REMARK    1  A    between atoms: C_1  and  C_2
REMARK    2  A    between atoms: C_6  and  C_7
REMARK    3  A    between atoms: C_10  and  C_11
REMARK    4  A    between atoms: N_13  and  C_14
REMARK    5  A    between atoms: C_14  and  C_15
REMARK    6  A    between atoms: C_14  and  C_16
REMARK                            x       y       z     vdW  Elec       q    Type
REMARK                         _______ _______ _______ _____ _____    ______ ____
ROOT
ATOM      1  C   UNL     1       2.522   7.293  18.417  0.00  0.00    +0.000 A 
ATOM      2  C   UNL     1       2.229   8.378  17.684  0.00  0.00    +0.000 A 
ATOM      3  C   UNL     1       1.570   9.507  18.303  0.00  0.00    +0.000 A 
ATOM      4  C   UNL     1       1.232   9.514  19.609  0.00  0.00    +0.000 A 
ATOM      5  C   UNL     1       1.552   8.296  20.413  0.00  0.00    +0.000 A 
ATOM      6  O   UNL     1       1.267   8.209  21.603  0.00  0.00    +0.000 OA
ATOM      7  N   UNL     1       2.184   7.266  19.748  0.00  0.00    +0.000 N 
ATOM      8  H   UNL     1       2.402   6.443  20.298  0.00  0.00    +0.000 HD
ENDROOT
BRANCH   1  14
ATOM      9  C   UNL     1       6.379   5.359  15.887  0.00  0.00    +0.000 C 
ATOM     10  C   UNL     1       5.072   5.174  16.599  0.00  0.00    +0.000 A 
ATOM     11  C   UNL     1       4.491   3.905  16.719  0.00  0.00    +0.000 A 
ATOM     12  C   UNL     1       3.277   3.748  17.387  0.00  0.00    +0.000 A 
ATOM     13  C   UNL     1       2.631   4.854  17.944  0.00  0.00    +0.000 A 
ATOM     14  C   UNL     1       3.199   6.129  17.838  0.00  0.00    +0.000 A 
ATOM     15  C   UNL     1       4.417   6.281  17.163  0.00  0.00    +0.000 A 
ENDBRANCH   1  14
BRANCH   4  16
ATOM     16  C   UNL     1       0.560  10.735  20.146  0.00  0.00    +0.000 C 
ATOM     17  O   UNL     1       1.001  11.303  21.147  0.00  0.00    +0.000 OA
ATOM     18  N   UNL     1      -0.558  11.188  19.489  0.00  0.00    +0.000 N 
ATOM     19  H   UNL     1      -0.854  10.738  18.622  0.00  0.00    +0.000 HD
BRANCH  18  20
ATOM     20  C   UNL     1      -1.211  12.417  19.902  0.00  0.00    +0.000 C 
ATOM     21  C   UNL     1      -0.658  13.637  19.171  0.00  0.00    +0.000 C 
BRANCH  20  22
ATOM     22  C   UNL     1      -2.695  12.311  19.767  0.00  0.00    +0.000 A 
ATOM     23  C   UNL     1      -3.712  12.771  20.582  0.00  0.00    +0.000 A 
ATOM     24  C   UNL     1      -4.933  12.474  19.929  0.00  0.00    +0.000 A 
ATOM     25  C   UNL     1      -6.293  12.689  20.212  0.00  0.00    +0.000 A 
ATOM     26  C   UNL     1      -7.251  12.244  19.293  0.00  0.00    +0.000 A 
ATOM     27  C   UNL     1      -6.867  11.603  18.113  0.00  0.00    +0.000 A 
ATOM     28  C   UNL     1      -5.516  11.385  17.809  0.00  0.00    +0.000 A 
ATOM     29  C   UNL     1      -4.584  11.834  18.744  0.00  0.00    +0.000 A 
ATOM     30  O   UNL     1      -3.222  11.731  18.644  0.00  0.00    +0.000 OA
ENDBRANCH  20  22
ENDBRANCH  18  20
ENDBRANCH   4  16
TORSDOF 4
ENDMDL
MODEL 4
REMARK VINA RESULT:      -9.2      6.965      9.799
REMARK  Name = 
REMARK  6 active torsions:
REMARK  status: ('A' for Active; 'I' for Inactive)
REMARK    1  A    between atoms: C_1  and  C_2
REMARK    2  A    between atoms: C_6  and  C_7
REMARK    3  A    between atoms: C_10  and  C_11
REMARK    4  A    between atoms: N_13  and  C_14
REMARK    5  A    between atoms: C_14  and  C_15
REMARK    6  A    between atoms: C_14  and  C_16
REMARK                            x       y       z     vdW  Elec       q    Type
REMARK                         _______ _______ _______ _____ _____    ______ ____
ROOT
ATOM      1  C   UNL     1       2.535   6.910  19.171  0.00  0.00    +0.000 A 
ATOM      2  C   UNL     1       2.339   7.815  18.201  0.00  0.00    +0.000 A 
ATOM      3  C   UNL     1       1.665   9.059  18.504  0.00  0.00    +0.000 A 
ATOM      4  C   UNL     1       1.217   9.348  19.743  0.00  0.00    +0.000 A 
ATOM      5  C   UNL     1       1.430   8.327  20.812  0.00  0.00    +0.000 A 
ATOM      6  O   UNL     1       1.042   8.501  21.963  0.00  0.00    +0.000 OA
ATOM      7  N   UNL     1       2.084   7.172  20.442  0.00  0.00    +0.000 N 
ATOM      8  H   UNL     1       2.229   6.484  21.170  0.00  0.00    +0.000 HD
ENDROOT
BRANCH   1  14
ATOM      9  C   UNL     1       2.380   2.143  17.660  0.00  0.00    +0.000 C 
ATOM     10  C   UNL     1       3.159   3.312  18.186  0.00  0.00    +0.000 A 
ATOM     11  C   UNL     1       4.533   3.207  18.435  0.00  0.00    +0.000 A 
ATOM     12  C   UNL     1       5.246   4.303  18.921  0.00  0.00    +0.000 A 
ATOM     13  C   UNL     1       4.595   5.515  19.162  0.00  0.00    +0.000 A 
ATOM     14  C   UNL     1       3.223   5.640  18.915  0.00  0.00    +0.000 A 
ATOM     15  C   UNL     1       2.512   4.535  18.430  0.00  0.00    +0.000 A 
ENDBRANCH   1  14
BRANCH   4  16
ATOM     16  C   UNL     1       0.539  10.665  19.946  0.00  0.00    +0.000 C 
ATOM     17  O   UNL     1       0.928  11.440  20.821  0.00  0.00    +0.000 OA
ATOM     18  N   UNL     1      -0.524  10.966  19.130  0.00  0.00    +0.000 N 
ATOM     19  H   UNL     1      -0.773  10.335  18.368  0.00  0.00    +0.000 HD
BRANCH  18  20
ATOM     20  C   UNL     1      -1.174  12.262  19.212  0.00  0.00    +0.000 C 
ATOM     21  C   UNL     1      -0.590  13.263  18.219  0.00  0.00    +0.000 C 
BRANCH  20  22
ATOM     22  C   UNL     1      -2.655  12.132  19.067  0.00  0.00    +0.000 A 
ATOM     23  C   UNL     1      -3.418  11.531  18.083  0.00  0.00    +0.000 A 
ATOM     24  C   UNL     1      -4.770  11.623  18.493  0.00  0.00    +0.000 A 
ATOM     25  C   UNL     1      -6.003  11.202  17.964  0.00  0.00    +0.000 A 
ATOM     26  C   UNL     1      -7.173  11.476  18.682  0.00  0.00    +0.000 A 
ATOM     27  C   UNL     1      -7.121  12.151  19.905  0.00  0.00    +0.000 A 
ATOM     28  C   UNL     1      -5.901  12.573  20.452  0.00  0.00    +0.000 A 
ATOM     29  C   UNL     1      -4.752  12.290  19.713  0.00  0.00    +0.000 A 
ATOM     30  O   UNL     1      -3.466  12.604  20.063  0.00  0.00    +0.000 OA
ENDBRANCH  20  22
ENDBRANCH  18  20
ENDBRANCH   4  16
TORSDOF 4
ENDMDL
MODEL 5
REMARK VINA RESULT:      -9.2      7.316     10.047
REMARK  Name = 
REMARK  6 active torsions:
REMARK  status: ('A' for Active; 'I' for Inactive)
REMARK    1  A    between atoms: C_1  and  C_2
REMARK    2  A    between atoms: C_6  and  C_7
REMARK    3  A    between atoms: C_10  and  C_11
REMARK    4  A    between atoms: N_13  and  C_14
REMARK    5  A    between atoms: C_14  and  C_15
REMARK    6  A    between atoms: C_14  and  C_16
REMARK                            x       y       z     vdW  Elec       q    Type
REMARK                         _______ _______ _______ _____ _____    ______ ____
ROOT
ATOM      1  C   UNL     1       2.339   7.620  18.596  0.00  0.00    +0.000 A 
ATOM      2  C   UNL     1       2.008   8.701  17.876  0.00  0.00    +0.000 A 
ATOM      3  C   UNL     1       1.339   9.814  18.515  0.00  0.00    +0.000 A 
ATOM      4  C   UNL     1       1.028   9.806  19.828  0.00  0.00    +0.000 A 
ATOM      5  C   UNL     1       1.391   8.591  20.617  0.00  0.00    +0.000 A 
ATOM      6  O   UNL     1       1.134   8.492  21.813  0.00  0.00    +0.000 OA
ATOM      7  N   UNL     1       2.030   7.578  19.934  0.00  0.00    +0.000 N 
ATOM      8  H   UNL     1       2.276   6.757  20.474  0.00  0.00    +0.000 HD
ENDROOT
BRANCH   1  14
ATOM      9  C   UNL     1       2.452   2.738  17.509  0.00  0.00    +0.000 C 
ATOM     10  C   UNL     1       3.097   4.092  17.465  0.00  0.00    +0.000 A 
ATOM     11  C   UNL     1       4.346   4.274  16.859  0.00  0.00    +0.000 A 
ATOM     12  C   UNL     1       4.933   5.539  16.822  0.00  0.00    +0.000 A 
ATOM     13  C   UNL     1       4.278   6.635  17.389  0.00  0.00    +0.000 A 
ATOM     14  C   UNL     1       3.028   6.473  17.996  0.00  0.00    +0.000 A 
ATOM     15  C   UNL     1       2.445   5.199  18.032  0.00  0.00    +0.000 A 
ENDBRANCH   1  14
BRANCH   4  16
ATOM     16  C   UNL     1       0.343  11.010  20.386  0.00  0.00    +0.000 C 
ATOM     17  O   UNL     1       0.800  11.589  21.373  0.00  0.00    +0.000 OA
ATOM     18  N   UNL     1      -0.805  11.435  19.763  0.00  0.00    +0.000 N 
ATOM     19  H   UNL     1      -1.116  10.979  18.905  0.00  0.00    +0.000 HD
BRANCH  18  20
ATOM     20  C   UNL     1      -1.476  12.648  20.197  0.00  0.00    +0.000 C 
ATOM     21  C   UNL     1      -0.964  13.883  19.462  0.00  0.00    +0.000 C 
BRANCH  20  22
ATOM     22  C   UNL     1      -2.960  12.511  20.091  0.00  0.00    +0.000 A 
ATOM     23  C   UNL     1      -3.758  12.114  19.035  0.00  0.00    +0.000 A 
ATOM     24  C   UNL     1      -5.090  12.079  19.512  0.00  0.00    +0.000 A 
ATOM     25  C   UNL     1      -6.339  11.746  18.959  0.00  0.00    +0.000 A 
ATOM     26  C   UNL     1      -7.479  11.828  19.769  0.00  0.00    +0.000 A 
ATOM     27  C   UNL     1      -7.380  12.226  21.105  0.00  0.00    +0.000 A 
ATOM     28  C   UNL     1      -6.143  12.556  21.677  0.00  0.00    +0.000 A 
ATOM     29  C   UNL     1      -5.026  12.469  20.846  0.00  0.00    +0.000 A 
ATOM     30  O   UNL     1      -3.731  12.737  21.200  0.00  0.00    +0.000 OA
ENDBRANCH  20  22
ENDBRANCH  18  20
ENDBRANCH   4  16
TORSDOF 4
ENDMDL
MODEL 6
REMARK VINA RESULT:      -9.2      6.953      9.554
REMARK  Name = 
REMARK  6 active torsions:
REMARK  status: ('A' for Active; 'I' for Inactive)
REMARK    1  A    between atoms: C_1  and  C_2
REMARK    2  A    between atoms: C_6  and  C_7
REMARK    3  A    between atoms: C_10  and  C_11
REMARK    4  A    between atoms: N_13  and  C_14
REMARK    5  A    between atoms: C_14  and  C_15
REMARK    6  A    between atoms: C_14  and  C_16
REMARK                            x       y       z     vdW  Elec       q    Type
REMARK                         _______ _______ _______ _____ _____    ______ ____
ROOT
ATOM      1  C   UNL     1       2.604   7.058  18.487  0.00  0.00    +0.000 A 
ATOM      2  C   UNL     1       2.285   8.067  17.662  0.00  0.00    +0.000 A 
ATOM      3  C   UNL     1       1.605   9.233  18.183  0.00  0.00    +0.000 A 
ATOM      4  C   UNL     1       1.272   9.347  19.486  0.00  0.00    +0.000 A 
ATOM      5  C   UNL     1       1.622   8.212  20.392  0.00  0.00    +0.000 A 
ATOM      6  O   UNL     1       1.344   8.225  21.587  0.00  0.00    +0.000 OA
ATOM      7  N   UNL     1       2.273   7.141  19.817  0.00  0.00    +0.000 N 
ATOM      8  H   UNL     1       2.510   6.375  20.435  0.00  0.00    +0.000 HD
ENDROOT
BRANCH   1  14
ATOM      9  C   UNL     1       6.532   4.981  16.189  0.00  0.00    +0.000 C 
ATOM     10  C   UNL     1       5.211   4.836  16.884  0.00  0.00    +0.000 A 
ATOM     11  C   UNL     1       4.637   3.574  17.081  0.00  0.00    +0.000 A 
ATOM     12  C   UNL     1       3.409   3.454  17.732  0.00  0.00    +0.000 A 
ATOM     13  C   UNL     1       2.742   4.591  18.193  0.00  0.00    +0.000 A 
ATOM     14  C   UNL     1       3.303   5.861  18.008  0.00  0.00    +0.000 A 
ATOM     15  C   UNL     1       4.535   5.975  17.351  0.00  0.00    +0.000 A 
ENDBRANCH   1  14
BRANCH   4  16
ATOM     16  C   UNL     1       0.578  10.598  19.918  0.00  0.00    +0.000 C 
ATOM     17  O   UNL     1       0.989  11.240  20.884  0.00  0.00    +0.000 OA
ATOM     18  N   UNL     1      -0.528  10.990  19.203  0.00  0.00    +0.000 N 
ATOM     19  H   UNL     1      -0.799  10.477  18.364  0.00  0.00    +0.000 HD
BRANCH  18  20
ATOM     20  C   UNL     1      -1.201  12.240  19.510  0.00  0.00    +0.000 C 
ATOM     21  C   UNL     1      -0.578  13.425  18.778  0.00  0.00    +0.000 C 
BRANCH  20  22
ATOM     22  C   UNL     1      -2.670  12.138  19.257  0.00  0.00    +0.000 A 
ATOM     23  C   UNL     1      -3.369  11.567  18.211  0.00  0.00    +0.000 A 
ATOM     24  C   UNL     1      -4.746  11.675  18.524  0.00  0.00    +0.000 A 
ATOM     25  C   UNL     1      -5.944  11.283  17.901  0.00  0.00    +0.000 A 
ATOM     26  C   UNL     1      -7.158  11.566  18.538  0.00  0.00    +0.000 A 
ATOM     27  C   UNL     1      -7.183  12.218  19.774  0.00  0.00    +0.000 A 
ATOM     28  C   UNL     1      -6.000  12.610  20.414  0.00  0.00    +0.000 A 
ATOM     29  C   UNL     1      -4.805  12.321  19.754  0.00  0.00    +0.000 A 
ATOM     30  O   UNL     1      -3.543  12.607  20.202  0.00  0.00    +0.000 OA
ENDBRANCH  20  22
ENDBRANCH  18  20
ENDBRANCH   4  16
TORSDOF 4
ENDMDL
MODEL 7
REMARK VINA RESULT:      -9.2      7.268     10.270
REMARK  Name = 
REMARK  6 active torsions:
REMARK  status: ('A' for Active; 'I' for Inactive)
REMARK    1  A    between atoms: C_1  and  C_2
REMARK    2  A    between atoms: C_6  and  C_7
REMARK    3  A    between atoms: C_10  and  C_11
REMARK    4  A    between atoms: N_13  and  C_14
REMARK    5  A    between atoms: C_14  and  C_15
REMARK    6  A    between atoms: C_14  and  C_16
REMARK                            x       y       z     vdW  Elec       q    Type
REMARK                         _______ _______ _______ _____ _____    ______ ____
ROOT
ATOM      1  C   UNL     1       2.184   7.314  18.901  0.00  0.00    +0.000 A 
ATOM      2  C   UNL     1       1.995   8.385  18.116  0.00  0.00    +0.000 A 
ATOM      3  C   UNL     1       1.542   9.630  18.696  0.00  0.00    +0.000 A 
ATOM      4  C   UNL     1       1.297   9.759  20.017  0.00  0.00    +0.000 A 
ATOM      5  C   UNL     1       1.499   8.556  20.879  0.00  0.00    +0.000 A 
ATOM      6  O   UNL     1       1.286   8.579  22.087  0.00  0.00    +0.000 OA
ATOM      7  N   UNL     1       1.936   7.410  20.248  0.00  0.00    +0.000 N 
ATOM      8  H   UNL     1       2.074   6.598  20.837  0.00  0.00    +0.000 HD
ENDROOT
BRANCH   1  14
ATOM      9  C   UNL     1       1.588   2.375  18.370  0.00  0.00    +0.000 C 
ATOM     10  C   UNL     1       2.376   3.623  18.100  0.00  0.00    +0.000 A 
ATOM     11  C   UNL     1       3.551   3.581  17.340  0.00  0.00    +0.000 A 
ATOM     12  C   UNL     1       4.272   4.749  17.093  0.00  0.00    +0.000 A 
ATOM     13  C   UNL     1       3.827   5.971  17.602  0.00  0.00    +0.000 A 
ATOM     14  C   UNL     1       2.652   6.033  18.361  0.00  0.00    +0.000 A 
ATOM     15  C   UNL     1       1.935   4.856  18.607  0.00  0.00    +0.000 A 
ENDBRANCH   1  14
BRANCH   4  16
ATOM     16  C   UNL     1       0.839  11.093  20.511  0.00  0.00    +0.000 C 
ATOM     17  O   UNL     1       1.625  11.855  21.076  0.00  0.00    +0.000 OA
ATOM     18  N   UNL     1      -0.480  11.425  20.315  0.00  0.00    +0.000 N 
ATOM     19  H   UNL     1      -1.086  10.803  19.779  0.00  0.00    +0.000 HD
BRANCH  18  20
ATOM     20  C   UNL     1      -0.974  12.738  20.690  0.00  0.00    +0.000 C 
ATOM     21  C   UNL     1      -1.265  13.613  19.474  0.00  0.00    +0.000 C 
BRANCH  20  22
ATOM     22  C   UNL     1      -2.159  12.630  21.595  0.00  0.00    +0.000 A 
ATOM     23  C   UNL     1      -2.239  12.407  22.956  0.00  0.00    +0.000 A 
ATOM     24  C   UNL     1      -3.607  12.491  23.310  0.00  0.00    +0.000 A 
ATOM     25  C   UNL     1      -4.335  12.382  24.508  0.00  0.00    +0.000 A 
ATOM     26  C   UNL     1      -5.726  12.535  24.467  0.00  0.00    +0.000 A 
ATOM     27  C   UNL     1      -6.382  12.796  23.261  0.00  0.00    +0.000 A 
ATOM     28  C   UNL     1      -5.673  12.914  22.058  0.00  0.00    +0.000 A 
ATOM     29  C   UNL     1      -4.290  12.753  22.127  0.00  0.00    +0.000 A 
ATOM     30  O   UNL     1      -3.411  12.835  21.080  0.00  0.00    +0.000 OA
ENDBRANCH  20  22
ENDBRANCH  18  20
ENDBRANCH   4  16
TORSDOF 4
ENDMDL
MODEL 8
REMARK VINA RESULT:      -9.2      6.847      9.754
REMARK  Name = 
REMARK  6 active torsions:
REMARK  status: ('A' for Active; 'I' for Inactive)
REMARK    1  A    between atoms: C_1  and  C_2
REMARK    2  A    between atoms: C_6  and  C_7
REMARK    3  A    between atoms: C_10  and  C_11
REMARK    4  A    between atoms: N_13  and  C_14
REMARK    5  A    between atoms: C_14  and  C_15
REMARK    6  A    between atoms: C_14  and  C_16
REMARK                            x       y       z     vdW  Elec       q    Type
REMARK                         _______ _______ _______ _____ _____    ______ ____
ROOT
ATOM      1  C   UNL     1       2.740   6.975  18.461  0.00  0.00    +0.000 A 
ATOM      2  C   UNL     1       2.225   6.920  19.698  0.00  0.00    +0.000 A 
ATOM      3  C   UNL     1       1.494   8.053  20.223  0.00  0.00    +0.000 A 
ATOM      4  C   UNL     1       1.307   9.181  19.507  0.00  0.00    +0.000 A 
ATOM      5  C   UNL     1       1.895   9.234  18.134  0.00  0.00    +0.000 A 
ATOM      6  O   UNL     1       1.787  10.225  17.419  0.00  0.00    +0.000 OA
ATOM      7  N   UNL     1       2.573   8.112  17.708  0.00  0.00    +0.000 N 
ATOM      8  H   UNL     1       2.968   8.151  16.777  0.00  0.00    +0.000 HD
ENDROOT
BRANCH   1  14
ATOM      9  C   UNL     1       3.398   2.041  17.965  0.00  0.00    +0.000 C 
ATOM     10  C   UNL     1       3.814   3.444  17.636  0.00  0.00    +0.000 A 
ATOM     11  C   UNL     1       4.897   3.692  16.785  0.00  0.00    +0.000 A 
ATOM     12  C   UNL     1       5.271   5.002  16.485  0.00  0.00    +0.000 A 
ATOM     13  C   UNL     1       4.567   6.077  17.032  0.00  0.00    +0.000 A 
ATOM     14  C   UNL     1       3.479   5.849  17.882  0.00  0.00    +0.000 A 
ATOM     15  C   UNL     1       3.110   4.531  18.181  0.00  0.00    +0.000 A 
ENDBRANCH   1  14
BRANCH   4  16
ATOM     16  C   UNL     1       0.530  10.288  20.143  0.00  0.00    +0.000 C 
ATOM     17  O   UNL     1       0.713  10.580  21.326  0.00  0.00    +0.000 OA
ATOM     18  N   UNL     1      -0.386  10.952  19.364  0.00  0.00    +0.000 N 
ATOM     19  H   UNL     1      -0.460  10.734  18.370  0.00  0.00    +0.000 HD
BRANCH  18  20
ATOM     20  C   UNL     1      -1.113  12.094  19.890  0.00  0.00    +0.000 C 
ATOM     21  C   UNL     1      -0.426  13.415  19.559  0.00  0.00    +0.000 C 
BRANCH  20  22
ATOM     22  C   UNL     1      -2.538  12.078  19.443  0.00  0.00    +0.000 A 
ATOM     23  C   UNL     1      -3.119  11.583  18.290  0.00  0.00    +0.000 A 
ATOM     24  C   UNL     1      -4.518  11.752  18.425  0.00  0.00    +0.000 A 
ATOM     25  C   UNL     1      -5.639  11.447  17.635  0.00  0.00    +0.000 A 
ATOM     26  C   UNL     1      -6.913  11.769  18.119  0.00  0.00    +0.000 A 
ATOM     27  C   UNL     1      -7.072  12.376  19.368  0.00  0.00    +0.000 A 
ATOM     28  C   UNL     1      -5.966  12.682  20.174  0.00  0.00    +0.000 A 
ATOM     29  C   UNL     1      -4.710  12.355  19.664  0.00  0.00    +0.000 A 
ATOM     30  O   UNL     1      -3.506  12.558  20.284  0.00  0.00    +0.000 OA
ENDBRANCH  20  22
ENDBRANCH  18  20
ENDBRANCH   4  16
TORSDOF 4
ENDMDL
MODEL 9
REMARK VINA RESULT:      -9.1      6.829      9.913
REMARK  Name = 
REMARK  6 active torsions:
REMARK  status: ('A' for Active; 'I' for Inactive)
REMARK    1  A    between atoms: C_1  and  C_2
REMARK    2  A    between atoms: C_6  and  C_7
REMARK    3  A    between atoms: C_10  and  C_11
REMARK    4  A    between atoms: N_13  and  C_14
REMARK    5  A    between atoms: C_14  and  C_15
REMARK    6  A    between atoms: C_14  and  C_16
REMARK                            x       y       z     vdW  Elec       q    Type
REMARK                         _______ _______ _______ _____ _____    ______ ____
ROOT
ATOM      1  C   UNL     1       2.532   6.920  18.725  0.00  0.00    +0.000 A 
ATOM      2  C   UNL     1       2.044   6.982  19.973  0.00  0.00    +0.000 A 
ATOM      3  C   UNL     1       1.412   8.198  20.437  0.00  0.00    +0.000 A 
ATOM      4  C   UNL     1       1.293   9.290  19.654  0.00  0.00    +0.000 A 
ATOM      5  C   UNL     1       1.852   9.213  18.271  0.00  0.00    +0.000 A 
ATOM      6  O   UNL     1       1.802  10.163  17.496  0.00  0.00    +0.000 OA
ATOM      7  N   UNL     1       2.434   8.018  17.905  0.00  0.00    +0.000 N 
ATOM      8  H   UNL     1       2.809   7.969  16.966  0.00  0.00    +0.000 HD
ENDROOT
BRANCH   1  14
ATOM      9  C   UNL     1       2.749   1.930  18.459  0.00  0.00    +0.000 C 
ATOM     10  C   UNL     1       3.292   3.273  18.072  0.00  0.00    +0.000 A 
ATOM     11  C   UNL     1       4.398   3.384  17.222  0.00  0.00    +0.000 A 
ATOM     12  C   UNL     1       4.890   4.641  16.867  0.00  0.00    +0.000 A 
ATOM     13  C   UNL     1       4.281   5.799  17.357  0.00  0.00    +0.000 A 
ATOM     14  C   UNL     1       3.172   5.707  18.205  0.00  0.00    +0.000 A 
ATOM     15  C   UNL     1       2.684   4.443  18.560  0.00  0.00    +0.000 A 
ENDBRANCH   1  14
BRANCH   4  16
ATOM     16  C   UNL     1       0.617  10.490  20.233  0.00  0.00    +0.000 C 
ATOM     17  O   UNL     1       0.955  10.929  21.333  0.00  0.00    +0.000 OA
ATOM     18  N   UNL     1      -0.388  11.070  19.498  0.00  0.00    +0.000 N 
ATOM     19  H   UNL     1      -0.594  10.727  18.560  0.00  0.00    +0.000 HD
BRANCH  18  20
ATOM     20  C   UNL     1      -1.030  12.289  19.957  0.00  0.00    +0.000 C 
ATOM     21  C   UNL     1      -0.434  13.534  19.307  0.00  0.00    +0.000 C 
BRANCH  20  22
ATOM     22  C   UNL     1      -2.511  12.220  19.776  0.00  0.00    +0.000 A 
ATOM     23  C   UNL     1      -3.541  12.714  20.554  0.00  0.00    +0.000 A 
ATOM     24  C   UNL     1      -4.748  12.442  19.865  0.00  0.00    +0.000 A 
ATOM     25  C   UNL     1      -6.110  12.695  20.103  0.00  0.00    +0.000 A 
ATOM     26  C   UNL     1      -7.050  12.265  19.158  0.00  0.00    +0.000 A 
ATOM     27  C   UNL     1      -6.646  11.603  17.996  0.00  0.00    +0.000 A 
ATOM     28  C   UNL     1      -5.292  11.347  17.738  0.00  0.00    +0.000 A 
ATOM     29  C   UNL     1      -4.378  11.782  18.698  0.00  0.00    +0.000 A 
ATOM     30  O   UNL     1      -3.018  11.642  18.642  0.00  0.00    +0.000 OA
ENDBRANCH  20  22
ENDBRANCH  18  20
ENDBRANCH   4  16
TORSDOF 4
ENDMDL
