MODEL 1
REMARK VINA RESULT:      -9.2      0.000      0.000
REMARK  Name = 
REMARK  7 active torsions:
REMARK  status: ('A' for Active; 'I' for Inactive)
REMARK    1  A    between atoms: C_1  and  C_2
REMARK    2  A    between atoms: C_5  and  C_6
REMARK    3  A    between atoms: C_9  and  N_10
REMARK    4  A    between atoms: C_11  and  C_13
REMARK    5  A    between atoms: C_17  and  C_18
REMARK    6  A    between atoms: C_21  and  C_22
REMARK    7  A    between atoms: C_28  and  C_29
REMARK                            x       y       z     vdW  Elec       q    Type
REMARK                         _______ _______ _______ _____ _____    ______ ____
ROOT
ATOM      1  N   UNL     1       2.026   8.001  19.477  0.00  0.00    +0.000 N 
ATOM      2  C   UNL     1       2.658   7.814  18.254  0.00  0.00    +0.000 C 
ATOM      3  O   UNL     1       2.517   8.559  17.281  0.00  0.00    +0.000 OA
ATOM      4  H   UNL     1       2.097   7.314  20.217  0.00  0.00    +0.000 HD
ENDROOT
BRANCH   1   8
ATOM      5  C   UNL     1      -0.110  10.777  20.315  0.00  0.00    +0.000 A 
ATOM      6  N   UNL     1       0.561  11.270  19.268  0.00  0.00    +0.000 NA
ATOM      7  N   UNL     1       1.382  10.270  18.928  0.00  0.00    +0.000 N 
ATOM      8  C   UNL     1       1.248   9.136  19.691  0.00  0.00    +0.000 A 
ATOM      9  C   UNL     1       0.251   9.425  20.608  0.00  0.00    +0.000 A 
ATOM     10  C   UNL     1      -0.351   8.573  21.660  0.00  0.00    +0.000 C 
ATOM     11  H   UNL     1       2.036  10.393  18.157  0.00  0.00    +0.000 HD
BRANCH   5  16
ATOM     12  C   UNL     1      -4.247  13.298  21.213  0.00  0.00    +0.000 C 
ATOM     13  C   UNL     1      -2.920  12.749  21.550  0.00  0.00    +0.000 A 
ATOM     14  C   UNL     1      -2.178  12.704  22.709  0.00  0.00    +0.000 A 
ATOM     15  C   UNL     1      -1.011  11.963  22.400  0.00  0.00    +0.000 A 
ATOM     16  C   UNL     1      -1.100  11.612  21.066  0.00  0.00    +0.000 A 
ATOM     17  O   UNL     1      -2.257  12.118  20.542  0.00  0.00    +0.000 OA
ENDBRANCH   5  16
ENDBRANCH   1   8
BRANCH   2  18
ATOM     18  C   UNL     1       3.578   6.661  18.102  0.00  0.00    +0.000 A 
ATOM     19  C   UNL     1       3.472   5.611  19.028  0.00  0.00    +0.000 A 
ATOM     20  C   UNL     1       4.173   4.423  18.834  0.00  0.00    +0.000 A 
ATOM     21  C   UNL     1       4.958   4.264  17.695  0.00  0.00    +0.000 A 
ATOM     22  C   UNL     1       5.069   5.299  16.752  0.00  0.00    +0.000 A 
ATOM     23  C   UNL     1       4.393   6.515  16.978  0.00  0.00    +0.000 A 
BRANCH  22  24
ATOM     24  C   UNL     1       5.810   5.106  15.510  0.00  0.00    +0.000 A 
ATOM     25  N   UNL     1       7.007   5.654  15.253  0.00  0.00    +0.000 NA
ATOM     26  O   UNL     1       7.346   5.149  14.001  0.00  0.00    +0.000 OA
ATOM     27  C   UNL     1       6.313   4.348  13.608  0.00  0.00    +0.000 A 
ATOM     28  N   UNL     1       5.345   4.287  14.505  0.00  0.00    +0.000 NA
BRANCH  27  29
ATOM     29  C   UNL     1       6.442   3.714  12.273  0.00  0.00    +0.000 C 
ATOM     30  F   UNL     1       6.863   2.422  12.334  0.00  0.00    +0.000 F 
ATOM     31  F   UNL     1       5.262   3.702  11.594  0.00  0.00    +0.000 F 
ATOM     32  F   UNL     1       7.335   4.372  11.485  0.00  0.00    +0.000 F 
ENDBRANCH  27  29
ENDBRANCH  22  24
ENDBRANCH   2  18
TORSDOF 5
ENDMDL
MODEL 2
REMARK VINA RESULT:      -9.1      0.751      1.054
REMARK  Name = 
REMARK  7 active torsions:
REMARK  status: ('A' for Active; 'I' for Inactive)
REMARK    1  A    between atoms: C_1  and  C_2
REMARK    2  A    between atoms: C_5  and  C_6
REMARK    3  A    between atoms: C_9  and  N_10
REMARK    4  A    between atoms: C_11  and  C_13
REMARK    5  A    between atoms: C_17  and  C_18
REMARK    6  A    between atoms: C_21  and  C_22
REMARK    7  A    between atoms: C_28  and  C_29
REMARK                            x       y       z     vdW  Elec       q    Type
REMARK                         _______ _______ _______ _____ _____    ______ ____
ROOT
ATOM      1  N   UNL     1       1.996   7.944  19.489  0.00  0.00    +0.000 N 
ATOM      2  C   UNL     1       2.644   7.784  18.271  0.00  0.00    +0.000 C 
ATOM      3  O   UNL     1       2.609   8.610  17.355  0.00  0.00    +0.000 OA
ATOM      4  H   UNL     1       1.975   7.199  20.176  0.00  0.00    +0.000 HD
ENDROOT
BRANCH   1   8
ATOM      5  C   UNL     1       0.223  10.896  20.543  0.00  0.00    +0.000 A 
ATOM      6  N   UNL     1       0.610  11.249  19.313  0.00  0.00    +0.000 NA
ATOM      7  N   UNL     1       1.289  10.179  18.882  0.00  0.00    +0.000 N 
ATOM      8  C   UNL     1       1.329   9.132  19.772  0.00  0.00    +0.000 A 
ATOM      9  C   UNL     1       0.615   9.562  20.878  0.00  0.00    +0.000 A 
ATOM     10  C   UNL     1       0.286   8.849  22.135  0.00  0.00    +0.000 C 
ATOM     11  H   UNL     1       1.722  10.192  17.961  0.00  0.00    +0.000 HD
BRANCH   5  16
ATOM     12  C   UNL     1      -3.258  12.565  23.604  0.00  0.00    +0.000 C 
ATOM     13  C   UNL     1      -2.024  12.671  22.803  0.00  0.00    +0.000 A 
ATOM     14  C   UNL     1      -1.051  13.638  22.682  0.00  0.00    +0.000 A 
ATOM     15  C   UNL     1      -0.075  13.106  21.805  0.00  0.00    +0.000 A 
ATOM     16  C   UNL     1      -0.515  11.851  21.429  0.00  0.00    +0.000 A 
ATOM     17  O   UNL     1      -1.722  11.599  22.019  0.00  0.00    +0.000 OA
ENDBRANCH   5  16
ENDBRANCH   1   8
BRANCH   2  18
ATOM     18  C   UNL     1       3.447   6.557  18.051  0.00  0.00    +0.000 A 
ATOM     19  C   UNL     1       3.125   5.419  18.806  0.00  0.00    +0.000 A 
ATOM     20  C   UNL     1       3.713   4.189  18.519  0.00  0.00    +0.000 A 
ATOM     21  C   UNL     1       4.602   4.083  17.453  0.00  0.00    +0.000 A 
ATOM     22  C   UNL     1       4.930   5.209  16.679  0.00  0.00    +0.000 A 
ATOM     23  C   UNL     1       4.366   6.459  17.004  0.00  0.00    +0.000 A 
BRANCH  22  24
ATOM     24  C   UNL     1       5.784   5.088  15.502  0.00  0.00    +0.000 A 
ATOM     25  N   UNL     1       7.012   5.620  15.403  0.00  0.00    +0.000 NA
ATOM     26  O   UNL     1       7.460   5.199  14.154  0.00  0.00    +0.000 OA
ATOM     27  C   UNL     1       6.453   4.458  13.605  0.00  0.00    +0.000 A 
ATOM     28  N   UNL     1       5.402   4.358  14.398  0.00  0.00    +0.000 NA
BRANCH  27  29
ATOM     29  C   UNL     1       6.698   3.922  12.243  0.00  0.00    +0.000 C 
ATOM     30  F   UNL     1       5.555   3.740  11.528  0.00  0.00    +0.000 F 
ATOM     31  F   UNL     1       7.489   4.745  11.502  0.00  0.00    +0.000 F 
ATOM     32  F   UNL     1       7.324   2.715  12.280  0.00  0.00    +0.000 F 
ENDBRANCH  27  29
ENDBRANCH  22  24
ENDBRANCH   2  18
TORSDOF 5
ENDMDL
MODEL 3
REMARK VINA RESULT:      -9.0      0.686      1.259
REMARK  Name = 
REMARK  7 active torsions:
REMARK  status: ('A' for Active; 'I' for Inactive)
REMARK    1  A    between atoms: C_1  and  C_2
REMARK    2  A    between atoms: C_5  and  C_6
REMARK    3  A    between atoms: C_9  and  N_10
REMARK    4  A    between atoms: C_11  and  C_13
REMARK    5  A    between atoms: C_17  and  C_18
REMARK    6  A    between atoms: C_21  and  C_22
REMARK    7  A    between atoms: C_28  and  C_29
REMARK                            x       y       z     vdW  Elec       q    Type
REMARK                         _______ _______ _______ _____ _____    ______ ____
ROOT
ATOM      1  N   UNL     1       1.882   8.091  19.243  0.00  0.00    +0.000 N 
ATOM      2  C   UNL     1       2.690   7.973  18.119  0.00  0.00    +0.000 C 
ATOM      3  O   UNL     1       2.716   8.791  17.196  0.00  0.00    +0.000 OA
ATOM      4  H   UNL     1       1.824   7.348  19.929  0.00  0.00    +0.000 HD
ENDROOT
BRANCH   1   8
ATOM      5  C   UNL     1      -0.157  10.948  20.047  0.00  0.00    +0.000 A 
ATOM      6  N   UNL     1       0.186  11.219  18.783  0.00  0.00    +0.000 NA
ATOM      7  N   UNL     1       0.961  10.183  18.443  0.00  0.00    +0.000 N 
ATOM      8  C   UNL     1       1.107   9.233  19.425  0.00  0.00    +0.000 A 
ATOM      9  C   UNL     1       0.362   9.694  20.497  0.00  0.00    +0.000 A 
ATOM     10  C   UNL     1       0.111   9.074  21.820  0.00  0.00    +0.000 C 
ATOM     11  H   UNL     1       1.384  10.150  17.517  0.00  0.00    +0.000 HD
BRANCH   5  16
ATOM     12  C   UNL     1      -1.298  14.141  23.621  0.00  0.00    +0.000 C 
ATOM     13  C   UNL     1      -1.565  13.346  22.408  0.00  0.00    +0.000 A 
ATOM     14  C   UNL     1      -2.615  13.296  21.518  0.00  0.00    +0.000 A 
ATOM     15  C   UNL     1      -2.233  12.377  20.511  0.00  0.00    +0.000 A 
ATOM     16  C   UNL     1      -0.978  11.907  20.852  0.00  0.00    +0.000 A 
ATOM     17  O   UNL     1      -0.584  12.481  22.028  0.00  0.00    +0.000 OA
ENDBRANCH   5  16
ENDBRANCH   1   8
BRANCH   2  18
ATOM     18  C   UNL     1       3.595   6.802  18.017  0.00  0.00    +0.000 A 
ATOM     19  C   UNL     1       3.439   5.769  18.954  0.00  0.00    +0.000 A 
ATOM     20  C   UNL     1       4.127   4.567  18.803  0.00  0.00    +0.000 A 
ATOM     21  C   UNL     1       4.949   4.377  17.696  0.00  0.00    +0.000 A 
ATOM     22  C   UNL     1       5.111   5.396  16.742  0.00  0.00    +0.000 A 
ATOM     23  C   UNL     1       4.447   6.626  16.925  0.00  0.00    +0.000 A 
BRANCH  22  24
ATOM     24  C   UNL     1       5.892   5.172  15.531  0.00  0.00    +0.000 A 
ATOM     25  N   UNL     1       7.143   5.623  15.344  0.00  0.00    +0.000 NA
ATOM     26  O   UNL     1       7.498   5.122  14.096  0.00  0.00    +0.000 OA
ATOM     27  C   UNL     1       6.422   4.421  13.633  0.00  0.00    +0.000 A 
ATOM     28  N   UNL     1       5.410   4.420  14.482  0.00  0.00    +0.000 NA
BRANCH  27  29
ATOM     29  C   UNL     1       6.562   3.812  12.287  0.00  0.00    +0.000 C 
ATOM     30  F   UNL     1       7.384   4.519  11.465  0.00  0.00    +0.000 F 
ATOM     31  F   UNL     1       7.068   2.551  12.345  0.00  0.00    +0.000 F 
ATOM     32  F   UNL     1       5.366   3.721  11.646  0.00  0.00    +0.000 F 
ENDBRANCH  27  29
ENDBRANCH  22  24
ENDBRANCH   2  18
TORSDOF 5
ENDMDL
MODEL 4
REMARK VINA RESULT:      -9.0      6.498      8.510
REMARK  Name = 
REMARK  7 active torsions:
REMARK  status: ('A' for Active; 'I' for Inactive)
REMARK    1  A    between atoms: C_1  and  C_2
REMARK    2  A    between atoms: C_5  and  C_6
REMARK    3  A    between atoms: C_9  and  N_10
REMARK    4  A    between atoms: C_11  and  C_13
REMARK    5  A    between atoms: C_17  and  C_18
REMARK    6  A    between atoms: C_21  and  C_22
REMARK    7  A    between atoms: C_28  and  C_29
REMARK                            x       y       z     vdW  Elec       q    Type
REMARK                         _______ _______ _______ _____ _____    ______ ____
ROOT
ATOM      1  N   UNL     1       7.678   8.865  17.497  0.00  0.00    +0.000 N 
ATOM      2  C   UNL     1       7.641   7.531  17.883  0.00  0.00    +0.000 C 
ATOM      3  O   UNL     1       8.319   7.056  18.798  0.00  0.00    +0.000 OA
ATOM      4  H   UNL     1       7.175   9.190  16.680  0.00  0.00    +0.000 HD
ENDROOT
BRANCH   1   8
ATOM      5  C   UNL     1       9.494  11.476  19.187  0.00  0.00    +0.000 A 
ATOM      6  N   UNL     1       9.919  10.392  19.846  0.00  0.00    +0.000 NA
ATOM      7  N   UNL     1       9.257   9.390  19.256  0.00  0.00    +0.000 N 
ATOM      8  C   UNL     1       8.443   9.776  18.219  0.00  0.00    +0.000 A 
ATOM      9  C   UNL     1       8.590  11.151  18.128  0.00  0.00    +0.000 A 
ATOM     10  C   UNL     1       7.991  12.111  17.171  0.00  0.00    +0.000 C 
ATOM     11  H   UNL     1       9.382   8.436  19.589  0.00  0.00    +0.000 HD
BRANCH   5  16
ATOM     12  C   UNL     1      11.011  16.135  18.681  0.00  0.00    +0.000 C 
ATOM     13  C   UNL     1      10.608  14.939  19.444  0.00  0.00    +0.000 A 
ATOM     14  C   UNL     1      10.380  14.699  20.781  0.00  0.00    +0.000 A 
ATOM     15  C   UNL     1       9.938  13.357  20.869  0.00  0.00    +0.000 A 
ATOM     16  C   UNL     1       9.937  12.849  19.583  0.00  0.00    +0.000 A 
ATOM     17  O   UNL     1      10.375  13.813  18.717  0.00  0.00    +0.000 OA
ENDBRANCH   5  16
ENDBRANCH   1   8
BRANCH   2  18
ATOM     18  C   UNL     1       6.721   6.612  17.170  0.00  0.00    +0.000 A 
ATOM     19  C   UNL     1       7.220   5.920  16.055  0.00  0.00    +0.000 A 
ATOM     20  C   UNL     1       6.471   4.909  15.456  0.00  0.00    +0.000 A 
ATOM     21  C   UNL     1       5.233   4.561  15.989  0.00  0.00    +0.000 A 
ATOM     22  C   UNL     1       4.721   5.236  17.110  0.00  0.00    +0.000 A 
ATOM     23  C   UNL     1       5.464   6.288  17.683  0.00  0.00    +0.000 A 
BRANCH  22  24
ATOM     24  C   UNL     1       3.471   4.814  17.733  0.00  0.00    +0.000 A 
ATOM     25  N   UNL     1       2.396   5.605  17.880  0.00  0.00    +0.000 NA
ATOM     26  O   UNL     1       1.442   4.771  18.455  0.00  0.00    +0.000 OA
ATOM     27  C   UNL     1       2.032   3.551  18.616  0.00  0.00    +0.000 A 
ATOM     28  N   UNL     1       3.280   3.527  18.183  0.00  0.00    +0.000 NA
BRANCH  27  29
ATOM     29  C   UNL     1       1.201   2.495  19.246  0.00  0.00    +0.000 C 
ATOM     30  F   UNL     1       1.873   1.327  19.430  0.00  0.00    +0.000 F 
ATOM     31  F   UNL     1       0.738   2.869  20.469  0.00  0.00    +0.000 F 
ATOM     32  F   UNL     1       0.109   2.195  18.494  0.00  0.00    +0.000 F 
ENDBRANCH  27  29
ENDBRANCH  22  24
ENDBRANCH   2  18
TORSDOF 5
ENDMDL
MODEL 5
REMARK VINA RESULT:      -9.0      6.625      8.682
REMARK  Name = 
REMARK  7 active torsions:
REMARK  status: ('A' for Active; 'I' for Inactive)
REMARK    1  A    between atoms: C_1  and  C_2
REMARK    2  A    between atoms: C_5  and  C_6
REMARK    3  A    between atoms: C_9  and  N_10
REMARK    4  A    between atoms: C_11  and  C_13
REMARK    5  A    between atoms: C_17  and  C_18
REMARK    6  A    between atoms: C_21  and  C_22
REMARK    7  A    between atoms: C_28  and  C_29
REMARK                            x       y       z     vdW  Elec       q    Type
REMARK                         _______ _______ _______ _____ _____    ______ ____
ROOT
ATOM      1  N   UNL     1       7.649   8.761  17.462  0.00  0.00    +0.000 N 
ATOM      2  C   UNL     1       7.616   7.425  17.842  0.00  0.00    +0.000 C 
ATOM      3  O   UNL     1       8.278   6.953  18.769  0.00  0.00    +0.000 OA
ATOM      4  H   UNL     1       7.161   9.086  16.635  0.00  0.00    +0.000 HD
ENDROOT
BRANCH   1   8
ATOM      5  C   UNL     1       9.408  11.381  19.199  0.00  0.00    +0.000 A 
ATOM      6  N   UNL     1       9.821  10.299  19.868  0.00  0.00    +0.000 NA
ATOM      7  N   UNL     1       9.179   9.294  19.262  0.00  0.00    +0.000 N 
ATOM      8  C   UNL     1       8.391   9.677  18.203  0.00  0.00    +0.000 A 
ATOM      9  C   UNL     1       8.534  11.051  18.116  0.00  0.00    +0.000 A 
ATOM     10  C   UNL     1       7.955  12.009  17.144  0.00  0.00    +0.000 C 
ATOM     11  H   UNL     1       9.300   8.341  19.598  0.00  0.00    +0.000 HD
BRANCH   5  16
ATOM     12  C   UNL     1      12.000  15.570  19.210  0.00  0.00    +0.000 C 
ATOM     13  C   UNL     1      10.935  14.659  19.671  0.00  0.00    +0.000 A 
ATOM     14  C   UNL     1       9.884  14.796  20.549  0.00  0.00    +0.000 A 
ATOM     15  C   UNL     1       9.169  13.575  20.499  0.00  0.00    +0.000 A 
ATOM     16  C   UNL     1       9.834  12.756  19.606  0.00  0.00    +0.000 A 
ATOM     17  O   UNL     1      10.931  13.414  19.121  0.00  0.00    +0.000 OA
ENDBRANCH   5  16
ENDBRANCH   1   8
BRANCH   2  18
ATOM     18  C   UNL     1       6.719   6.502  17.106  0.00  0.00    +0.000 A 
ATOM     19  C   UNL     1       7.192   5.945  15.907  0.00  0.00    +0.000 A 
ATOM     20  C   UNL     1       6.480   4.934  15.266  0.00  0.00    +0.000 A 
ATOM     21  C   UNL     1       5.307   4.449  15.838  0.00  0.00    +0.000 A 
ATOM     22  C   UNL     1       4.822   4.986  17.042  0.00  0.00    +0.000 A 
ATOM     23  C   UNL     1       5.524   6.041  17.661  0.00  0.00    +0.000 A 
BRANCH  22  24
ATOM     24  C   UNL     1       3.648   4.421  17.698  0.00  0.00    +0.000 A 
ATOM     25  N   UNL     1       2.848   3.494  17.147  0.00  0.00    +0.000 NA
ATOM     26  O   UNL     1       1.919   3.217  18.145  0.00  0.00    +0.000 OA
ATOM     27  C   UNL     1       2.234   4.013  19.208  0.00  0.00    +0.000 A 
ATOM     28  N   UNL     1       3.293   4.769  18.982  0.00  0.00    +0.000 NA
BRANCH  27  29
ATOM     29  C   UNL     1       1.349   3.907  20.395  0.00  0.00    +0.000 C 
ATOM     30  F   UNL     1       0.748   5.084  20.717  0.00  0.00    +0.000 F 
ATOM     31  F   UNL     1       0.350   3.002  20.211  0.00  0.00    +0.000 F 
ATOM     32  F   UNL     1       2.033   3.509  21.501  0.00  0.00    +0.000 F 
ENDBRANCH  27  29
ENDBRANCH  22  24
ENDBRANCH   2  18
TORSDOF 5
ENDMDL
MODEL 6
REMARK VINA RESULT:      -9.0      1.030      1.267
REMARK  Name = 
REMARK  7 active torsions:
REMARK  status: ('A' for Active; 'I' for Inactive)
REMARK    1  A    between atoms: C_1  and  C_2
REMARK    2  A    between atoms: C_5  and  C_6
REMARK    3  A    between atoms: C_9  and  N_10
REMARK    4  A    between atoms: C_11  and  C_13
REMARK    5  A    between atoms: C_17  and  C_18
REMARK    6  A    between atoms: C_21  and  C_22
REMARK    7  A    between atoms: C_28  and  C_29
REMARK                            x       y       z     vdW  Elec       q    Type
REMARK                         _______ _______ _______ _____ _____    ______ ____
ROOT
ATOM      1  N   UNL     1       2.068   7.946  19.525  0.00  0.00    +0.000 N 
ATOM      2  C   UNL     1       2.623   7.754  18.266  0.00  0.00    +0.000 C 
ATOM      3  O   UNL     1       2.530   8.561  17.338  0.00  0.00    +0.000 OA
ATOM      4  H   UNL     1       2.088   7.215  20.227  0.00  0.00    +0.000 HD
ENDROOT
BRANCH   1   8
ATOM      5  C   UNL     1       0.439  10.955  20.650  0.00  0.00    +0.000 A 
ATOM      6  N   UNL     1       0.638  11.232  19.357  0.00  0.00    +0.000 NA
ATOM      7  N   UNL     1       1.257  10.139  18.896  0.00  0.00    +0.000 N 
ATOM      8  C   UNL     1       1.438   9.149  19.831  0.00  0.00    +0.000 A 
ATOM      9  C   UNL     1       0.889   9.644  21.002  0.00  0.00    +0.000 A 
ATOM     10  C   UNL     1       0.754   9.007  22.334  0.00  0.00    +0.000 C 
ATOM     11  H   UNL     1       1.550  10.097  17.922  0.00  0.00    +0.000 HD
BRANCH   5  16
ATOM     12  C   UNL     1      -0.256  15.260  22.942  0.00  0.00    +0.000 C 
ATOM     13  C   UNL     1      -0.554  13.848  22.637  0.00  0.00    +0.000 A 
ATOM     14  C   UNL     1      -1.569  12.993  23.001  0.00  0.00    +0.000 A 
ATOM     15  C   UNL     1      -1.329  11.781  22.310  0.00  0.00    +0.000 A 
ATOM     16  C   UNL     1      -0.171  11.960  21.575  0.00  0.00    +0.000 A 
ATOM     17  O   UNL     1       0.316  13.218  21.800  0.00  0.00    +0.000 OA
ENDBRANCH   5  16
ENDBRANCH   1   8
BRANCH   2  18
ATOM     18  C   UNL     1       3.393   6.512  18.014  0.00  0.00    +0.000 A 
ATOM     19  C   UNL     1       3.009   5.351  18.703  0.00  0.00    +0.000 A 
ATOM     20  C   UNL     1       3.567   4.117  18.376  0.00  0.00    +0.000 A 
ATOM     21  C   UNL     1       4.487   4.031  17.335  0.00  0.00    +0.000 A 
ATOM     22  C   UNL     1       4.877   5.180  16.626  0.00  0.00    +0.000 A 
ATOM     23  C   UNL     1       4.342   6.432  16.993  0.00  0.00    +0.000 A 
BRANCH  22  24
ATOM     24  C   UNL     1       5.765   5.085  15.473  0.00  0.00    +0.000 A 
ATOM     25  N   UNL     1       6.983   5.646  15.410  0.00  0.00    +0.000 NA
ATOM     26  O   UNL     1       7.474   5.243  14.172  0.00  0.00    +0.000 OA
ATOM     27  C   UNL     1       6.501   4.482  13.592  0.00  0.00    +0.000 A 
ATOM     28  N   UNL     1       5.431   4.354  14.355  0.00  0.00    +0.000 NA
BRANCH  27  29
ATOM     29  C   UNL     1       6.795   3.959  12.234  0.00  0.00    +0.000 C 
ATOM     30  F   UNL     1       7.550   2.828  12.252  0.00  0.00    +0.000 F 
ATOM     31  F   UNL     1       5.663   3.656  11.544  0.00  0.00    +0.000 F 
ATOM     32  F   UNL     1       7.477   4.863  11.481  0.00  0.00    +0.000 F 
ENDBRANCH  27  29
ENDBRANCH  22  24
ENDBRANCH   2  18
TORSDOF 5
ENDMDL
MODEL 7
REMARK VINA RESULT:      -8.9      6.499      8.462
REMARK  Name = 
REMARK  7 active torsions:
REMARK  status: ('A' for Active; 'I' for Inactive)
REMARK    1  A    between atoms: C_1  and  C_2
REMARK    2  A    between atoms: C_5  and  C_6
REMARK    3  A    between atoms: C_9  and  N_10
REMARK    4  A    between atoms: C_11  and  C_13
REMARK    5  A    between atoms: C_17  and  C_18
REMARK    6  A    between atoms: C_21  and  C_22
REMARK    7  A    between atoms: C_28  and  C_29
REMARK                            x       y       z     vdW  Elec       q    Type
REMARK                         _______ _______ _______ _____ _____    ______ ____
ROOT
ATOM      1  N   UNL     1       7.613   8.600  17.385  0.00  0.00    +0.000 N 
ATOM      2  C   UNL     1       7.516   7.274  17.787  0.00  0.00    +0.000 C 
ATOM      3  O   UNL     1       8.108   6.801  18.761  0.00  0.00    +0.000 OA
ATOM      4  H   UNL     1       7.184   8.922  16.525  0.00  0.00    +0.000 HD
ENDROOT
BRANCH   1   8
ATOM      5  C   UNL     1       9.331  11.202  19.188  0.00  0.00    +0.000 A 
ATOM      6  N   UNL     1       9.747  10.111  19.842  0.00  0.00    +0.000 NA
ATOM      7  N   UNL     1       9.120   9.113  19.210  0.00  0.00    +0.000 N 
ATOM      8  C   UNL     1       8.339   9.508  18.150  0.00  0.00    +0.000 A 
ATOM      9  C   UNL     1       8.471  10.885  18.090  0.00  0.00    +0.000 A 
ATOM     10  C   UNL     1       7.894  11.856  17.130  0.00  0.00    +0.000 C 
ATOM     11  H   UNL     1       9.245   8.154  19.530  0.00  0.00    +0.000 HD
BRANCH   5  16
ATOM     12  C   UNL     1       9.497  15.290  21.931  0.00  0.00    +0.000 C 
ATOM     13  C   UNL     1       9.881  14.429  20.798  0.00  0.00    +0.000 A 
ATOM     14  C   UNL     1      10.837  14.527  19.812  0.00  0.00    +0.000 A 
ATOM     15  C   UNL     1      10.754  13.328  19.063  0.00  0.00    +0.000 A 
ATOM     16  C   UNL     1       9.741  12.573  19.624  0.00  0.00    +0.000 A 
ATOM     17  O   UNL     1       9.190  13.262  20.669  0.00  0.00    +0.000 OA
ENDBRANCH   5  16
ENDBRANCH   1   8
BRANCH   2  18
ATOM     18  C   UNL     1       6.634   6.363  17.018  0.00  0.00    +0.000 A 
ATOM     19  C   UNL     1       7.144   5.798  15.839  0.00  0.00    +0.000 A 
ATOM     20  C   UNL     1       6.442   4.797  15.171  0.00  0.00    +0.000 A 
ATOM     21  C   UNL     1       5.241   4.330  15.699  0.00  0.00    +0.000 A 
ATOM     22  C   UNL     1       4.719   4.875  16.883  0.00  0.00    +0.000 A 
ATOM     23  C   UNL     1       5.412   5.920  17.527  0.00  0.00    +0.000 A 
BRANCH  22  24
ATOM     24  C   UNL     1       3.513   4.327  17.493  0.00  0.00    +0.000 A 
ATOM     25  N   UNL     1       2.632   3.542  16.854  0.00  0.00    +0.000 NA
ATOM     26  O   UNL     1       1.699   3.218  17.833  0.00  0.00    +0.000 OA
ATOM     27  C   UNL     1       2.093   3.848  18.977  0.00  0.00    +0.000 A 
ATOM     28  N   UNL     1       3.207   4.541  18.819  0.00  0.00    +0.000 NA
BRANCH  27  29
ATOM     29  C   UNL     1       1.221   3.667  20.164  0.00  0.00    +0.000 C 
ATOM     30  F   UNL     1       0.143   2.876  19.917  0.00  0.00    +0.000 F 
ATOM     31  F   UNL     1       1.884   3.098  21.207  0.00  0.00    +0.000 F 
ATOM     32  F   UNL     1       0.731   4.852  20.618  0.00  0.00    +0.000 F 
ENDBRANCH  27  29
ENDBRANCH  22  24
ENDBRANCH   2  18
TORSDOF 5
ENDMDL
MODEL 8
REMARK VINA RESULT:      -8.8      6.730      8.665
REMARK  Name = 
REMARK  7 active torsions:
REMARK  status: ('A' for Active; 'I' for Inactive)
REMARK    1  A    between atoms: C_1  and  C_2
REMARK    2  A    between atoms: C_5  and  C_6
REMARK    3  A    between atoms: C_9  and  N_10
REMARK    4  A    between atoms: C_11  and  C_13
REMARK    5  A    between atoms: C_17  and  C_18
REMARK    6  A    between atoms: C_21  and  C_22
REMARK    7  A    between atoms: C_28  and  C_29
REMARK                            x       y       z     vdW  Elec       q    Type
REMARK                         _______ _______ _______ _____ _____    ______ ____
ROOT
ATOM      1  N   UNL     1       7.709   8.846  17.686  0.00  0.00    +0.000 N 
ATOM      2  C   UNL     1       7.792   7.531  18.127  0.00  0.00    +0.000 C 
ATOM      3  O   UNL     1       8.586   7.138  18.985  0.00  0.00    +0.000 OA
ATOM      4  H   UNL     1       7.107   9.105  16.913  0.00  0.00    +0.000 HD
ENDROOT
BRANCH   1   8
ATOM      5  C   UNL     1       9.543  11.628  19.053  0.00  0.00    +0.000 A 
ATOM      6  N   UNL     1      10.036  10.612  19.770  0.00  0.00    +0.000 NA
ATOM      7  N   UNL     1       9.370   9.550  19.302  0.00  0.00    +0.000 N 
ATOM      8  C   UNL     1       8.488   9.831  18.286  0.00  0.00    +0.000 A 
ATOM      9  C   UNL     1       8.590  11.197  18.078  0.00  0.00    +0.000 A 
ATOM     10  C   UNL     1       7.911  12.062  17.084  0.00  0.00    +0.000 C 
ATOM     11  H   UNL     1       9.540   8.629  19.702  0.00  0.00    +0.000 HD
BRANCH   5  16
ATOM     12  C   UNL     1       9.713  16.052  21.215  0.00  0.00    +0.000 C 
ATOM     13  C   UNL     1      10.112  15.036  20.223  0.00  0.00    +0.000 A 
ATOM     14  C   UNL     1      11.099  14.982  19.265  0.00  0.00    +0.000 A 
ATOM     15  C   UNL     1      11.014  13.693  18.685  0.00  0.00    +0.000 A 
ATOM     16  C   UNL     1       9.969  13.039  19.311  0.00  0.00    +0.000 A 
ATOM     17  O   UNL     1       9.401  13.875  20.232  0.00  0.00    +0.000 OA
ENDBRANCH   5  16
ENDBRANCH   1   8
BRANCH   2  18
ATOM     18  C   UNL     1       6.860   6.531  17.552  0.00  0.00    +0.000 A 
ATOM     19  C   UNL     1       7.089   6.104  16.234  0.00  0.00    +0.000 A 
ATOM     20  C   UNL     1       6.369   5.038  15.701  0.00  0.00    +0.000 A 
ATOM     21  C   UNL     1       5.439   4.369  16.493  0.00  0.00    +0.000 A 
ATOM     22  C   UNL     1       5.203   4.775  17.817  0.00  0.00    +0.000 A 
ATOM     23  C   UNL     1       5.903   5.884  18.334  0.00  0.00    +0.000 A 
BRANCH  22  24
ATOM     24  C   UNL     1       4.303   4.023  18.683  0.00  0.00    +0.000 A 
ATOM     25  N   UNL     1       4.689   3.016  19.482  0.00  0.00    +0.000 NA
ATOM     26  O   UNL     1       3.525   2.653  20.152  0.00  0.00    +0.000 OA
ATOM     27  C   UNL     1       2.533   3.468  19.687  0.00  0.00    +0.000 A 
ATOM     28  N   UNL     1       2.964   4.330  18.784  0.00  0.00    +0.000 NA
BRANCH  27  29
ATOM     29  C   UNL     1       1.178   3.242  20.247  0.00  0.00    +0.000 C 
ATOM     30  F   UNL     1       0.495   4.396  20.473  0.00  0.00    +0.000 F 
ATOM     31  F   UNL     1       0.401   2.490  19.421  0.00  0.00    +0.000 F 
ATOM     32  F   UNL     1       1.225   2.586  21.438  0.00  0.00    +0.000 F 
ENDBRANCH  27  29
ENDBRANCH  22  24
ENDBRANCH   2  18
TORSDOF 5
ENDMDL
MODEL 9
REMARK VINA RESULT:      -8.6      1.027      1.464
REMARK  Name = 
REMARK  7 active torsions:
REMARK  status: ('A' for Active; 'I' for Inactive)
REMARK    1  A    between atoms: C_1  and  C_2
REMARK    2  A    between atoms: C_5  and  C_6
REMARK    3  A    between atoms: C_9  and  N_10
REMARK    4  A    between atoms: C_11  and  C_13
REMARK    5  A    between atoms: C_17  and  C_18
REMARK    6  A    between atoms: C_21  and  C_22
REMARK    7  A    between atoms: C_28  and  C_29
REMARK                            x       y       z     vdW  Elec       q    Type
REMARK                         _______ _______ _______ _____ _____    ______ ____
ROOT
ATOM      1  N   UNL     1       2.612   8.275  18.939  0.00  0.00    +0.000 N 
ATOM      2  C   UNL     1       2.570   7.040  18.304  0.00  0.00    +0.000 C 
ATOM      3  O   UNL     1       1.551   6.551  17.808  0.00  0.00    +0.000 OA
ATOM      4  H   UNL     1       3.448   8.594  19.414  0.00  0.00    +0.000 HD
ENDROOT
BRANCH   1   8
ATOM      5  C   UNL     1      -0.258  10.414  19.332  0.00  0.00    +0.000 A 
ATOM      6  N   UNL     1      -0.243  10.238  18.006  0.00  0.00    +0.000 NA
ATOM      7  N   UNL     1       0.823   9.454  17.810  0.00  0.00    +0.000 N 
ATOM      8  C   UNL     1       1.481   9.085  18.959  0.00  0.00    +0.000 A 
ATOM      9  C   UNL     1       0.780   9.685  19.991  0.00  0.00    +0.000 A 
ATOM     10  C   UNL     1       0.997   9.614  21.456  0.00  0.00    +0.000 C 
ATOM     11  H   UNL     1       1.082   9.180  16.864  0.00  0.00    +0.000 HD
BRANCH   5  16
ATOM     12  C   UNL     1      -2.628  12.805  22.929  0.00  0.00    +0.000 C 
ATOM     13  C   UNL     1      -2.373  12.415  21.530  0.00  0.00    +0.000 A 
ATOM     14  C   UNL     1      -2.888  12.827  20.321  0.00  0.00    +0.000 A 
ATOM     15  C   UNL     1      -2.169  12.121  19.326  0.00  0.00    +0.000 A 
ATOM     16  C   UNL     1      -1.266  11.307  19.985  0.00  0.00    +0.000 A 
ATOM     17  O   UNL     1      -1.413  11.469  21.335  0.00  0.00    +0.000 OA
ENDBRANCH   5  16
ENDBRANCH   1   8
BRANCH   2  18
ATOM     18  C   UNL     1       3.824   6.257  18.193  0.00  0.00    +0.000 A 
ATOM     19  C   UNL     1       4.173   5.422  19.266  0.00  0.00    +0.000 A 
ATOM     20  C   UNL     1       5.233   4.525  19.150  0.00  0.00    +0.000 A 
ATOM     21  C   UNL     1       5.930   4.434  17.949  0.00  0.00    +0.000 A 
ATOM     22  C   UNL     1       5.591   5.255  16.860  0.00  0.00    +0.000 A 
ATOM     23  C   UNL     1       4.546   6.192  17.000  0.00  0.00    +0.000 A 
BRANCH  22  24
ATOM     24  C   UNL     1       6.251   5.100  15.569  0.00  0.00    +0.000 A 
ATOM     25  N   UNL     1       7.460   5.602  15.274  0.00  0.00    +0.000 NA
ATOM     26  O   UNL     1       7.702   5.156  13.979  0.00  0.00    +0.000 OA
ATOM     27  C   UNL     1       6.608   4.432  13.601  0.00  0.00    +0.000 A 
ATOM     28  N   UNL     1       5.689   4.366  14.548  0.00  0.00    +0.000 NA
BRANCH  27  29
ATOM     29  C   UNL     1       6.629   3.874  12.226  0.00  0.00    +0.000 C 
ATOM     30  F   UNL     1       7.233   4.696  11.327  0.00  0.00    +0.000 F 
ATOM     31  F   UNL     1       7.290   2.686  12.166  0.00  0.00    +0.000 F 
ATOM     32  F   UNL     1       5.375   3.643  11.754  0.00  0.00    +0.000 F 
ENDBRANCH  27  29
ENDBRANCH  22  24
ENDBRANCH   2  18
TORSDOF 5
ENDMDL
