MODEL 1
REMARK VINA RESULT:      -8.4      0.000      0.000
REMARK  Name = 
REMARK  5 active torsions:
REMARK  status: ('A' for Active; 'I' for Inactive)
REMARK    1  A    between atoms: C_1  and  C_2
REMARK    2  A    between atoms: C_4  and  C_5
REMARK    3  A    between atoms: C_8  and  S_9
REMARK    4  A    between atoms: S_9  and  N_12
REMARK    5  A    between atoms: N_12  and  C_13
REMARK                            x       y       z     vdW  Elec       q    Type
REMARK                         _______ _______ _______ _____ _____    ______ ____
ROOT
ATOM      1  S   UNL     1       2.720   3.070  18.339  0.00  0.00    +0.000 S 
ATOM      2  O   UNL     1       2.541   2.099  19.390  0.00  0.00    +0.000 OA
ATOM      3  O   UNL     1       2.072   2.936  17.056  0.00  0.00    +0.000 OA
ENDROOT
BRANCH   1   7
ATOM      4  C   UNL     1       1.711   7.182  20.090  0.00  0.00    +0.000 A 
ATOM      5  C   UNL     1       2.089   7.058  18.744  0.00  0.00    +0.000 A 
ATOM      6  C   UNL     1       2.396   5.805  18.203  0.00  0.00    +0.000 A 
ATOM      7  C   UNL     1       2.345   4.669  19.016  0.00  0.00    +0.000 A 
ATOM      8  C   UNL     1       1.966   4.773  20.355  0.00  0.00    +0.000 A 
ATOM      9  C   UNL     1       1.642   6.028  20.885  0.00  0.00    +0.000 A 
BRANCH   4  13
ATOM     10  C   UNL     1       0.331  11.899  20.677  0.00  0.00    +0.000 C 
ATOM     11  C   UNL     1       0.780  10.502  20.843  0.00  0.00    +0.000 A 
ATOM     12  N   UNL     1       0.943   9.559  19.936  0.00  0.00    +0.000 NA
ATOM     13  C   UNL     1       1.389   8.477  20.662  0.00  0.00    +0.000 A 
ATOM     14  C   UNL     1       1.450   8.815  21.995  0.00  0.00    +0.000 A 
ATOM     15  O   UNL     1       1.068  10.114  22.123  0.00  0.00    +0.000 OA
ENDBRANCH   4  13
ENDBRANCH   1   7
BRANCH   1  16
ATOM     16  N   UNL     1       4.397   3.148  18.057  0.00  0.00    +0.000 NA
ATOM     17  H   UNL     1       4.648   2.407  17.399  0.00  0.00    +0.000 HD
BRANCH  16  18
ATOM     18  C   UNL     1       4.991   4.485  17.813  0.00  0.00    +0.000 C 
ATOM     19  C   UNL     1       5.266   4.678  16.307  0.00  0.00    +0.000 C 
ATOM     20  C   UNL     1       5.696   6.132  16.044  0.00  0.00    +0.000 C 
ATOM     21  C   UNL     1       6.729   6.575  17.018  0.00  0.00    +0.000 A 
ATOM     22  N   UNL     1       7.502   7.640  16.995  0.00  0.00    +0.000 NA
ATOM     23  C   UNL     1       8.196   7.545  18.172  0.00  0.00    +0.000 A 
ATOM     24  N   UNL     1       7.905   6.479  18.925  0.00  0.00    +0.000 NA
ATOM     25  N   UNL     1       6.963   5.894  18.174  0.00  0.00    +0.000 N 
ATOM     26  C   UNL     1       6.298   4.682  18.588  0.00  0.00    +0.000 C 
ENDBRANCH  16  18
ENDBRANCH   1  16
TORSDOF 4
ENDMDL
MODEL 2
REMARK VINA RESULT:      -8.3      2.789      6.996
REMARK  Name = 
REMARK  5 active torsions:
REMARK  status: ('A' for Active; 'I' for Inactive)
REMARK    1  A    between atoms: C_1  and  C_2
REMARK    2  A    between atoms: C_4  and  C_5
REMARK    3  A    between atoms: C_8  and  S_9
REMARK    4  A    between atoms: S_9  and  N_12
REMARK    5  A    between atoms: N_12  and  C_13
REMARK                            x       y       z     vdW  Elec       q    Type
REMARK                         _______ _______ _______ _____ _____    ______ ____
ROOT
ATOM      1  S   UNL     1       2.004   4.283  20.597  0.00  0.00    +0.000 S 
ATOM      2  O   UNL     1       0.655   4.154  20.105  0.00  0.00    +0.000 OA
ATOM      3  O   UNL     1       2.536   3.401  21.609  0.00  0.00    +0.000 OA
ENDROOT
BRANCH   1   7
ATOM      4  C   UNL     1       4.814   4.319  16.979  0.00  0.00    +0.000 A 
ATOM      5  C   UNL     1       3.450   4.033  16.815  0.00  0.00    +0.000 A 
ATOM      6  C   UNL     1       2.586   4.021  17.915  0.00  0.00    +0.000 A 
ATOM      7  C   UNL     1       3.091   4.280  19.193  0.00  0.00    +0.000 A 
ATOM      8  C   UNL     1       4.443   4.573  19.375  0.00  0.00    +0.000 A 
ATOM      9  C   UNL     1       5.298   4.600  18.266  0.00  0.00    +0.000 A 
BRANCH   4  13
ATOM     10  C   UNL     1       6.740   3.887  12.441  0.00  0.00    +0.000 C 
ATOM     11  C   UNL     1       6.479   4.131  13.873  0.00  0.00    +0.000 A 
ATOM     12  N   UNL     1       5.369   3.963  14.565  0.00  0.00    +0.000 NA
ATOM     13  C   UNL     1       5.719   4.334  15.845  0.00  0.00    +0.000 A 
ATOM     14  C   UNL     1       7.034   4.739  15.859  0.00  0.00    +0.000 A 
ATOM     15  O   UNL     1       7.536   4.607  14.602  0.00  0.00    +0.000 OA
ENDBRANCH   4  13
ENDBRANCH   1   7
BRANCH   1  16
ATOM     16  N   UNL     1       2.133   5.873  21.191  0.00  0.00    +0.000 NA
ATOM     17  H   UNL     1       3.087   6.015  21.529  0.00  0.00    +0.000 HD
BRANCH  16  18
ATOM     18  C   UNL     1       1.548   6.961  20.371  0.00  0.00    +0.000 C 
ATOM     19  C   UNL     1       2.563   7.432  19.308  0.00  0.00    +0.000 C 
ATOM     20  C   UNL     1       1.880   8.417  18.343  0.00  0.00    +0.000 C 
ATOM     21  C   UNL     1       1.099   9.444  19.083  0.00  0.00    +0.000 A 
ATOM     22  N   UNL     1       0.570  10.569  18.650  0.00  0.00    +0.000 NA
ATOM     23  C   UNL     1      -0.072  11.056  19.758  0.00  0.00    +0.000 A 
ATOM     24  N   UNL     1       0.030  10.303  20.858  0.00  0.00    +0.000 NA
ATOM     25  N   UNL     1       0.764   9.283  20.393  0.00  0.00    +0.000 N 
ATOM     26  C   UNL     1       1.128   8.163  21.226  0.00  0.00    +0.000 C 
ENDBRANCH  16  18
ENDBRANCH   1  16
TORSDOF 4
ENDMDL
MODEL 3
REMARK VINA RESULT:      -8.1      3.694      6.688
REMARK  Name = 
REMARK  5 active torsions:
REMARK  status: ('A' for Active; 'I' for Inactive)
REMARK    1  A    between atoms: C_1  and  C_2
REMARK    2  A    between atoms: C_4  and  C_5
REMARK    3  A    between atoms: C_8  and  S_9
REMARK    4  A    between atoms: S_9  and  N_12
REMARK    5  A    between atoms: N_12  and  C_13
REMARK                            x       y       z     vdW  Elec       q    Type
REMARK                         _______ _______ _______ _____ _____    ______ ____
ROOT
ATOM      1  S   UNL     1       6.779   4.884  17.062  0.00  0.00    +0.000 S 
ATOM      2  O   UNL     1       5.605   5.162  16.273  0.00  0.00    +0.000 OA
ATOM      3  O   UNL     1       7.856   4.059  16.566  0.00  0.00    +0.000 OA
ENDROOT
BRANCH   1   7
ATOM      4  C   UNL     1       8.459   8.895  18.506  0.00  0.00    +0.000 A 
ATOM      5  C   UNL     1       7.715   8.823  17.317  0.00  0.00    +0.000 A 
ATOM      6  C   UNL     1       7.199   7.602  16.872  0.00  0.00    +0.000 A 
ATOM      7  C   UNL     1       7.440   6.438  17.609  0.00  0.00    +0.000 A 
ATOM      8  C   UNL     1       8.172   6.492  18.796  0.00  0.00    +0.000 A 
ATOM      9  C   UNL     1       8.671   7.721  19.244  0.00  0.00    +0.000 A 
BRANCH   4  13
ATOM     10  C   UNL     1      10.054  12.594  21.380  0.00  0.00    +0.000 C 
ATOM     11  C   UNL     1       9.672  11.701  20.269  0.00  0.00    +0.000 A 
ATOM     12  N   UNL     1       9.159  10.487  20.306  0.00  0.00    +0.000 NA
ATOM     13  C   UNL     1       8.999  10.156  18.978  0.00  0.00    +0.000 A 
ATOM     14  C   UNL     1       9.454  11.190  18.192  0.00  0.00    +0.000 A 
ATOM     15  O   UNL     1       9.883  12.190  19.008  0.00  0.00    +0.000 OA
ENDBRANCH   4  13
ENDBRANCH   1   7
BRANCH   1  16
ATOM     16  N   UNL     1       6.214   4.171  18.502  0.00  0.00    +0.000 NA
ATOM     17  H   UNL     1       6.847   4.431  19.261  0.00  0.00    +0.000 HD
BRANCH  16  18
ATOM     18  C   UNL     1       4.762   4.256  18.786  0.00  0.00    +0.000 C 
ATOM     19  C   UNL     1       4.432   5.596  19.476  0.00  0.00    +0.000 C 
ATOM     20  C   UNL     1       2.905   5.757  19.588  0.00  0.00    +0.000 C 
ATOM     21  C   UNL     1       2.268   4.516  20.103  0.00  0.00    +0.000 A 
ATOM     22  N   UNL     1       1.043   4.324  20.547  0.00  0.00    +0.000 NA
ATOM     23  C   UNL     1       1.021   2.983  20.823  0.00  0.00    +0.000 A 
ATOM     24  N   UNL     1       2.161   2.328  20.582  0.00  0.00    +0.000 NA
ATOM     25  N   UNL     1       2.924   3.323  20.113  0.00  0.00    +0.000 N 
ATOM     26  C   UNL     1       4.282   3.104  19.677  0.00  0.00    +0.000 C 
ENDBRANCH  16  18
ENDBRANCH   1  16
TORSDOF 4
ENDMDL
MODEL 4
REMARK VINA RESULT:      -8.0      3.701      6.699
REMARK  Name = 
REMARK  5 active torsions:
REMARK  status: ('A' for Active; 'I' for Inactive)
REMARK    1  A    between atoms: C_1  and  C_2
REMARK    2  A    between atoms: C_4  and  C_5
REMARK    3  A    between atoms: C_8  and  S_9
REMARK    4  A    between atoms: S_9  and  N_12
REMARK    5  A    between atoms: N_12  and  C_13
REMARK                            x       y       z     vdW  Elec       q    Type
REMARK                         _______ _______ _______ _____ _____    ______ ____
ROOT
ATOM      1  S   UNL     1       6.764   4.883  17.049  0.00  0.00    +0.000 S 
ATOM      2  O   UNL     1       5.586   5.149  16.261  0.00  0.00    +0.000 OA
ATOM      3  O   UNL     1       7.855   4.082  16.546  0.00  0.00    +0.000 OA
ENDROOT
BRANCH   1   7
ATOM      4  C   UNL     1       8.426   8.912  18.463  0.00  0.00    +0.000 A 
ATOM      5  C   UNL     1       8.665   7.745  19.206  0.00  0.00    +0.000 A 
ATOM      6  C   UNL     1       8.162   6.512  18.779  0.00  0.00    +0.000 A 
ATOM      7  C   UNL     1       7.398   6.444  17.610  0.00  0.00    +0.000 A 
ATOM      8  C   UNL     1       7.156   7.592  16.855  0.00  0.00    +0.000 A 
ATOM      9  C   UNL     1       7.678   8.820  17.280  0.00  0.00    +0.000 A 
BRANCH   4  13
ATOM     10  C   UNL     1       9.894  13.636  18.592  0.00  0.00    +0.000 C 
ATOM     11  C   UNL     1       9.550  12.231  18.883  0.00  0.00    +0.000 A 
ATOM     12  N   UNL     1       9.032  11.312  18.092  0.00  0.00    +0.000 NA
ATOM     13  C   UNL     1       8.944  10.196  18.896  0.00  0.00    +0.000 A 
ATOM     14  C   UNL     1       9.395  10.507  20.159  0.00  0.00    +0.000 A 
ATOM     15  O   UNL     1       9.792  11.807  20.162  0.00  0.00    +0.000 OA
ENDBRANCH   4  13
ENDBRANCH   1   7
BRANCH   1  16
ATOM     16  N   UNL     1       6.210   4.147  18.481  0.00  0.00    +0.000 NA
ATOM     17  H   UNL     1       6.848   4.396  19.239  0.00  0.00    +0.000 HD
BRANCH  16  18
ATOM     18  C   UNL     1       4.759   4.227  18.777  0.00  0.00    +0.000 C 
ATOM     19  C   UNL     1       4.427   5.572  19.455  0.00  0.00    +0.000 C 
ATOM     20  C   UNL     1       2.900   5.725  19.578  0.00  0.00    +0.000 C 
ATOM     21  C   UNL     1       2.275   4.486  20.112  0.00  0.00    +0.000 A 
ATOM     22  N   UNL     1       1.055   4.291  20.569  0.00  0.00    +0.000 NA
ATOM     23  C   UNL     1       1.043   2.952  20.859  0.00  0.00    +0.000 A 
ATOM     24  N   UNL     1       2.186   2.302  20.615  0.00  0.00    +0.000 NA
ATOM     25  N   UNL     1       2.939   3.297  20.129  0.00  0.00    +0.000 N 
ATOM     26  C   UNL     1       4.295   3.082  19.684  0.00  0.00    +0.000 C 
ENDBRANCH  16  18
ENDBRANCH   1  16
TORSDOF 4
ENDMDL
MODEL 5
REMARK VINA RESULT:      -8.0      3.471      8.643
REMARK  Name = 
REMARK  5 active torsions:
REMARK  status: ('A' for Active; 'I' for Inactive)
REMARK    1  A    between atoms: C_1  and  C_2
REMARK    2  A    between atoms: C_4  and  C_5
REMARK    3  A    between atoms: C_8  and  S_9
REMARK    4  A    between atoms: S_9  and  N_12
REMARK    5  A    between atoms: N_12  and  C_13
REMARK                            x       y       z     vdW  Elec       q    Type
REMARK                         _______ _______ _______ _____ _____    ______ ____
ROOT
ATOM      1  S   UNL     1       0.683   9.309  20.923  0.00  0.00    +0.000 S 
ATOM      2  O   UNL     1      -0.514   8.603  21.307  0.00  0.00    +0.000 OA
ATOM      3  O   UNL     1       1.538   9.948  21.896  0.00  0.00    +0.000 OA
ENDROOT
BRANCH   1   7
ATOM      4  C   UNL     1       3.165   6.475  18.315  0.00  0.00    +0.000 A 
ATOM      5  C   UNL     1       2.726   6.069  19.586  0.00  0.00    +0.000 A 
ATOM      6  C   UNL     1       1.967   6.928  20.386  0.00  0.00    +0.000 A 
ATOM      7  C   UNL     1       1.658   8.211  19.924  0.00  0.00    +0.000 A 
ATOM      8  C   UNL     1       2.081   8.630  18.661  0.00  0.00    +0.000 A 
ATOM      9  C   UNL     1       2.826   7.757  17.859  0.00  0.00    +0.000 A 
BRANCH   4  13
ATOM     10  C   UNL     1       6.223   4.697  14.854  0.00  0.00    +0.000 C 
ATOM     11  C   UNL     1       5.281   4.897  15.973  0.00  0.00    +0.000 A 
ATOM     12  N   UNL     1       4.772   6.015  16.453  0.00  0.00    +0.000 NA
ATOM     13  C   UNL     1       3.953   5.591  17.476  0.00  0.00    +0.000 A 
ATOM     14  C   UNL     1       4.029   4.221  17.585  0.00  0.00    +0.000 A 
ATOM     15  O   UNL     1       4.873   3.763  16.621  0.00  0.00    +0.000 OA
ENDBRANCH   4  13
ENDBRANCH   1   7
BRANCH   1  16
ATOM     16  N   UNL     1       0.185  10.506  19.820  0.00  0.00    +0.000 NA
ATOM     17  H   UNL     1       0.935  10.651  19.140  0.00  0.00    +0.000 HD
BRANCH  16  18
ATOM     18  C   UNL     1      -1.194  10.412  19.282  0.00  0.00    +0.000 C 
ATOM     19  C   UNL     1      -1.156  10.172  17.758  0.00  0.00    +0.000 C 
ATOM     20  C   UNL     1      -2.577   9.882  17.246  0.00  0.00    +0.000 C 
ATOM     21  C   UNL     1      -3.556  10.863  17.786  0.00  0.00    +0.000 A 
ATOM     22  N   UNL     1      -4.800  11.095  17.421  0.00  0.00    +0.000 NA
ATOM     23  C   UNL     1      -5.209  12.054  18.310  0.00  0.00    +0.000 A 
ATOM     24  N   UNL     1      -4.292  12.436  19.205  0.00  0.00    +0.000 NA
ATOM     25  N   UNL     1      -3.264  11.654  18.856  0.00  0.00    +0.000 N 
ATOM     26  C   UNL     1      -2.008  11.679  19.567  0.00  0.00    +0.000 C 
ENDBRANCH  16  18
ENDBRANCH   1  16
TORSDOF 4
ENDMDL
MODEL 6
REMARK VINA RESULT:      -7.9      2.402      3.205
REMARK  Name = 
REMARK  5 active torsions:
REMARK  status: ('A' for Active; 'I' for Inactive)
REMARK    1  A    between atoms: C_1  and  C_2
REMARK    2  A    between atoms: C_4  and  C_5
REMARK    3  A    between atoms: C_8  and  S_9
REMARK    4  A    between atoms: S_9  and  N_12
REMARK    5  A    between atoms: N_12  and  C_13
REMARK                            x       y       z     vdW  Elec       q    Type
REMARK                         _______ _______ _______ _____ _____    ______ ____
ROOT
ATOM      1  S   UNL     1       2.740   5.560  19.691  0.00  0.00    +0.000 S 
ATOM      2  O   UNL     1       2.337   5.130  21.007  0.00  0.00    +0.000 OA
ATOM      3  O   UNL     1       2.468   4.771  18.513  0.00  0.00    +0.000 OA
ENDROOT
BRANCH   1   7
ATOM      4  C   UNL     1       1.085   9.787  19.071  0.00  0.00    +0.000 A 
ATOM      5  C   UNL     1       1.651   9.082  17.997  0.00  0.00    +0.000 A 
ATOM      6  C   UNL     1       2.157   7.791  18.179  0.00  0.00    +0.000 A 
ATOM      7  C   UNL     1       2.114   7.204  19.448  0.00  0.00    +0.000 A 
ATOM      8  C   UNL     1       1.549   7.887  20.525  0.00  0.00    +0.000 A 
ATOM      9  C   UNL     1       1.029   9.173  20.331  0.00  0.00    +0.000 A 
BRANCH   4  13
ATOM     10  C   UNL     1       0.602  14.709  18.878  0.00  0.00    +0.000 C 
ATOM     11  C   UNL     1       0.421  13.245  18.827  0.00  0.00    +0.000 A 
ATOM     12  N   UNL     1       1.279  12.282  19.102  0.00  0.00    +0.000 NA
ATOM     13  C   UNL     1       0.557  11.128  18.893  0.00  0.00    +0.000 A 
ATOM     14  C   UNL     1      -0.711  11.452  18.471  0.00  0.00    +0.000 A 
ATOM     15  O   UNL     1      -0.814  12.808  18.430  0.00  0.00    +0.000 OA
ENDBRANCH   4  13
ENDBRANCH   1   7
BRANCH   1  16
ATOM     16  N   UNL     1       4.425   5.790  19.772  0.00  0.00    +0.000 NA
ATOM     17  H   UNL     1       4.733   5.587  20.725  0.00  0.00    +0.000 HD
BRANCH  16  18
ATOM     18  C   UNL     1       5.247   5.230  18.672  0.00  0.00    +0.000 C 
ATOM     19  C   UNL     1       6.747   5.377  19.001  0.00  0.00    +0.000 C 
ATOM     20  C   UNL     1       7.582   4.621  17.952  0.00  0.00    +0.000 C 
ATOM     21  C   UNL     1       7.125   4.933  16.572  0.00  0.00    +0.000 A 
ATOM     22  N   UNL     1       7.705   4.678  15.418  0.00  0.00    +0.000 NA
ATOM     23  C   UNL     1       6.795   5.139  14.505  0.00  0.00    +0.000 A 
ATOM     24  N   UNL     1       5.682   5.671  15.022  0.00  0.00    +0.000 NA
ATOM     25  N   UNL     1       5.916   5.512  16.331  0.00  0.00    +0.000 N 
ATOM     26  C   UNL     1       4.961   5.920  17.333  0.00  0.00    +0.000 C 
ENDBRANCH  16  18
ENDBRANCH   1  16
TORSDOF 4
ENDMDL
MODEL 7
REMARK VINA RESULT:      -7.9      3.386      8.527
REMARK  Name = 
REMARK  5 active torsions:
REMARK  status: ('A' for Active; 'I' for Inactive)
REMARK    1  A    between atoms: C_1  and  C_2
REMARK    2  A    between atoms: C_4  and  C_5
REMARK    3  A    between atoms: C_8  and  S_9
REMARK    4  A    between atoms: S_9  and  N_12
REMARK    5  A    between atoms: N_12  and  C_13
REMARK                            x       y       z     vdW  Elec       q    Type
REMARK                         _______ _______ _______ _____ _____    ______ ____
ROOT
ATOM      1  S   UNL     1       0.675   9.263  21.125  0.00  0.00    +0.000 S 
ATOM      2  O   UNL     1      -0.554   8.631  21.536  0.00  0.00    +0.000 OA
ATOM      3  O   UNL     1       1.592   9.843  22.078  0.00  0.00    +0.000 OA
ENDROOT
BRANCH   1   7
ATOM      4  C   UNL     1       2.976   6.293  18.504  0.00  0.00    +0.000 A 
ATOM      5  C   UNL     1       2.740   7.602  18.054  0.00  0.00    +0.000 A 
ATOM      6  C   UNL     1       2.040   8.514  18.850  0.00  0.00    +0.000 A 
ATOM      7  C   UNL     1       1.554   8.112  20.098  0.00  0.00    +0.000 A 
ATOM      8  C   UNL     1       1.784   6.817  20.564  0.00  0.00    +0.000 A 
ATOM      9  C   UNL     1       2.502   5.915  19.769  0.00  0.00    +0.000 A 
BRANCH   4  13
ATOM     10  C   UNL     1       6.036   4.232  15.206  0.00  0.00    +0.000 C 
ATOM     11  C   UNL     1       5.042   4.520  16.257  0.00  0.00    +0.000 A 
ATOM     12  N   UNL     1       4.653   5.680  16.749  0.00  0.00    +0.000 NA
ATOM     13  C   UNL     1       3.702   5.338  17.686  0.00  0.00    +0.000 A 
ATOM     14  C   UNL     1       3.580   3.969  17.734  0.00  0.00    +0.000 A 
ATOM     15  O   UNL     1       4.429   3.432  16.818  0.00  0.00    +0.000 OA
ENDBRANCH   4  13
ENDBRANCH   1   7
BRANCH   1  16
ATOM     16  N   UNL     1       0.225  10.494  20.038  0.00  0.00    +0.000 NA
ATOM     17  H   UNL     1       1.015  10.681  19.417  0.00  0.00    +0.000 HD
BRANCH  16  18
ATOM     18  C   UNL     1      -1.113  10.396  19.406  0.00  0.00    +0.000 C 
ATOM     19  C   UNL     1      -0.968  10.202  17.882  0.00  0.00    +0.000 C 
ATOM     20  C   UNL     1      -2.347   9.906  17.266  0.00  0.00    +0.000 C 
ATOM     21  C   UNL     1      -3.376  10.855  17.767  0.00  0.00    +0.000 A 
ATOM     22  N   UNL     1      -4.596  11.080  17.325  0.00  0.00    +0.000 NA
ATOM     23  C   UNL     1      -5.081  12.005  18.211  0.00  0.00    +0.000 A 
ATOM     24  N   UNL     1      -4.233  12.374  19.176  0.00  0.00    +0.000 NA
ATOM     25  N   UNL     1      -3.170  11.618  18.876  0.00  0.00    +0.000 N 
ATOM     26  C   UNL     1      -1.966  11.641  19.671  0.00  0.00    +0.000 C 
ENDBRANCH  16  18
ENDBRANCH   1  16
TORSDOF 4
ENDMDL
MODEL 8
REMARK VINA RESULT:      -7.9      0.920      1.005
REMARK  Name = 
REMARK  5 active torsions:
REMARK  status: ('A' for Active; 'I' for Inactive)
REMARK    1  A    between atoms: C_1  and  C_2
REMARK    2  A    between atoms: C_4  and  C_5
REMARK    3  A    between atoms: C_8  and  S_9
REMARK    4  A    between atoms: S_9  and  N_12
REMARK    5  A    between atoms: N_12  and  C_13
REMARK                            x       y       z     vdW  Elec       q    Type
REMARK                         _______ _______ _______ _____ _____    ______ ____
ROOT
ATOM      1  S   UNL     1       2.978   2.846  18.145  0.00  0.00    +0.000 S 
ATOM      2  O   UNL     1       2.855   1.816  19.147  0.00  0.00    +0.000 OA
ATOM      3  O   UNL     1       2.364   2.723  16.844  0.00  0.00    +0.000 OA
ENDROOT
BRANCH   1   7
ATOM      4  C   UNL     1       1.637   6.786  20.060  0.00  0.00    +0.000 A 
ATOM      5  C   UNL     1       1.977   6.738  18.698  0.00  0.00    +0.000 A 
ATOM      6  C   UNL     1       2.386   5.538  18.107  0.00  0.00    +0.000 A 
ATOM      7  C   UNL     1       2.474   4.379  18.885  0.00  0.00    +0.000 A 
ATOM      8  C   UNL     1       2.134   4.407  20.238  0.00  0.00    +0.000 A 
ATOM      9  C   UNL     1       1.709   5.608  20.818  0.00  0.00    +0.000 A 
BRANCH   4  13
ATOM     10  C   UNL     1      -0.332  10.108  23.155  0.00  0.00    +0.000 C 
ATOM     11  C   UNL     1       0.350   9.396  22.056  0.00  0.00    +0.000 A 
ATOM     12  N   UNL     1       0.525   8.102  21.875  0.00  0.00    +0.000 NA
ATOM     13  C   UNL     1       1.211   8.026  20.683  0.00  0.00    +0.000 A 
ATOM     14  C   UNL     1       1.444   9.296  20.208  0.00  0.00    +0.000 A 
ATOM     15  O   UNL     1       0.890  10.184  21.076  0.00  0.00    +0.000 OA
ENDBRANCH   4  13
ENDBRANCH   1   7
BRANCH   1  16
ATOM     16  N   UNL     1       4.650   3.059  17.901  0.00  0.00    +0.000 NA
ATOM     17  H   UNL     1       4.966   2.371  17.215  0.00  0.00    +0.000 HD
BRANCH  16  18
ATOM     18  C   UNL     1       5.147   4.446  17.732  0.00  0.00    +0.000 C 
ATOM     19  C   UNL     1       5.343   4.763  16.235  0.00  0.00    +0.000 C 
ATOM     20  C   UNL     1       5.669   6.257  16.061  0.00  0.00    +0.000 C 
ATOM     21  C   UNL     1       6.714   6.697  17.024  0.00  0.00    +0.000 A 
ATOM     22  N   UNL     1       7.416   7.810  17.049  0.00  0.00    +0.000 NA
ATOM     23  C   UNL     1       8.166   7.678  18.188  0.00  0.00    +0.000 A 
ATOM     24  N   UNL     1       7.976   6.545  18.872  0.00  0.00    +0.000 NA
ATOM     25  N   UNL     1       7.041   5.954  18.117  0.00  0.00    +0.000 N 
ATOM     26  C   UNL     1       6.472   4.675  18.468  0.00  0.00    +0.000 C 
ENDBRANCH  16  18
ENDBRANCH   1  16
TORSDOF 4
ENDMDL
MODEL 9
REMARK VINA RESULT:      -7.8      0.985      1.457
REMARK  Name = 
REMARK  5 active torsions:
REMARK  status: ('A' for Active; 'I' for Inactive)
REMARK    1  A    between atoms: C_1  and  C_2
REMARK    2  A    between atoms: C_4  and  C_5
REMARK    3  A    between atoms: C_8  and  S_9
REMARK    4  A    between atoms: S_9  and  N_12
REMARK    5  A    between atoms: N_12  and  C_13
REMARK                            x       y       z     vdW  Elec       q    Type
REMARK                         _______ _______ _______ _____ _____    ______ ____
ROOT
ATOM      1  S   UNL     1       3.207   2.762  18.813  0.00  0.00    +0.000 S 
ATOM      2  O   UNL     1       3.585   2.242  20.103  0.00  0.00    +0.000 OA
ATOM      3  O   UNL     1       2.253   2.086  17.966  0.00  0.00    +0.000 OA
ENDROOT
BRANCH   1   7
ATOM      4  C   UNL     1       1.913   7.120  19.388  0.00  0.00    +0.000 A 
ATOM      5  C   UNL     1       2.112   6.286  20.500  0.00  0.00    +0.000 A 
ATOM      6  C   UNL     1       2.509   4.956  20.331  0.00  0.00    +0.000 A 
ATOM      7  C   UNL     1       2.691   4.446  19.042  0.00  0.00    +0.000 A 
ATOM      8  C   UNL     1       2.503   5.262  17.925  0.00  0.00    +0.000 A 
ATOM      9  C   UNL     1       2.123   6.598  18.102  0.00  0.00    +0.000 A 
BRANCH   4  13
ATOM     10  C   UNL     1       0.293  11.395  21.282  0.00  0.00    +0.000 C 
ATOM     11  C   UNL     1       0.805  10.305  20.429  0.00  0.00    +0.000 A 
ATOM     12  N   UNL     1       1.067   9.050  20.738  0.00  0.00    +0.000 NA
ATOM     13  C   UNL     1       1.502   8.502  19.551  0.00  0.00    +0.000 A 
ATOM     14  C   UNL     1       1.507   9.472  18.575  0.00  0.00    +0.000 A 
ATOM     15  O   UNL     1       1.056  10.632  19.124  0.00  0.00    +0.000 OA
ENDBRANCH   4  13
ENDBRANCH   1   7
BRANCH   1  16
ATOM     16  N   UNL     1       4.655   2.913  17.929  0.00  0.00    +0.000 NA
ATOM     17  H   UNL     1       4.607   2.288  17.122  0.00  0.00    +0.000 HD
BRANCH  16  18
ATOM     18  C   UNL     1       5.169   4.282  17.683  0.00  0.00    +0.000 C 
ATOM     19  C   UNL     1       5.509   4.462  16.189  0.00  0.00    +0.000 C 
ATOM     20  C   UNL     1       5.854   5.936  15.912  0.00  0.00    +0.000 C 
ATOM     21  C   UNL     1       6.802   6.468  16.926  0.00  0.00    +0.000 A 
ATOM     22  N   UNL     1       7.502   7.584  16.917  0.00  0.00    +0.000 NA
ATOM     23  C   UNL     1       8.139   7.560  18.129  0.00  0.00    +0.000 A 
ATOM     24  N   UNL     1       7.881   6.493  18.892  0.00  0.00    +0.000 NA
ATOM     25  N   UNL     1       7.021   5.830  18.109  0.00  0.00    +0.000 N 
ATOM     26  C   UNL     1       6.418   4.585  18.519  0.00  0.00    +0.000 C 
ENDBRANCH  16  18
ENDBRANCH   1  16
TORSDOF 4
ENDMDL
