MODEL 1
REMARK VINA RESULT:      -8.2      0.000      0.000
REMARK  Name = 
REMARK  6 active torsions:
REMARK  status: ('A' for Active; 'I' for Inactive)
REMARK    1  A    between atoms: C_2  and  O_3
REMARK    2  A    between atoms: C_2  and  C_16
REMARK    3  A    between atoms: O_3  and  C_4
REMARK    4  A    between atoms: C_4  and  C_5
REMARK    5  A    between atoms: C_8  and  C_9
REMARK    6  A    between atoms: C_25  and  O_26
REMARK                            x       y       z     vdW  Elec       q    Type
REMARK                         _______ _______ _______ _____ _____    ______ ____
ROOT
ATOM      1  O   UNL     1       2.700   4.463  18.036  0.00  0.00    +0.000 OA
ATOM      2  C   UNL     1       3.185   5.242  18.841  0.00  0.00    +0.000 C 
ENDROOT
BRANCH   2   3
ATOM      3  C   UNL     1       2.778   6.665  18.928  0.00  0.00    +0.000 A 
ATOM      4  C   UNL     1       2.121   7.064  20.098  0.00  0.00    +0.000 A 
ATOM      5  C   UNL     1       1.447   8.290  20.166  0.00  0.00    +0.000 A 
ATOM      6  C   UNL     1       0.712   8.642  21.308  0.00  0.00    +0.000 A 
ATOM      7  C   UNL     1      -0.260   9.629  21.223  0.00  0.00    +0.000 A 
ATOM      8  C   UNL     1      -0.355  10.408  20.074  0.00  0.00    +0.000 A 
ATOM      9  C   UNL     1       0.563  10.239  19.033  0.00  0.00    +0.000 A 
ATOM     10  C   UNL     1       1.447   9.154  19.045  0.00  0.00    +0.000 A 
ATOM     11  C   UNL     1       2.279   8.831  17.955  0.00  0.00    +0.000 A 
ATOM     12  C   UNL     1       2.927   7.591  17.897  0.00  0.00    +0.000 A 
BRANCH  12  13
ATOM     13  O   UNL     1       3.726   7.305  16.822  0.00  0.00    +0.000 OA
ATOM     14  H   UNL     1       3.192   7.307  16.009  0.00  0.00    +0.000 HD
ENDBRANCH  12  13
ENDBRANCH   2   3
BRANCH   2  15
ATOM     15  O   UNL     1       4.241   4.992  19.651  0.00  0.00    +0.000 OA
BRANCH  15  16
ATOM     16  C   UNL     1       5.300   4.200  19.091  0.00  0.00    +0.000 C 
BRANCH  16  17
ATOM     17  C   UNL     1       5.847   4.924  17.906  0.00  0.00    +0.000 A 
ATOM     18  N   UNL     1       6.476   6.077  17.845  0.00  0.00    +0.000 NA
ATOM     19  N   UNL     1       6.848   6.235  16.525  0.00  0.00    +0.000 NA
ATOM     20  C   UNL     1       6.428   5.166  15.876  0.00  0.00    +0.000 A 
ATOM     21  O   UNL     1       5.775   4.284  16.700  0.00  0.00    +0.000 OA
BRANCH  20  22
ATOM     22  C   UNL     1       6.596   4.779  14.479  0.00  0.00    +0.000 A 
ATOM     23  C   UNL     1       7.620   5.354  13.707  0.00  0.00    +0.000 A 
ATOM     24  C   UNL     1       7.818   4.962  12.382  0.00  0.00    +0.000 A 
ATOM     25  C   UNL     1       6.993   3.998  11.807  0.00  0.00    +0.000 A 
ATOM     26  C   UNL     1       5.960   3.434  12.551  0.00  0.00    +0.000 A 
ATOM     27  C   UNL     1       5.763   3.822  13.878  0.00  0.00    +0.000 A 
ENDBRANCH  20  22
ENDBRANCH  16  17
ENDBRANCH  15  16
ENDBRANCH   2  15
TORSDOF 6
ENDMDL
MODEL 2
REMARK VINA RESULT:      -8.1      5.077      6.824
REMARK  Name = 
REMARK  6 active torsions:
REMARK  status: ('A' for Active; 'I' for Inactive)
REMARK    1  A    between atoms: C_2  and  O_3
REMARK    2  A    between atoms: C_2  and  C_16
REMARK    3  A    between atoms: O_3  and  C_4
REMARK    4  A    between atoms: C_4  and  C_5
REMARK    5  A    between atoms: C_8  and  C_9
REMARK    6  A    between atoms: C_25  and  O_26
REMARK                            x       y       z     vdW  Elec       q    Type
REMARK                         _______ _______ _______ _____ _____    ______ ____
ROOT
ATOM      1  O   UNL     1       7.412   4.130  18.118  0.00  0.00    +0.000 OA
ATOM      2  C   UNL     1       6.553   4.989  18.238  0.00  0.00    +0.000 C 
ENDROOT
BRANCH   2   3
ATOM      3  C   UNL     1       5.103   4.696  18.134  0.00  0.00    +0.000 A 
ATOM      4  C   UNL     1       4.320   4.965  19.263  0.00  0.00    +0.000 A 
ATOM      5  C   UNL     1       3.016   4.465  19.373  0.00  0.00    +0.000 A 
ATOM      6  C   UNL     1       2.272   4.659  20.546  0.00  0.00    +0.000 A 
ATOM      7  C   UNL     1       1.181   3.842  20.810  0.00  0.00    +0.000 A 
ATOM      8  C   UNL     1       0.703   2.985  19.823  0.00  0.00    +0.000 A 
ATOM      9  C   UNL     1       1.281   2.991  18.550  0.00  0.00    +0.000 A 
ATOM     10  C   UNL     1       2.468   3.696  18.320  0.00  0.00    +0.000 A 
ATOM     11  C   UNL     1       3.189   3.608  17.113  0.00  0.00    +0.000 A 
ATOM     12  C   UNL     1       4.499   4.096  17.029  0.00  0.00    +0.000 A 
BRANCH  12  13
ATOM     13  O   UNL     1       5.175   3.992  15.843  0.00  0.00    +0.000 OA
ATOM     14  H   UNL     1       6.118   4.185  15.987  0.00  0.00    +0.000 HD
ENDBRANCH  12  13
ENDBRANCH   2   3
BRANCH   2  15
ATOM     15  O   UNL     1       6.770   6.322  18.329  0.00  0.00    +0.000 OA
BRANCH  15  16
ATOM     16  C   UNL     1       8.096   6.728  18.701  0.00  0.00    +0.000 C 
BRANCH  16  17
ATOM     17  C   UNL     1       8.269   8.162  18.325  0.00  0.00    +0.000 A 
ATOM     18  N   UNL     1       7.646   8.869  17.407  0.00  0.00    +0.000 NA
ATOM     19  N   UNL     1       8.117  10.160  17.541  0.00  0.00    +0.000 NA
ATOM     20  C   UNL     1       8.986  10.152  18.533  0.00  0.00    +0.000 A 
ATOM     21  O   UNL     1       9.135   8.901  19.081  0.00  0.00    +0.000 OA
BRANCH  20  22
ATOM     22  C   UNL     1       9.741  11.243  19.140  0.00  0.00    +0.000 A 
ATOM     23  C   UNL     1      10.811  11.831  18.446  0.00  0.00    +0.000 A 
ATOM     24  C   UNL     1      11.515  12.903  18.997  0.00  0.00    +0.000 A 
ATOM     25  C   UNL     1      11.166  13.397  20.253  0.00  0.00    +0.000 A 
ATOM     26  C   UNL     1      10.122  12.811  20.964  0.00  0.00    +0.000 A 
ATOM     27  C   UNL     1       9.415  11.741  20.413  0.00  0.00    +0.000 A 
ENDBRANCH  20  22
ENDBRANCH  16  17
ENDBRANCH  15  16
ENDBRANCH   2  15
TORSDOF 6
ENDMDL
MODEL 3
REMARK VINA RESULT:      -8.1      0.951      1.135
REMARK  Name = 
REMARK  6 active torsions:
REMARK  status: ('A' for Active; 'I' for Inactive)
REMARK    1  A    between atoms: C_2  and  O_3
REMARK    2  A    between atoms: C_2  and  C_16
REMARK    3  A    between atoms: O_3  and  C_4
REMARK    4  A    between atoms: C_4  and  C_5
REMARK    5  A    between atoms: C_8  and  C_9
REMARK    6  A    between atoms: C_25  and  O_26
REMARK                            x       y       z     vdW  Elec       q    Type
REMARK                         _______ _______ _______ _____ _____    ______ ____
ROOT
ATOM      1  O   UNL     1       2.911   4.787  20.740  0.00  0.00    +0.000 OA
ATOM      2  C   UNL     1       2.745   5.245  19.620  0.00  0.00    +0.000 C 
ENDROOT
BRANCH   2   3
ATOM      3  C   UNL     1       2.502   6.686  19.371  0.00  0.00    +0.000 A 
ATOM      4  C   UNL     1       1.762   7.380  20.336  0.00  0.00    +0.000 A 
ATOM      5  C   UNL     1       1.236   8.650  20.068  0.00  0.00    +0.000 A 
ATOM      6  C   UNL     1       0.417   9.298  21.004  0.00  0.00    +0.000 A 
ATOM      7  C   UNL     1      -0.414  10.331  20.592  0.00  0.00    +0.000 A 
ATOM      8  C   UNL     1      -0.278  10.859  19.312  0.00  0.00    +0.000 A 
ATOM      9  C   UNL     1       0.731  10.392  18.464  0.00  0.00    +0.000 A 
ATOM     10  C   UNL     1       1.472   9.257  18.812  0.00  0.00    +0.000 A 
ATOM     11  C   UNL     1       2.384   8.639  17.934  0.00  0.00    +0.000 A 
ATOM     12  C   UNL     1       2.882   7.360  18.210  0.00  0.00    +0.000 A 
BRANCH  12  13
ATOM     13  O   UNL     1       3.764   6.783  17.335  0.00  0.00    +0.000 OA
ATOM     14  H   UNL     1       3.370   6.756  16.446  0.00  0.00    +0.000 HD
ENDBRANCH  12  13
ENDBRANCH   2   3
BRANCH   2  15
ATOM     15  O   UNL     1       2.604   4.528  18.481  0.00  0.00    +0.000 OA
BRANCH  15  16
ATOM     16  C   UNL     1       3.506   3.424  18.308  0.00  0.00    +0.000 C 
BRANCH  16  17
ATOM     17  C   UNL     1       4.727   3.924  17.609  0.00  0.00    +0.000 A 
ATOM     18  N   UNL     1       5.866   4.348  18.110  0.00  0.00    +0.000 NA
ATOM     19  N   UNL     1       6.684   4.601  17.028  0.00  0.00    +0.000 NA
ATOM     20  C   UNL     1       5.992   4.307  15.944  0.00  0.00    +0.000 A 
ATOM     21  O   UNL     1       4.726   3.868  16.243  0.00  0.00    +0.000 OA
BRANCH  20  22
ATOM     22  C   UNL     1       6.379   4.329  14.538  0.00  0.00    +0.000 A 
ATOM     23  C   UNL     1       7.412   5.177  14.105  0.00  0.00    +0.000 A 
ATOM     24  C   UNL     1       7.821   5.178  12.770  0.00  0.00    +0.000 A 
ATOM     25  C   UNL     1       7.197   4.339  11.848  0.00  0.00    +0.000 A 
ATOM     26  C   UNL     1       6.158   3.509  12.256  0.00  0.00    +0.000 A 
ATOM     27  C   UNL     1       5.750   3.504  13.591  0.00  0.00    +0.000 A 
ENDBRANCH  20  22
ENDBRANCH  16  17
ENDBRANCH  15  16
ENDBRANCH   2  15
TORSDOF 6
ENDMDL
MODEL 4
REMARK VINA RESULT:      -8.1      4.513      6.584
REMARK  Name = 
REMARK  6 active torsions:
REMARK  status: ('A' for Active; 'I' for Inactive)
REMARK    1  A    between atoms: C_2  and  O_3
REMARK    2  A    between atoms: C_2  and  C_16
REMARK    3  A    between atoms: O_3  and  C_4
REMARK    4  A    between atoms: C_4  and  C_5
REMARK    5  A    between atoms: C_8  and  C_9
REMARK    6  A    between atoms: C_25  and  O_26
REMARK                            x       y       z     vdW  Elec       q    Type
REMARK                         _______ _______ _______ _____ _____    ______ ____
ROOT
ATOM      1  O   UNL     1       6.945   5.173  15.559  0.00  0.00    +0.000 OA
ATOM      2  C   UNL     1       6.788   5.010  16.759  0.00  0.00    +0.000 C 
ENDROOT
BRANCH   2   3
ATOM      3  C   UNL     1       5.450   4.952  17.394  0.00  0.00    +0.000 A 
ATOM      4  C   UNL     1       5.162   3.815  18.158  0.00  0.00    +0.000 A 
ATOM      5  C   UNL     1       3.850   3.526  18.557  0.00  0.00    +0.000 A 
ATOM      6  C   UNL     1       3.554   2.338  19.240  0.00  0.00    +0.000 A 
ATOM      7  C   UNL     1       2.249   1.867  19.269  0.00  0.00    +0.000 A 
ATOM      8  C   UNL     1       1.213   2.674  18.809  0.00  0.00    +0.000 A 
ATOM      9  C   UNL     1       1.478   3.977  18.376  0.00  0.00    +0.000 A 
ATOM     10  C   UNL     1       2.800   4.406  18.204  0.00  0.00    +0.000 A 
ATOM     11  C   UNL     1       3.134   5.641  17.616  0.00  0.00    +0.000 A 
ATOM     12  C   UNL     1       4.447   5.902  17.206  0.00  0.00    +0.000 A 
BRANCH  12  13
ATOM     13  O   UNL     1       4.740   7.111  16.634  0.00  0.00    +0.000 OA
ATOM     14  H   UNL     1       3.918   7.609  16.483  0.00  0.00    +0.000 HD
ENDBRANCH  12  13
ENDBRANCH   2   3
BRANCH   2  15
ATOM     15  O   UNL     1       7.767   5.011  17.694  0.00  0.00    +0.000 OA
BRANCH  15  16
ATOM     16  C   UNL     1       7.623   5.955  18.766  0.00  0.00    +0.000 C 
BRANCH  16  17
ATOM     17  C   UNL     1       7.900   7.319  18.228  0.00  0.00    +0.000 A 
ATOM     18  N   UNL     1       7.467   7.889  17.124  0.00  0.00    +0.000 NA
ATOM     19  N   UNL     1       7.945   9.183  17.155  0.00  0.00    +0.000 NA
ATOM     20  C   UNL     1       8.628   9.316  18.276  0.00  0.00    +0.000 A 
ATOM     21  O   UNL     1       8.643   8.157  19.012  0.00  0.00    +0.000 OA
BRANCH  20  22
ATOM     22  C   UNL     1       9.296  10.480  18.845  0.00  0.00    +0.000 A 
ATOM     23  C   UNL     1       9.521  10.556  20.230  0.00  0.00    +0.000 A 
ATOM     24  C   UNL     1      10.197  11.644  20.784  0.00  0.00    +0.000 A 
ATOM     25  C   UNL     1      10.649  12.677  19.964  0.00  0.00    +0.000 A 
ATOM     26  C   UNL     1      10.415  12.628  18.593  0.00  0.00    +0.000 A 
ATOM     27  C   UNL     1       9.743  11.538  18.037  0.00  0.00    +0.000 A 
ENDBRANCH  20  22
ENDBRANCH  16  17
ENDBRANCH  15  16
ENDBRANCH   2  15
TORSDOF 6
ENDMDL
MODEL 5
REMARK VINA RESULT:      -8.1      0.600      1.118
REMARK  Name = 
REMARK  6 active torsions:
REMARK  status: ('A' for Active; 'I' for Inactive)
REMARK    1  A    between atoms: C_2  and  O_3
REMARK    2  A    between atoms: C_2  and  C_16
REMARK    3  A    between atoms: O_3  and  C_4
REMARK    4  A    between atoms: C_4  and  C_5
REMARK    5  A    between atoms: C_8  and  C_9
REMARK    6  A    between atoms: C_25  and  O_26
REMARK                            x       y       z     vdW  Elec       q    Type
REMARK                         _______ _______ _______ _____ _____    ______ ____
ROOT
ATOM      1  O   UNL     1       2.240   4.270  18.356  0.00  0.00    +0.000 OA
ATOM      2  C   UNL     1       2.932   5.065  18.972  0.00  0.00    +0.000 C 
ENDROOT
BRANCH   2   3
ATOM      3  C   UNL     1       2.694   6.528  18.942  0.00  0.00    +0.000 A 
ATOM      4  C   UNL     1       1.941   7.069  19.992  0.00  0.00    +0.000 A 
ATOM      5  C   UNL     1       1.420   8.366  19.913  0.00  0.00    +0.000 A 
ATOM      6  C   UNL     1       0.589   8.867  20.926  0.00  0.00    +0.000 A 
ATOM      7  C   UNL     1      -0.235   9.953  20.665  0.00  0.00    +0.000 A 
ATOM      8  C   UNL     1      -0.081  10.669  19.482  0.00  0.00    +0.000 A 
ATOM      9  C   UNL     1       0.939  10.334  18.587  0.00  0.00    +0.000 A 
ATOM     10  C   UNL     1       1.675   9.157  18.768  0.00  0.00    +0.000 A 
ATOM     11  C   UNL     1       2.597   8.677  17.818  0.00  0.00    +0.000 A 
ATOM     12  C   UNL     1       3.091   7.370  17.903  0.00  0.00    +0.000 A 
BRANCH  12  13
ATOM     13  O   UNL     1       3.984   6.931  16.962  0.00  0.00    +0.000 OA
ATOM     14  H   UNL     1       4.402   6.107  17.268  0.00  0.00    +0.000 HD
ENDBRANCH  12  13
ENDBRANCH   2   3
BRANCH   2  15
ATOM     15  O   UNL     1       4.077   4.776  19.634  0.00  0.00    +0.000 OA
BRANCH  15  16
ATOM     16  C   UNL     1       4.853   3.684  19.117  0.00  0.00    +0.000 C 
BRANCH  16  17
ATOM     17  C   UNL     1       5.835   4.233  18.137  0.00  0.00    +0.000 A 
ATOM     18  N   UNL     1       6.981   4.843  18.348  0.00  0.00    +0.000 NA
ATOM     19  N   UNL     1       7.532   5.056  17.101  0.00  0.00    +0.000 NA
ATOM     20  C   UNL     1       6.690   4.556  16.217  0.00  0.00    +0.000 A 
ATOM     21  O   UNL     1       5.577   4.014  16.812  0.00  0.00    +0.000 OA
BRANCH  20  22
ATOM     22  C   UNL     1       6.791   4.453  14.766  0.00  0.00    +0.000 A 
ATOM     23  C   UNL     1       5.968   3.555  14.064  0.00  0.00    +0.000 A 
ATOM     24  C   UNL     1       6.024   3.477  12.671  0.00  0.00    +0.000 A 
ATOM     25  C   UNL     1       6.909   4.286  11.961  0.00  0.00    +0.000 A 
ATOM     26  C   UNL     1       7.747   5.165  12.642  0.00  0.00    +0.000 A 
ATOM     27  C   UNL     1       7.689   5.248  14.034  0.00  0.00    +0.000 A 
ENDBRANCH  20  22
ENDBRANCH  16  17
ENDBRANCH  15  16
ENDBRANCH   2  15
TORSDOF 6
ENDMDL
MODEL 6
REMARK VINA RESULT:      -8.0      2.989      7.929
REMARK  Name = 
REMARK  6 active torsions:
REMARK  status: ('A' for Active; 'I' for Inactive)
REMARK    1  A    between atoms: C_2  and  O_3
REMARK    2  A    between atoms: C_2  and  C_16
REMARK    3  A    between atoms: O_3  and  C_4
REMARK    4  A    between atoms: C_4  and  C_5
REMARK    5  A    between atoms: C_8  and  C_9
REMARK    6  A    between atoms: C_25  and  O_26
REMARK                            x       y       z     vdW  Elec       q    Type
REMARK                         _______ _______ _______ _____ _____    ______ ____
ROOT
ATOM      1  O   UNL     1       3.618   2.452  20.592  0.00  0.00    +0.000 OA
ATOM      2  C   UNL     1       3.263   3.289  19.777  0.00  0.00    +0.000 C 
ENDROOT
BRANCH   2   3
ATOM      3  C   UNL     1       4.202   3.936  18.829  0.00  0.00    +0.000 A 
ATOM      4  C   UNL     1       5.435   4.352  19.345  0.00  0.00    +0.000 A 
ATOM      5  C   UNL     1       6.266   5.218  18.622  0.00  0.00    +0.000 A 
ATOM      6  C   UNL     1       7.455   5.705  19.183  0.00  0.00    +0.000 A 
ATOM      7  C   UNL     1       8.048   6.844  18.655  0.00  0.00    +0.000 A 
ATOM      8  C   UNL     1       7.586   7.371  17.453  0.00  0.00    +0.000 A 
ATOM      9  C   UNL     1       6.569   6.721  16.747  0.00  0.00    +0.000 A 
ATOM     10  C   UNL     1       5.867   5.663  17.339  0.00  0.00    +0.000 A 
ATOM     11  C   UNL     1       4.728   5.078  16.753  0.00  0.00    +0.000 A 
ATOM     12  C   UNL     1       3.900   4.231  17.500  0.00  0.00    +0.000 A 
BRANCH  12  13
ATOM     13  O   UNL     1       2.797   3.680  16.904  0.00  0.00    +0.000 OA
ATOM     14  H   UNL     1       2.212   4.387  16.583  0.00  0.00    +0.000 HD
ENDBRANCH  12  13
ENDBRANCH   2   3
BRANCH   2  15
ATOM     15  O   UNL     1       2.037   3.859  19.707  0.00  0.00    +0.000 OA
BRANCH  15  16
ATOM     16  C   UNL     1       1.607   4.590  20.865  0.00  0.00    +0.000 C 
BRANCH  16  17
ATOM     17  C   UNL     1       1.715   6.047  20.564  0.00  0.00    +0.000 A 
ATOM     18  N   UNL     1       2.327   6.656  19.572  0.00  0.00    +0.000 NA
ATOM     19  N   UNL     1       2.035   7.998  19.714  0.00  0.00    +0.000 NA
ATOM     20  C   UNL     1       1.260   8.113  20.776  0.00  0.00    +0.000 A 
ATOM     21  O   UNL     1       1.016   6.901  21.373  0.00  0.00    +0.000 OA
BRANCH  20  22
ATOM     22  C   UNL     1       0.612   9.286  21.352  0.00  0.00    +0.000 A 
ATOM     23  C   UNL     1       0.638  10.513  20.668  0.00  0.00    +0.000 A 
ATOM     24  C   UNL     1      -0.014  11.633  21.188  0.00  0.00    +0.000 A 
ATOM     25  C   UNL     1      -0.694  11.545  22.402  0.00  0.00    +0.000 A 
ATOM     26  C   UNL     1      -0.711  10.343  23.103  0.00  0.00    +0.000 A 
ATOM     27  C   UNL     1      -0.063   9.221  22.583  0.00  0.00    +0.000 A 
ENDBRANCH  20  22
ENDBRANCH  16  17
ENDBRANCH  15  16
ENDBRANCH   2  15
TORSDOF 6
ENDMDL
MODEL 7
REMARK VINA RESULT:      -7.9      5.731      7.519
REMARK  Name = 
REMARK  6 active torsions:
REMARK  status: ('A' for Active; 'I' for Inactive)
REMARK    1  A    between atoms: C_2  and  O_3
REMARK    2  A    between atoms: C_2  and  C_16
REMARK    3  A    between atoms: O_3  and  C_4
REMARK    4  A    between atoms: C_4  and  C_5
REMARK    5  A    between atoms: C_8  and  C_9
REMARK    6  A    between atoms: C_25  and  O_26
REMARK                            x       y       z     vdW  Elec       q    Type
REMARK                         _______ _______ _______ _____ _____    ______ ____
ROOT
ATOM      1  O   UNL     1       8.208   6.349  19.029  0.00  0.00    +0.000 OA
ATOM      2  C   UNL     1       7.585   6.718  18.047  0.00  0.00    +0.000 C 
ENDROOT
BRANCH   2   3
ATOM      3  C   UNL     1       6.457   5.945  17.474  0.00  0.00    +0.000 A 
ATOM      4  C   UNL     1       5.166   6.335  17.851  0.00  0.00    +0.000 A 
ATOM      5  C   UNL     1       4.061   5.510  17.605  0.00  0.00    +0.000 A 
ATOM      6  C   UNL     1       2.786   5.863  18.069  0.00  0.00    +0.000 A 
ATOM      7  C   UNL     1       1.803   4.890  18.187  0.00  0.00    +0.000 A 
ATOM      8  C   UNL     1       2.016   3.624  17.650  0.00  0.00    +0.000 A 
ATOM      9  C   UNL     1       3.189   3.351  16.941  0.00  0.00    +0.000 A 
ATOM     10  C   UNL     1       4.243   4.272  16.944  0.00  0.00    +0.000 A 
ATOM     11  C   UNL     1       5.508   3.990  16.393  0.00  0.00    +0.000 A 
ATOM     12  C   UNL     1       6.604   4.816  16.668  0.00  0.00    +0.000 A 
BRANCH  12  13
ATOM     13  O   UNL     1       7.823   4.513  16.120  0.00  0.00    +0.000 OA
ATOM     14  H   UNL     1       7.958   3.550  16.137  0.00  0.00    +0.000 HD
ENDBRANCH  12  13
ENDBRANCH   2   3
BRANCH   2  15
ATOM     15  O   UNL     1       7.900   7.770  17.255  0.00  0.00    +0.000 OA
BRANCH  15  16
ATOM     16  C   UNL     1       7.302   9.029  17.600  0.00  0.00    +0.000 C 
BRANCH  16  17
ATOM     17  C   UNL     1       8.359   9.900  18.193  0.00  0.00    +0.000 A 
ATOM     18  N   UNL     1       9.188   9.656  19.185  0.00  0.00    +0.000 NA
ATOM     19  N   UNL     1      10.017  10.757  19.263  0.00  0.00    +0.000 NA
ATOM     20  C   UNL     1       9.642  11.591  18.311  0.00  0.00    +0.000 A 
ATOM     21  O   UNL     1       8.581  11.105  17.588  0.00  0.00    +0.000 OA
BRANCH  20  22
ATOM     22  C   UNL     1      10.201  12.874  17.902  0.00  0.00    +0.000 A 
ATOM     23  C   UNL     1       9.540  14.069  18.232  0.00  0.00    +0.000 A 
ATOM     24  C   UNL     1      10.085  15.305  17.883  0.00  0.00    +0.000 A 
ATOM     25  C   UNL     1      11.293  15.366  17.191  0.00  0.00    +0.000 A 
ATOM     26  C   UNL     1      11.950  14.192  16.836  0.00  0.00    +0.000 A 
ATOM     27  C   UNL     1      11.409  12.954  17.188  0.00  0.00    +0.000 A 
ENDBRANCH  20  22
ENDBRANCH  16  17
ENDBRANCH  15  16
ENDBRANCH   2  15
TORSDOF 6
ENDMDL
MODEL 8
REMARK VINA RESULT:      -7.9      3.128      4.221
REMARK  Name = 
REMARK  6 active torsions:
REMARK  status: ('A' for Active; 'I' for Inactive)
REMARK    1  A    between atoms: C_2  and  O_3
REMARK    2  A    between atoms: C_2  and  C_16
REMARK    3  A    between atoms: O_3  and  C_4
REMARK    4  A    between atoms: C_4  and  C_5
REMARK    5  A    between atoms: C_8  and  C_9
REMARK    6  A    between atoms: C_25  and  O_26
REMARK                            x       y       z     vdW  Elec       q    Type
REMARK                         _______ _______ _______ _____ _____    ______ ____
ROOT
ATOM      1  O   UNL     1       7.444   4.647  18.628  0.00  0.00    +0.000 OA
ATOM      2  C   UNL     1       6.390   5.226  18.421  0.00  0.00    +0.000 C 
ENDROOT
BRANCH   2   3
ATOM      3  C   UNL     1       5.073   4.549  18.492  0.00  0.00    +0.000 A 
ATOM      4  C   UNL     1       4.186   4.992  19.479  0.00  0.00    +0.000 A 
ATOM      5  C   UNL     1       3.050   4.245  19.819  0.00  0.00    +0.000 A 
ATOM      6  C   UNL     1       2.217   4.647  20.873  0.00  0.00    +0.000 A 
ATOM      7  C   UNL     1       1.360   3.727  21.461  0.00  0.00    +0.000 A 
ATOM      8  C   UNL     1       1.176   2.479  20.873  0.00  0.00    +0.000 A 
ATOM      9  C   UNL     1       1.803   2.176  19.661  0.00  0.00    +0.000 A 
ATOM     10  C   UNL     1       2.779   3.034  19.140  0.00  0.00    +0.000 A 
ATOM     11  C   UNL     1       3.564   2.708  18.017  0.00  0.00    +0.000 A 
ATOM     12  C   UNL     1       4.707   3.456  17.707  0.00  0.00    +0.000 A 
BRANCH  12  13
ATOM     13  O   UNL     1       5.452   3.112  16.611  0.00  0.00    +0.000 OA
ATOM     14  H   UNL     1       6.397   3.227  16.810  0.00  0.00    +0.000 HD
ENDBRANCH  12  13
ENDBRANCH   2   3
BRANCH   2  15
ATOM     15  O   UNL     1       6.257   6.492  17.960  0.00  0.00    +0.000 OA
BRANCH  15  16
ATOM     16  C   UNL     1       5.531   6.650  16.732  0.00  0.00    +0.000 C 
BRANCH  16  17
ATOM     17  C   UNL     1       6.319   6.010  15.638  0.00  0.00    +0.000 A 
ATOM     18  N   UNL     1       7.618   6.003  15.434  0.00  0.00    +0.000 NA
ATOM     19  N   UNL     1       7.824   5.187  14.340  0.00  0.00    +0.000 NA
ATOM     20  C   UNL     1       6.640   4.749  13.957  0.00  0.00    +0.000 A 
ATOM     21  O   UNL     1       5.628   5.239  14.745  0.00  0.00    +0.000 OA
BRANCH  20  22
ATOM     22  C   UNL     1       6.273   3.817  12.897  0.00  0.00    +0.000 A 
ATOM     23  C   UNL     1       7.266   3.078  12.232  0.00  0.00    +0.000 A 
ATOM     24  C   UNL     1       6.924   2.152  11.245  0.00  0.00    +0.000 A 
ATOM     25  C   UNL     1       5.588   1.959  10.900  0.00  0.00    +0.000 A 
ATOM     26  C   UNL     1       4.593   2.699  11.533  0.00  0.00    +0.000 A 
ATOM     27  C   UNL     1       4.932   3.622  12.524  0.00  0.00    +0.000 A 
ENDBRANCH  20  22
ENDBRANCH  16  17
ENDBRANCH  15  16
ENDBRANCH   2  15
TORSDOF 6
ENDMDL
MODEL 9
REMARK VINA RESULT:      -7.9      2.851      3.492
REMARK  Name = 
REMARK  6 active torsions:
REMARK  status: ('A' for Active; 'I' for Inactive)
REMARK    1  A    between atoms: C_2  and  O_3
REMARK    2  A    between atoms: C_2  and  C_16
REMARK    3  A    between atoms: O_3  and  C_4
REMARK    4  A    between atoms: C_4  and  C_5
REMARK    5  A    between atoms: C_8  and  C_9
REMARK    6  A    between atoms: C_25  and  O_26
REMARK                            x       y       z     vdW  Elec       q    Type
REMARK                         _______ _______ _______ _____ _____    ______ ____
ROOT
ATOM      1  O   UNL     1       0.490   3.703  19.991  0.00  0.00    +0.000 OA
ATOM      2  C   UNL     1       1.399   4.360  20.474  0.00  0.00    +0.000 C 
ENDROOT
BRANCH   2   3
ATOM      3  C   UNL     1       1.694   5.751  20.057  0.00  0.00    +0.000 A 
ATOM      4  C   UNL     1       1.510   6.752  21.018  0.00  0.00    +0.000 A 
ATOM      5  C   UNL     1       1.481   8.105  20.656  0.00  0.00    +0.000 A 
ATOM      6  C   UNL     1       1.203   9.096  21.608  0.00  0.00    +0.000 A 
ATOM      7  C   UNL     1       0.777  10.350  21.193  0.00  0.00    +0.000 A 
ATOM      8  C   UNL     1       0.831  10.686  19.843  0.00  0.00    +0.000 A 
ATOM      9  C   UNL     1       1.370   9.787  18.917  0.00  0.00    +0.000 A 
ATOM     10  C   UNL     1       1.662   8.473  19.302  0.00  0.00    +0.000 A 
ATOM     11  C   UNL     1       2.046   7.475  18.385  0.00  0.00    +0.000 A 
ATOM     12  C   UNL     1       2.050   6.127  18.762  0.00  0.00    +0.000 A 
BRANCH  12  13
ATOM     13  O   UNL     1       2.425   5.179  17.847  0.00  0.00    +0.000 OA
ATOM     14  H   UNL     1       1.648   4.658  17.580  0.00  0.00    +0.000 HD
ENDBRANCH  12  13
ENDBRANCH   2   3
BRANCH   2  15
ATOM     15  O   UNL     1       2.347   3.899  21.323  0.00  0.00    +0.000 OA
BRANCH  15  16
ATOM     16  C   UNL     1       3.063   2.727  20.904  0.00  0.00    +0.000 C 
BRANCH  16  17
ATOM     17  C   UNL     1       3.918   3.094  19.738  0.00  0.00    +0.000 A 
ATOM     18  N   UNL     1       3.996   2.542  18.547  0.00  0.00    +0.000 NA
ATOM     19  N   UNL     1       4.869   3.327  17.822  0.00  0.00    +0.000 NA
ATOM     20  C   UNL     1       5.258   4.306  18.617  0.00  0.00    +0.000 A 
ATOM     21  O   UNL     1       4.688   4.217  19.863  0.00  0.00    +0.000 OA
BRANCH  20  22
ATOM     22  C   UNL     1       6.126   5.449  18.357  0.00  0.00    +0.000 A 
ATOM     23  C   UNL     1       7.334   5.590  19.061  0.00  0.00    +0.000 A 
ATOM     24  C   UNL     1       8.195   6.656  18.793  0.00  0.00    +0.000 A 
ATOM     25  C   UNL     1       7.857   7.601  17.825  0.00  0.00    +0.000 A 
ATOM     26  C   UNL     1       6.654   7.488  17.135  0.00  0.00    +0.000 A 
ATOM     27  C   UNL     1       5.794   6.421  17.399  0.00  0.00    +0.000 A 
ENDBRANCH  20  22
ENDBRANCH  16  17
ENDBRANCH  15  16
ENDBRANCH   2  15
TORSDOF 6
ENDMDL
