MODEL 1
REMARK VINA RESULT:      -9.5      0.000      0.000
REMARK  Name = 
REMARK  3 active torsions:
REMARK  status: ('A' for Active; 'I' for Inactive)
REMARK    1  A    between atoms: C_2  and  O_3
REMARK    2  A    between atoms: C_2  and  C_14
REMARK    3  A    between atoms: O_3  and  C_4
REMARK                            x       y       z     vdW  Elec       q    Type
REMARK                         _______ _______ _______ _____ _____    ______ ____
ROOT
ATOM      1  O   UNL     1       5.642   4.012  19.077  0.00  0.00    +0.000 OA
ATOM      2  C   UNL     1       5.073   4.450  18.084  0.00  0.00    +0.000 C 
ENDROOT
BRANCH   2   3
ATOM      3  C   UNL     1       5.781   4.673  16.792  0.00  0.00    +0.000 A 
ATOM      4  C   UNL     1       5.282   4.088  15.683  0.00  0.00    +0.000 A 
ATOM      5  C   UNL     1       5.978   4.182  14.402  0.00  0.00    +0.000 A 
ATOM      6  C   UNL     1       5.598   3.458  13.269  0.00  0.00    +0.000 A 
ATOM      7  C   UNL     1       6.307   3.603  12.067  0.00  0.00    +0.000 A 
ATOM      8  C   UNL     1       7.391   4.480  11.989  0.00  0.00    +0.000 A 
ATOM      9  C   UNL     1       7.785   5.194  13.117  0.00  0.00    +0.000 A 
ATOM     10  C   UNL     1       7.078   5.026  14.309  0.00  0.00    +0.000 A 
ATOM     11  O   UNL     1       7.548   5.708  15.441  0.00  0.00    +0.000 OA
ATOM     12  C   UNL     1       7.033   5.454  16.709  0.00  0.00    +0.000 A 
ATOM     13  O   UNL     1       7.612   5.882  17.693  0.00  0.00    +0.000 OA
ENDBRANCH   2   3
BRANCH   2  14
ATOM     14  O   UNL     1       3.725   4.800  18.014  0.00  0.00    +0.000 OA
BRANCH  14  15
ATOM     15  C   UNL     1       3.108   5.868  18.726  0.00  0.00    +0.000 A 
ATOM     16  C   UNL     1       2.618   5.738  20.021  0.00  0.00    +0.000 A 
ATOM     17  C   UNL     1       1.893   6.790  20.592  0.00  0.00    +0.000 A 
ATOM     18  C   UNL     1       1.682   7.990  19.893  0.00  0.00    +0.000 A 
ATOM     19  C   UNL     1       0.939   9.040  20.460  0.00  0.00    +0.000 A 
ATOM     20  C   UNL     1       0.767  10.243  19.776  0.00  0.00    +0.000 A 
ATOM     21  C   UNL     1       1.333  10.411  18.516  0.00  0.00    +0.000 A 
ATOM     22  C   UNL     1       2.051   9.367  17.926  0.00  0.00    +0.000 A 
ATOM     23  C   UNL     1       2.230   8.143  18.598  0.00  0.00    +0.000 A 
ATOM     24  C   UNL     1       2.928   7.063  18.017  0.00  0.00    +0.000 A 
ENDBRANCH  14  15
ENDBRANCH   2  14
TORSDOF 3
ENDMDL
MODEL 2
REMARK VINA RESULT:      -9.1      0.716      1.612
REMARK  Name = 
REMARK  3 active torsions:
REMARK  status: ('A' for Active; 'I' for Inactive)
REMARK    1  A    between atoms: C_2  and  O_3
REMARK    2  A    between atoms: C_2  and  C_14
REMARK    3  A    between atoms: O_3  and  C_4
REMARK                            x       y       z     vdW  Elec       q    Type
REMARK                         _______ _______ _______ _____ _____    ______ ____
ROOT
ATOM      1  O   UNL     1       5.745   5.207  19.258  0.00  0.00    +0.000 OA
ATOM      2  C   UNL     1       5.122   5.257  18.203  0.00  0.00    +0.000 C 
ENDROOT
BRANCH   2   3
ATOM      3  C   UNL     1       5.795   5.213  16.875  0.00  0.00    +0.000 A 
ATOM      4  C   UNL     1       5.176   4.562  15.868  0.00  0.00    +0.000 A 
ATOM      5  C   UNL     1       5.822   4.395  14.568  0.00  0.00    +0.000 A 
ATOM      6  C   UNL     1       5.302   3.588  13.553  0.00  0.00    +0.000 A 
ATOM      7  C   UNL     1       5.970   3.479  12.324  0.00  0.00    +0.000 A 
ATOM      8  C   UNL     1       7.155   4.185  12.101  0.00  0.00    +0.000 A 
ATOM      9  C   UNL     1       7.687   4.979  13.113  0.00  0.00    +0.000 A 
ATOM     10  C   UNL     1       7.018   5.063  14.334  0.00  0.00    +0.000 A 
ATOM     11  O   UNL     1       7.621   5.816  15.352  0.00  0.00    +0.000 OA
ATOM     12  C   UNL     1       7.134   5.800  16.656  0.00  0.00    +0.000 A 
ATOM     13  O   UNL     1       7.806   6.270  17.558  0.00  0.00    +0.000 OA
ENDBRANCH   2   3
BRANCH   2  14
ATOM     14  O   UNL     1       3.736   5.363  18.089  0.00  0.00    +0.000 OA
BRANCH  14  15
ATOM     15  C   UNL     1       2.972   6.539  18.338  0.00  0.00    +0.000 A 
ATOM     16  C   UNL     1       2.831   7.566  17.411  0.00  0.00    +0.000 A 
ATOM     17  C   UNL     1       2.191   8.752  17.789  0.00  0.00    +0.000 A 
ATOM     18  C   UNL     1       1.654   8.909  19.078  0.00  0.00    +0.000 A 
ATOM     19  C   UNL     1       1.026  10.105  19.462  0.00  0.00    +0.000 A 
ATOM     20  C   UNL     1       0.461  10.239  20.731  0.00  0.00    +0.000 A 
ATOM     21  C   UNL     1       0.520   9.180  21.631  0.00  0.00    +0.000 A 
ATOM     22  C   UNL     1       1.166   7.993  21.274  0.00  0.00    +0.000 A 
ATOM     23  C   UNL     1       1.748   7.840  20.001  0.00  0.00    +0.000 A 
ATOM     24  C   UNL     1       2.428   6.664  19.623  0.00  0.00    +0.000 A 
ENDBRANCH  14  15
ENDBRANCH   2  14
TORSDOF 3
ENDMDL
MODEL 3
REMARK VINA RESULT:      -8.8      0.885      1.639
REMARK  Name = 
REMARK  3 active torsions:
REMARK  status: ('A' for Active; 'I' for Inactive)
REMARK    1  A    between atoms: C_2  and  O_3
REMARK    2  A    between atoms: C_2  and  C_14
REMARK    3  A    between atoms: O_3  and  C_4
REMARK                            x       y       z     vdW  Elec       q    Type
REMARK                         _______ _______ _______ _____ _____    ______ ____
ROOT
ATOM      1  O   UNL     1       4.019   2.830  18.422  0.00  0.00    +0.000 OA
ATOM      2  C   UNL     1       4.564   3.912  18.236  0.00  0.00    +0.000 C 
ENDROOT
BRANCH   2   3
ATOM      3  C   UNL     1       5.419   4.181  17.044  0.00  0.00    +0.000 A 
ATOM      4  C   UNL     1       4.889   3.974  15.820  0.00  0.00    +0.000 A 
ATOM      5  C   UNL     1       5.698   4.122  14.614  0.00  0.00    +0.000 A 
ATOM      6  C   UNL     1       5.250   3.757  13.341  0.00  0.00    +0.000 A 
ATOM      7  C   UNL     1       6.077   3.934  12.223  0.00  0.00    +0.000 A 
ATOM      8  C   UNL     1       7.352   4.488  12.369  0.00  0.00    +0.000 A 
ATOM      9  C   UNL     1       7.811   4.841  13.635  0.00  0.00    +0.000 A 
ATOM     10  C   UNL     1       6.981   4.642  14.738  0.00  0.00    +0.000 A 
ATOM     11  O   UNL     1       7.505   4.944  16.004  0.00  0.00    +0.000 OA
ATOM     12  C   UNL     1       6.830   4.599  17.172  0.00  0.00    +0.000 A 
ATOM     13  O   UNL     1       7.408   4.660  18.243  0.00  0.00    +0.000 OA
ENDBRANCH   2   3
BRANCH   2  14
ATOM     14  O   UNL     1       4.476   5.017  19.082  0.00  0.00    +0.000 OA
BRANCH  14  15
ATOM     15  C   UNL     1       3.579   6.111  18.923  0.00  0.00    +0.000 A 
ATOM     16  C   UNL     1       3.550   6.915  17.789  0.00  0.00    +0.000 A 
ATOM     17  C   UNL     1       2.745   8.060  17.775  0.00  0.00    +0.000 A 
ATOM     18  C   UNL     1       1.936   8.392  18.875  0.00  0.00    +0.000 A 
ATOM     19  C   UNL     1       1.141   9.550  18.868  0.00  0.00    +0.000 A 
ATOM     20  C   UNL     1       0.311   9.853  19.947  0.00  0.00    +0.000 A 
ATOM     21  C   UNL     1       0.268   9.003  21.048  0.00  0.00    +0.000 A 
ATOM     22  C   UNL     1       1.074   7.861  21.083  0.00  0.00    +0.000 A 
ATOM     23  C   UNL     1       1.923   7.542  20.006  0.00  0.00    +0.000 A 
ATOM     24  C   UNL     1       2.766   6.411  20.024  0.00  0.00    +0.000 A 
ENDBRANCH  14  15
ENDBRANCH   2  14
TORSDOF 3
ENDMDL
MODEL 4
REMARK VINA RESULT:      -8.4      4.357      8.682
REMARK  Name = 
REMARK  3 active torsions:
REMARK  status: ('A' for Active; 'I' for Inactive)
REMARK    1  A    between atoms: C_2  and  O_3
REMARK    2  A    between atoms: C_2  and  C_14
REMARK    3  A    between atoms: O_3  and  C_4
REMARK                            x       y       z     vdW  Elec       q    Type
REMARK                         _______ _______ _______ _____ _____    ______ ____
ROOT
ATOM      1  O   UNL     1       2.436   9.786  17.548  0.00  0.00    +0.000 OA
ATOM      2  C   UNL     1       1.654   9.465  18.436  0.00  0.00    +0.000 C 
ENDROOT
BRANCH   2   3
ATOM      3  C   UNL     1       0.298  10.072  18.564  0.00  0.00    +0.000 A 
ATOM      4  C   UNL     1      -0.631   9.756  17.637  0.00  0.00    +0.000 A 
ATOM      5  C   UNL     1      -1.947  10.388  17.644  0.00  0.00    +0.000 A 
ATOM      6  C   UNL     1      -2.880  10.226  16.616  0.00  0.00    +0.000 A 
ATOM      7  C   UNL     1      -4.131  10.857  16.690  0.00  0.00    +0.000 A 
ATOM      8  C   UNL     1      -4.459  11.642  17.797  0.00  0.00    +0.000 A 
ATOM      9  C   UNL     1      -3.530  11.821  18.819  0.00  0.00    +0.000 A 
ATOM     10  C   UNL     1      -2.285  11.199  18.720  0.00  0.00    +0.000 A 
ATOM     11  O   UNL     1      -1.351  11.460  19.734  0.00  0.00    +0.000 OA
ATOM     12  C   UNL     1      -0.026  11.047  19.626  0.00  0.00    +0.000 A 
ATOM     13  O   UNL     1       0.808  11.483  20.400  0.00  0.00    +0.000 OA
ENDBRANCH   2   3
BRANCH   2  14
ATOM     14  O   UNL     1       1.904   8.520  19.430  0.00  0.00    +0.000 OA
BRANCH  14  15
ATOM     15  C   UNL     1       2.117   7.128  19.215  0.00  0.00    +0.000 A 
ATOM     16  C   UNL     1       2.543   6.601  18.001  0.00  0.00    +0.000 A 
ATOM     17  C   UNL     1       2.581   5.212  17.827  0.00  0.00    +0.000 A 
ATOM     18  C   UNL     1       2.233   4.340  18.872  0.00  0.00    +0.000 A 
ATOM     19  C   UNL     1       2.256   2.947  18.693  0.00  0.00    +0.000 A 
ATOM     20  C   UNL     1       1.946   2.087  19.747  0.00  0.00    +0.000 A 
ATOM     21  C   UNL     1       1.606   2.609  20.991  0.00  0.00    +0.000 A 
ATOM     22  C   UNL     1       1.552   3.993  21.178  0.00  0.00    +0.000 A 
ATOM     23  C   UNL     1       1.855   4.878  20.126  0.00  0.00    +0.000 A 
ATOM     24  C   UNL     1       1.783   6.279  20.278  0.00  0.00    +0.000 A 
ENDBRANCH  14  15
ENDBRANCH   2  14
TORSDOF 3
ENDMDL
MODEL 5
REMARK VINA RESULT:      -8.4      1.022      1.461
REMARK  Name = 
REMARK  3 active torsions:
REMARK  status: ('A' for Active; 'I' for Inactive)
REMARK    1  A    between atoms: C_2  and  O_3
REMARK    2  A    between atoms: C_2  and  C_14
REMARK    3  A    between atoms: O_3  and  C_4
REMARK                            x       y       z     vdW  Elec       q    Type
REMARK                         _______ _______ _______ _____ _____    ______ ____
ROOT
ATOM      1  O   UNL     1       4.102   2.815  19.930  0.00  0.00    +0.000 OA
ATOM      2  C   UNL     1       3.805   3.660  19.093  0.00  0.00    +0.000 C 
ENDROOT
BRANCH   2   3
ATOM      3  C   UNL     1       4.770   4.136  18.062  0.00  0.00    +0.000 A 
ATOM      4  C   UNL     1       4.546   3.799  16.775  0.00  0.00    +0.000 A 
ATOM      5  C   UNL     1       5.501   4.147  15.726  0.00  0.00    +0.000 A 
ATOM      6  C   UNL     1       5.403   3.677  14.414  0.00  0.00    +0.000 A 
ATOM      7  C   UNL     1       6.352   4.059  13.454  0.00  0.00    +0.000 A 
ATOM      8  C   UNL     1       7.396   4.920  13.798  0.00  0.00    +0.000 A 
ATOM      9  C   UNL     1       7.509   5.381  15.107  0.00  0.00    +0.000 A 
ATOM     10  C   UNL     1       6.566   4.978  16.052  0.00  0.00    +0.000 A 
ATOM     11  O   UNL     1       6.753   5.406  17.375  0.00  0.00    +0.000 OA
ATOM     12  C   UNL     1       5.983   4.901  18.419  0.00  0.00    +0.000 A 
ATOM     13  O   UNL     1       6.317   5.110  19.572  0.00  0.00    +0.000 OA
ENDBRANCH   2   3
BRANCH   2  14
ATOM     14  O   UNL     1       2.563   4.285  18.982  0.00  0.00    +0.000 OA
BRANCH  14  15
ATOM     15  C   UNL     1       2.265   5.613  19.399  0.00  0.00    +0.000 A 
ATOM     16  C   UNL     1       1.793   5.926  20.670  0.00  0.00    +0.000 A 
ATOM     17  C   UNL     1       1.382   7.234  20.950  0.00  0.00    +0.000 A 
ATOM     18  C   UNL     1       1.472   8.247  19.981  0.00  0.00    +0.000 A 
ATOM     19  C   UNL     1       1.043   9.556  20.257  0.00  0.00    +0.000 A 
ATOM     20  C   UNL     1       1.172  10.566  19.302  0.00  0.00    +0.000 A 
ATOM     21  C   UNL     1       1.727  10.278  18.059  0.00  0.00    +0.000 A 
ATOM     22  C   UNL     1       2.133   8.974  17.759  0.00  0.00    +0.000 A 
ATOM     23  C   UNL     1       2.006   7.940  18.706  0.00  0.00    +0.000 A 
ATOM     24  C   UNL     1       2.383   6.611  18.422  0.00  0.00    +0.000 A 
ENDBRANCH  14  15
ENDBRANCH   2  14
TORSDOF 3
ENDMDL
MODEL 6
REMARK VINA RESULT:      -8.4      2.239      4.203
REMARK  Name = 
REMARK  3 active torsions:
REMARK  status: ('A' for Active; 'I' for Inactive)
REMARK    1  A    between atoms: C_2  and  O_3
REMARK    2  A    between atoms: C_2  and  C_14
REMARK    3  A    between atoms: O_3  and  C_4
REMARK                            x       y       z     vdW  Elec       q    Type
REMARK                         _______ _______ _______ _____ _____    ______ ____
ROOT
ATOM      1  O   UNL     1       1.117   4.846  20.361  0.00  0.00    +0.000 OA
ATOM      2  C   UNL     1       2.043   5.543  19.963  0.00  0.00    +0.000 C 
ENDROOT
BRANCH   2   3
ATOM      3  C   UNL     1       2.955   5.108  18.867  0.00  0.00    +0.000 A 
ATOM      4  C   UNL     1       4.232   5.544  18.890  0.00  0.00    +0.000 A 
ATOM      5  C   UNL     1       5.153   5.240  17.798  0.00  0.00    +0.000 A 
ATOM      6  C   UNL     1       6.427   5.805  17.690  0.00  0.00    +0.000 A 
ATOM      7  C   UNL     1       7.264   5.461  16.619  0.00  0.00    +0.000 A 
ATOM      8  C   UNL     1       6.837   4.543  15.656  0.00  0.00    +0.000 A 
ATOM      9  C   UNL     1       5.564   3.986  15.749  0.00  0.00    +0.000 A 
ATOM     10  C   UNL     1       4.739   4.352  16.812  0.00  0.00    +0.000 A 
ATOM     11  O   UNL     1       3.438   3.825  16.833  0.00  0.00    +0.000 OA
ATOM     12  C   UNL     1       2.483   4.280  17.738  0.00  0.00    +0.000 A 
ATOM     13  O   UNL     1       1.312   3.978  17.582  0.00  0.00    +0.000 OA
ENDBRANCH   2   3
BRANCH   2  14
ATOM     14  O   UNL     1       2.378   6.802  20.460  0.00  0.00    +0.000 OA
BRANCH  14  15
ATOM     15  C   UNL     1       1.536   7.950  20.440  0.00  0.00    +0.000 A 
ATOM     16  C   UNL     1       1.369   8.754  19.318  0.00  0.00    +0.000 A 
ATOM     17  C   UNL     1       0.645   9.947  19.426  0.00  0.00    +0.000 A 
ATOM     18  C   UNL     1       0.052  10.329  20.641  0.00  0.00    +0.000 A 
ATOM     19  C   UNL     1      -0.661  11.534  20.753  0.00  0.00    +0.000 A 
ATOM     20  C   UNL     1      -1.280  11.889  21.953  0.00  0.00    +0.000 A 
ATOM     21  C   UNL     1      -1.191  11.043  23.054  0.00  0.00    +0.000 A 
ATOM     22  C   UNL     1      -0.462   9.854  22.967  0.00  0.00    +0.000 A 
ATOM     23  C   UNL     1       0.175   9.482  21.768  0.00  0.00    +0.000 A 
ATOM     24  C   UNL     1       0.938   8.301  21.658  0.00  0.00    +0.000 A 
ENDBRANCH  14  15
ENDBRANCH   2  14
TORSDOF 3
ENDMDL
MODEL 7
REMARK VINA RESULT:      -8.3      4.111      8.365
REMARK  Name = 
REMARK  3 active torsions:
REMARK  status: ('A' for Active; 'I' for Inactive)
REMARK    1  A    between atoms: C_2  and  O_3
REMARK    2  A    between atoms: C_2  and  C_14
REMARK    3  A    between atoms: O_3  and  C_4
REMARK                            x       y       z     vdW  Elec       q    Type
REMARK                         _______ _______ _______ _____ _____    ______ ____
ROOT
ATOM      1  O   UNL     1       2.548   9.141  17.254  0.00  0.00    +0.000 OA
ATOM      2  C   UNL     1       1.856   9.037  18.260  0.00  0.00    +0.000 C 
ENDROOT
BRANCH   2   3
ATOM      3  C   UNL     1       0.544   9.730  18.401  0.00  0.00    +0.000 A 
ATOM      4  C   UNL     1      -0.429   9.440  17.511  0.00  0.00    +0.000 A 
ATOM      5  C   UNL     1      -1.704  10.152  17.529  0.00  0.00    +0.000 A 
ATOM      6  C   UNL     1      -2.673  10.012  16.532  0.00  0.00    +0.000 A 
ATOM      7  C   UNL     1      -3.881  10.721  16.617  0.00  0.00    +0.000 A 
ATOM      8  C   UNL     1      -4.130  11.563  17.703  0.00  0.00    +0.000 A 
ATOM      9  C   UNL     1      -3.164  11.718  18.693  0.00  0.00    +0.000 A 
ATOM     10  C   UNL     1      -1.962  11.019  18.584  0.00  0.00    +0.000 A 
ATOM     11  O   UNL     1      -0.985  11.256  19.563  0.00  0.00    +0.000 OA
ATOM     12  C   UNL     1       0.309  10.759  19.436  0.00  0.00    +0.000 A 
ATOM     13  O   UNL     1       1.189  11.170  20.172  0.00  0.00    +0.000 OA
ENDBRANCH   2   3
BRANCH   2  14
ATOM     14  O   UNL     1       2.180   8.286  19.389  0.00  0.00    +0.000 OA
BRANCH  14  15
ATOM     15  C   UNL     1       1.996   6.881  19.530  0.00  0.00    +0.000 A 
ATOM     16  C   UNL     1       1.585   6.281  20.715  0.00  0.00    +0.000 A 
ATOM     17  C   UNL     1       1.575   4.884  20.813  0.00  0.00    +0.000 A 
ATOM     18  C   UNL     1       1.937   4.077  19.722  0.00  0.00    +0.000 A 
ATOM     19  C   UNL     1       1.943   2.676  19.825  0.00  0.00    +0.000 A 
ATOM     20  C   UNL     1       2.266   1.880  18.726  0.00  0.00    +0.000 A 
ATOM     21  C   UNL     1       2.591   2.475  17.511  0.00  0.00    +0.000 A 
ATOM     22  C   UNL     1       2.617   3.868  17.399  0.00  0.00    +0.000 A 
ATOM     23  C   UNL     1       2.300   4.688  18.498  0.00  0.00    +0.000 A 
ATOM     24  C   UNL     1       2.343   6.096  18.421  0.00  0.00    +0.000 A 
ENDBRANCH  14  15
ENDBRANCH   2  14
TORSDOF 3
ENDMDL
MODEL 8
REMARK VINA RESULT:      -8.3      1.234      7.496
REMARK  Name = 
REMARK  3 active torsions:
REMARK  status: ('A' for Active; 'I' for Inactive)
REMARK    1  A    between atoms: C_2  and  O_3
REMARK    2  A    between atoms: C_2  and  C_14
REMARK    3  A    between atoms: O_3  and  C_4
REMARK                            x       y       z     vdW  Elec       q    Type
REMARK                         _______ _______ _______ _____ _____    ______ ____
ROOT
ATOM      1  O   UNL     1       2.676   3.336  17.506  0.00  0.00    +0.000 OA
ATOM      2  C   UNL     1       3.360   4.224  18.003  0.00  0.00    +0.000 C 
ENDROOT
BRANCH   2   3
ATOM      3  C   UNL     1       2.761   5.431  18.639  0.00  0.00    +0.000 A 
ATOM      4  C   UNL     1       2.591   6.533  17.879  0.00  0.00    +0.000 A 
ATOM      5  C   UNL     1       2.102   7.781  18.458  0.00  0.00    +0.000 A 
ATOM      6  C   UNL     1       2.071   8.990  17.758  0.00  0.00    +0.000 A 
ATOM      7  C   UNL     1       1.580  10.151  18.374  0.00  0.00    +0.000 A 
ATOM      8  C   UNL     1       1.109  10.107  19.688  0.00  0.00    +0.000 A 
ATOM      9  C   UNL     1       1.150   8.909  20.397  0.00  0.00    +0.000 A 
ATOM     10  C   UNL     1       1.657   7.769  19.774  0.00  0.00    +0.000 A 
ATOM     11  O   UNL     1       1.749   6.599  20.544  0.00  0.00    +0.000 OA
ATOM     12  C   UNL     1       2.416   5.470  20.075  0.00  0.00    +0.000 A 
ATOM     13  O   UNL     1       2.680   4.562  20.844  0.00  0.00    +0.000 OA
ENDBRANCH   2   3
BRANCH   2  14
ATOM     14  O   UNL     1       4.754   4.242  18.046  0.00  0.00    +0.000 OA
BRANCH  14  15
ATOM     15  C   UNL     1       5.614   4.430  16.927  0.00  0.00    +0.000 A 
ATOM     16  C   UNL     1       6.756   5.222  16.969  0.00  0.00    +0.000 A 
ATOM     17  C   UNL     1       7.462   5.477  15.787  0.00  0.00    +0.000 A 
ATOM     18  C   UNL     1       7.058   4.915  14.565  0.00  0.00    +0.000 A 
ATOM     19  C   UNL     1       7.758   5.184  13.376  0.00  0.00    +0.000 A 
ATOM     20  C   UNL     1       7.374   4.592  12.172  0.00  0.00    +0.000 A 
ATOM     21  C   UNL     1       6.284   3.727  12.142  0.00  0.00    +0.000 A 
ATOM     22  C   UNL     1       5.561   3.470  13.311  0.00  0.00    +0.000 A 
ATOM     23  C   UNL     1       5.929   4.063  14.534  0.00  0.00    +0.000 A 
ATOM     24  C   UNL     1       5.203   3.843  15.723  0.00  0.00    +0.000 A 
ENDBRANCH  14  15
ENDBRANCH   2  14
TORSDOF 3
ENDMDL
MODEL 9
REMARK VINA RESULT:      -8.3      2.219      3.760
REMARK  Name = 
REMARK  3 active torsions:
REMARK  status: ('A' for Active; 'I' for Inactive)
REMARK    1  A    between atoms: C_2  and  O_3
REMARK    2  A    between atoms: C_2  and  C_14
REMARK    3  A    between atoms: O_3  and  C_4
REMARK                            x       y       z     vdW  Elec       q    Type
REMARK                         _______ _______ _______ _____ _____    ______ ____
ROOT
ATOM      1  O   UNL     1       1.445   3.700  20.630  0.00  0.00    +0.000 OA
ATOM      2  C   UNL     1       2.194   4.575  20.208  0.00  0.00    +0.000 C 
ENDROOT
BRANCH   2   3
ATOM      3  C   UNL     1       3.067   4.372  19.017  0.00  0.00    +0.000 A 
ATOM      4  C   UNL     1       4.400   4.516  19.172  0.00  0.00    +0.000 A 
ATOM      5  C   UNL     1       5.305   4.430  18.030  0.00  0.00    +0.000 A 
ATOM      6  C   UNL     1       6.666   4.739  18.107  0.00  0.00    +0.000 A 
ATOM      7  C   UNL     1       7.482   4.626  16.971  0.00  0.00    +0.000 A 
ATOM      8  C   UNL     1       6.943   4.193  15.757  0.00  0.00    +0.000 A 
ATOM      9  C   UNL     1       5.586   3.897  15.669  0.00  0.00    +0.000 A 
ATOM     10  C   UNL     1       4.787   4.031  16.804  0.00  0.00    +0.000 A 
ATOM     11  O   UNL     1       3.412   3.793  16.659  0.00  0.00    +0.000 OA
ATOM     12  C   UNL     1       2.511   4.087  17.678  0.00  0.00    +0.000 A 
ATOM     13  O   UNL     1       1.314   4.091  17.444  0.00  0.00    +0.000 OA
ENDBRANCH   2   3
BRANCH   2  14
ATOM     14  O   UNL     1       2.342   5.846  20.761  0.00  0.00    +0.000 OA
BRANCH  14  15
ATOM     15  C   UNL     1       1.897   7.063  20.170  0.00  0.00    +0.000 A 
ATOM     16  C   UNL     1       2.234   7.451  18.878  0.00  0.00    +0.000 A 
ATOM     17  C   UNL     1       1.882   8.729  18.428  0.00  0.00    +0.000 A 
ATOM     18  C   UNL     1       1.160   9.614  19.247  0.00  0.00    +0.000 A 
ATOM     19  C   UNL     1       0.821  10.902  18.801  0.00  0.00    +0.000 A 
ATOM     20  C   UNL     1       0.070  11.761  19.604  0.00  0.00    +0.000 A 
ATOM     21  C   UNL     1      -0.347  11.343  20.864  0.00  0.00    +0.000 A 
ATOM     22  C   UNL     1       0.006  10.075  21.333  0.00  0.00    +0.000 A 
ATOM     23  C   UNL     1       0.768   9.196  20.541  0.00  0.00    +0.000 A 
ATOM     24  C   UNL     1       1.161   7.921  20.998  0.00  0.00    +0.000 A 
ENDBRANCH  14  15
ENDBRANCH   2  14
TORSDOF 3
ENDMDL
