MODEL 1
REMARK VINA RESULT:      -9.1      0.000      0.000
REMARK  Name = 
REMARK  6 active torsions:
REMARK  status: ('A' for Active; 'I' for Inactive)
REMARK    1  A    between atoms: C_8  and  S_9
REMARK    2  A    between atoms: S_9  and  N_12
REMARK    3  A    between atoms: N_12  and  C_13
REMARK    4  A    between atoms: C_13  and  C_14
REMARK    5  A    between atoms: C_14  and  C_15
REMARK    6  A    between atoms: C_18  and  C_19
REMARK                            x       y       z     vdW  Elec       q    Type
REMARK                         _______ _______ _______ _____ _____    ______ ____
ROOT
ATOM      1  S   UNL     1       2.982   4.297  19.110  0.00  0.00    +0.000 S 
ATOM      2  O   UNL     1       2.916   3.837  20.476  0.00  0.00    +0.000 OA
ATOM      3  O   UNL     1       2.180   3.694  18.068  0.00  0.00    +0.000 OA
ENDROOT
BRANCH   1  11
ATOM      4  O   UNL     1      -0.771  11.165  18.714  0.00  0.00    +0.000 OA
ATOM      5  C   UNL     1      -0.091  10.404  19.414  0.00  0.00    +0.000 C 
ATOM      6  C   UNL     1      -0.483  10.192  20.857  0.00  0.00    +0.000 C 
ATOM      7  C   UNL     1      -0.205   8.856  21.506  0.00  0.00    +0.000 C 
ATOM      8  C   UNL     1       1.282   8.581  21.564  0.00  0.00    +0.000 C 
ATOM      9  C   UNL     1       1.726   7.973  20.266  0.00  0.00    +0.000 A 
ATOM     10  C   UNL     1       2.193   6.650  20.279  0.00  0.00    +0.000 A 
ATOM     11  C   UNL     1       2.614   6.029  19.097  0.00  0.00    +0.000 A 
ATOM     12  C   UNL     1       2.693   6.765  17.918  0.00  0.00    +0.000 A 
ATOM     13  C   UNL     1       2.226   8.082  17.901  0.00  0.00    +0.000 A 
ATOM     14  C   UNL     1       1.679   8.669  19.053  0.00  0.00    +0.000 A 
ATOM     15  N   UNL     1       1.031   9.897  18.840  0.00  0.00    +0.000 N 
ATOM     16  H   UNL     1       1.117  10.275  17.902  0.00  0.00    +0.000 HD
ENDBRANCH   1  11
BRANCH   1  17
ATOM     17  N   UNL     1       4.568   4.228  18.568  0.00  0.00    +0.000 NA
ATOM     18  H   UNL     1       4.665   3.721  17.692  0.00  0.00    +0.000 HD
BRANCH  17  19
ATOM     19  C   UNL     1       5.585   5.230  18.886  0.00  0.00    +0.000 C 
BRANCH  19  20
ATOM     20  C   UNL     1       6.327   5.777  17.683  0.00  0.00    +0.000 C 
ATOM     21  C   UNL     1       7.473   6.728  17.993  0.00  0.00    +0.000 C 
ATOM     22  C   UNL     1       6.244   7.280  17.364  0.00  0.00    +0.000 C 
BRANCH  20  23
ATOM     23  C   UNL     1       6.266   4.952  16.390  0.00  0.00    +0.000 A 
ATOM     24  C   UNL     1       5.027   4.542  15.858  0.00  0.00    +0.000 A 
ATOM     25  C   UNL     1       4.917   4.046  14.556  0.00  0.00    +0.000 A 
ATOM     26  C   UNL     1       6.047   3.951  13.740  0.00  0.00    +0.000 A 
ATOM     27  C   UNL     1       7.301   4.247  14.293  0.00  0.00    +0.000 A 
ATOM     28  C   UNL     1       7.404   4.725  15.602  0.00  0.00    +0.000 A 
BRANCH  26  29
ATOM     29  C   UNL     1       5.931   3.616  12.275  0.00  0.00    +0.000 C 
ATOM     30  F   UNL     1       6.769   4.342  11.484  0.00  0.00    +0.000 F 
ATOM     31  F   UNL     1       6.228   2.310  12.023  0.00  0.00    +0.000 F 
ATOM     32  F   UNL     1       4.679   3.817  11.780  0.00  0.00    +0.000 F 
ENDBRANCH  26  29
ENDBRANCH  20  23
ENDBRANCH  19  20
ENDBRANCH  17  19
ENDBRANCH   1  17
TORSDOF 6
ENDMDL
MODEL 2
REMARK VINA RESULT:      -9.1      1.391      2.316
REMARK  Name = 
REMARK  6 active torsions:
REMARK  status: ('A' for Active; 'I' for Inactive)
REMARK    1  A    between atoms: C_8  and  S_9
REMARK    2  A    between atoms: S_9  and  N_12
REMARK    3  A    between atoms: N_12  and  C_13
REMARK    4  A    between atoms: C_13  and  C_14
REMARK    5  A    between atoms: C_14  and  C_15
REMARK    6  A    between atoms: C_18  and  C_19
REMARK                            x       y       z     vdW  Elec       q    Type
REMARK                         _______ _______ _______ _____ _____    ______ ____
ROOT
ATOM      1  S   UNL     1       4.480   2.845  19.253  0.00  0.00    +0.000 S 
ATOM      2  O   UNL     1       4.743   2.144  20.486  0.00  0.00    +0.000 OA
ATOM      3  O   UNL     1       4.021   2.153  18.069  0.00  0.00    +0.000 OA
ENDROOT
BRANCH   1  11
ATOM      4  O   UNL     1       1.147   9.671  21.182  0.00  0.00    +0.000 OA
ATOM      5  C   UNL     1       1.317   8.824  20.295  0.00  0.00    +0.000 C 
ATOM      6  C   UNL     1       1.621   9.288  18.891  0.00  0.00    +0.000 C 
ATOM      7  C   UNL     1       2.495   8.430  18.005  0.00  0.00    +0.000 C 
ATOM      8  C   UNL     1       1.844   7.091  17.737  0.00  0.00    +0.000 C 
ATOM      9  C   UNL     1       2.164   6.148  18.860  0.00  0.00    +0.000 A 
ATOM     10  C   UNL     1       2.960   5.028  18.579  0.00  0.00    +0.000 A 
ATOM     11  C   UNL     1       3.296   4.118  19.589  0.00  0.00    +0.000 A 
ATOM     12  C   UNL     1       2.734   4.251  20.856  0.00  0.00    +0.000 A 
ATOM     13  C   UNL     1       1.942   5.368  21.140  0.00  0.00    +0.000 A 
ATOM     14  C   UNL     1       1.710   6.354  20.167  0.00  0.00    +0.000 A 
ATOM     15  N   UNL     1       1.110   7.529  20.649  0.00  0.00    +0.000 N 
ATOM     16  H   UNL     1       0.818   7.499  21.621  0.00  0.00    +0.000 HD
ENDBRANCH   1  11
BRANCH   1  17
ATOM     17  N   UNL     1       5.849   3.696  18.786  0.00  0.00    +0.000 NA
ATOM     18  H   UNL     1       6.390   3.214  18.073  0.00  0.00    +0.000 HD
BRANCH  17  19
ATOM     19  C   UNL     1       5.972   5.151  18.862  0.00  0.00    +0.000 C 
BRANCH  19  20
ATOM     20  C   UNL     1       6.425   5.811  17.574  0.00  0.00    +0.000 C 
ATOM     21  C   UNL     1       7.391   6.975  17.735  0.00  0.00    +0.000 C 
ATOM     22  C   UNL     1       6.005   7.263  17.282  0.00  0.00    +0.000 C 
BRANCH  20  23
ATOM     23  C   UNL     1       6.357   4.967  16.294  0.00  0.00    +0.000 A 
ATOM     24  C   UNL     1       5.128   4.448  15.841  0.00  0.00    +0.000 A 
ATOM     25  C   UNL     1       4.983   3.927  14.553  0.00  0.00    +0.000 A 
ATOM     26  C   UNL     1       6.066   3.914  13.671  0.00  0.00    +0.000 A 
ATOM     27  C   UNL     1       7.322   4.322  14.145  0.00  0.00    +0.000 A 
ATOM     28  C   UNL     1       7.462   4.824  15.441  0.00  0.00    +0.000 A 
BRANCH  26  29
ATOM     29  C   UNL     1       5.892   3.552  12.219  0.00  0.00    +0.000 C 
ATOM     30  F   UNL     1       4.619   3.720  11.765  0.00  0.00    +0.000 F 
ATOM     31  F   UNL     1       6.676   4.313  11.404  0.00  0.00    +0.000 F 
ATOM     32  F   UNL     1       6.220   2.259  11.949  0.00  0.00    +0.000 F 
ENDBRANCH  26  29
ENDBRANCH  20  23
ENDBRANCH  19  20
ENDBRANCH  17  19
ENDBRANCH   1  17
TORSDOF 6
ENDMDL
MODEL 3
REMARK VINA RESULT:      -8.9      0.887      1.188
REMARK  Name = 
REMARK  6 active torsions:
REMARK  status: ('A' for Active; 'I' for Inactive)
REMARK    1  A    between atoms: C_8  and  S_9
REMARK    2  A    between atoms: S_9  and  N_12
REMARK    3  A    between atoms: N_12  and  C_13
REMARK    4  A    between atoms: C_13  and  C_14
REMARK    5  A    between atoms: C_14  and  C_15
REMARK    6  A    between atoms: C_18  and  C_19
REMARK                            x       y       z     vdW  Elec       q    Type
REMARK                         _______ _______ _______ _____ _____    ______ ____
ROOT
ATOM      1  S   UNL     1       2.728   4.878  18.836  0.00  0.00    +0.000 S 
ATOM      2  O   UNL     1       1.918   4.118  19.757  0.00  0.00    +0.000 OA
ATOM      3  O   UNL     1       2.692   4.629  17.411  0.00  0.00    +0.000 OA
ENDROOT
BRANCH   1  11
ATOM      4  O   UNL     1      -1.078  11.688  19.573  0.00  0.00    +0.000 OA
ATOM      5  C   UNL     1      -0.340  10.859  20.120  0.00  0.00    +0.000 C 
ATOM      6  C   UNL     1      -0.614  10.468  21.553  0.00  0.00    +0.000 C 
ATOM      7  C   UNL     1      -0.278   9.068  22.012  0.00  0.00    +0.000 C 
ATOM      8  C   UNL     1       1.210   8.810  21.917  0.00  0.00    +0.000 C 
ATOM      9  C   UNL     1       1.551   8.369  20.525  0.00  0.00    +0.000 A 
ATOM     10  C   UNL     1       2.024   7.061  20.340  0.00  0.00    +0.000 A 
ATOM     11  C   UNL     1       2.352   6.593  19.062  0.00  0.00    +0.000 A 
ATOM     12  C   UNL     1       2.332   7.467  17.978  0.00  0.00    +0.000 A 
ATOM     13  C   UNL     1       1.859   8.770  18.158  0.00  0.00    +0.000 A 
ATOM     14  C   UNL     1       1.404   9.206  19.413  0.00  0.00    +0.000 A 
ATOM     15  N   UNL     1       0.735  10.440  19.402  0.00  0.00    +0.000 N 
ATOM     16  H   UNL     1       0.743  10.930  18.512  0.00  0.00    +0.000 HD
ENDBRANCH   1  11
BRANCH   1  17
ATOM     17  N   UNL     1       4.342   4.767  19.281  0.00  0.00    +0.000 NA
ATOM     18  H   UNL     1       4.712   3.825  19.193  0.00  0.00    +0.000 HD
BRANCH  17  19
ATOM     19  C   UNL     1       5.290   5.878  19.202  0.00  0.00    +0.000 C 
BRANCH  19  20
ATOM     20  C   UNL     1       6.381   5.699  18.165  0.00  0.00    +0.000 C 
ATOM     21  C   UNL     1       7.794   5.564  18.714  0.00  0.00    +0.000 C 
ATOM     22  C   UNL     1       7.435   6.806  17.980  0.00  0.00    +0.000 C 
BRANCH  20  23
ATOM     23  C   UNL     1       5.966   5.124  16.804  0.00  0.00    +0.000 A 
ATOM     24  C   UNL     1       5.573   5.976  15.754  0.00  0.00    +0.000 A 
ATOM     25  C   UNL     1       5.465   5.517  14.439  0.00  0.00    +0.000 A 
ATOM     26  C   UNL     1       5.756   4.186  14.131  0.00  0.00    +0.000 A 
ATOM     27  C   UNL     1       6.038   3.301  15.180  0.00  0.00    +0.000 A 
ATOM     28  C   UNL     1       6.125   3.764  16.496  0.00  0.00    +0.000 A 
BRANCH  26  29
ATOM     29  C   UNL     1       5.849   3.713  12.702  0.00  0.00    +0.000 C 
ATOM     30  F   UNL     1       6.250   2.417  12.584  0.00  0.00    +0.000 F 
ATOM     31  F   UNL     1       4.648   3.785  12.061  0.00  0.00    +0.000 F 
ATOM     32  F   UNL     1       6.717   4.446  11.954  0.00  0.00    +0.000 F 
ENDBRANCH  26  29
ENDBRANCH  20  23
ENDBRANCH  19  20
ENDBRANCH  17  19
ENDBRANCH   1  17
TORSDOF 6
ENDMDL
MODEL 4
REMARK VINA RESULT:      -8.9      0.599      1.067
REMARK  Name = 
REMARK  6 active torsions:
REMARK  status: ('A' for Active; 'I' for Inactive)
REMARK    1  A    between atoms: C_8  and  S_9
REMARK    2  A    between atoms: S_9  and  N_12
REMARK    3  A    between atoms: N_12  and  C_13
REMARK    4  A    between atoms: C_13  and  C_14
REMARK    5  A    between atoms: C_14  and  C_15
REMARK    6  A    between atoms: C_18  and  C_19
REMARK                            x       y       z     vdW  Elec       q    Type
REMARK                         _______ _______ _______ _____ _____    ______ ____
ROOT
ATOM      1  S   UNL     1       2.978   4.590  19.575  0.00  0.00    +0.000 S 
ATOM      2  O   UNL     1       2.422   4.162  20.836  0.00  0.00    +0.000 OA
ATOM      3  O   UNL     1       2.648   3.922  18.336  0.00  0.00    +0.000 OA
ENDROOT
BRANCH   1  11
ATOM      4  O   UNL     1      -0.875  11.285  18.257  0.00  0.00    +0.000 OA
ATOM      5  C   UNL     1      -0.212  10.622  19.066  0.00  0.00    +0.000 C 
ATOM      6  C   UNL     1      -0.664  10.563  20.506  0.00  0.00    +0.000 C 
ATOM      7  C   UNL     1      -0.390   9.314  21.312  0.00  0.00    +0.000 C 
ATOM      8  C   UNL     1       1.097   9.081  21.461  0.00  0.00    +0.000 C 
ATOM      9  C   UNL     1       1.608   8.343  20.260  0.00  0.00    +0.000 A 
ATOM     10  C   UNL     1       2.097   7.040  20.440  0.00  0.00    +0.000 A 
ATOM     11  C   UNL     1       2.580   6.301  19.354  0.00  0.00    +0.000 A 
ATOM     12  C   UNL     1       2.698   6.903  18.103  0.00  0.00    +0.000 A 
ATOM     13  C   UNL     1       2.209   8.199  17.920  0.00  0.00    +0.000 A 
ATOM     14  C   UNL     1       1.602   8.898  18.975  0.00  0.00    +0.000 A 
ATOM     15  N   UNL     1       0.942  10.080  18.599  0.00  0.00    +0.000 N 
ATOM     16  H   UNL     1       1.062  10.353  17.629  0.00  0.00    +0.000 HD
ENDBRANCH   1  11
BRANCH   1  17
ATOM     17  N   UNL     1       4.653   4.585  19.668  0.00  0.00    +0.000 NA
ATOM     18  H   UNL     1       4.997   4.657  20.622  0.00  0.00    +0.000 HD
BRANCH  17  19
ATOM     19  C   UNL     1       5.525   3.947  18.682  0.00  0.00    +0.000 C 
BRANCH  19  20
ATOM     20  C   UNL     1       6.348   4.913  17.853  0.00  0.00    +0.000 C 
ATOM     21  C   UNL     1       7.600   5.456  18.526  0.00  0.00    +0.000 C 
ATOM     22  C   UNL     1       6.460   6.382  18.297  0.00  0.00    +0.000 C 
BRANCH  20  23
ATOM     23  C   UNL     1       6.204   4.825  16.327  0.00  0.00    +0.000 A 
ATOM     24  C   UNL     1       7.320   5.011  15.489  0.00  0.00    +0.000 A 
ATOM     25  C   UNL     1       7.287   4.662  14.136  0.00  0.00    +0.000 A 
ATOM     26  C   UNL     1       6.133   4.106  13.580  0.00  0.00    +0.000 A 
ATOM     27  C   UNL     1       4.980   4.019  14.373  0.00  0.00    +0.000 A 
ATOM     28  C   UNL     1       5.017   4.389  15.720  0.00  0.00    +0.000 A 
BRANCH  26  29
ATOM     29  C   UNL     1       6.131   3.532  12.186  0.00  0.00    +0.000 C 
ATOM     30  F   UNL     1       7.078   4.079  11.373  0.00  0.00    +0.000 F 
ATOM     31  F   UNL     1       6.376   2.191  12.184  0.00  0.00    +0.000 F 
ATOM     32  F   UNL     1       4.943   3.696  11.543  0.00  0.00    +0.000 F 
ENDBRANCH  26  29
ENDBRANCH  20  23
ENDBRANCH  19  20
ENDBRANCH  17  19
ENDBRANCH   1  17
TORSDOF 6
ENDMDL
MODEL 5
REMARK VINA RESULT:      -8.9      1.006      1.316
REMARK  Name = 
REMARK  6 active torsions:
REMARK  status: ('A' for Active; 'I' for Inactive)
REMARK    1  A    between atoms: C_8  and  S_9
REMARK    2  A    between atoms: S_9  and  N_12
REMARK    3  A    between atoms: N_12  and  C_13
REMARK    4  A    between atoms: C_13  and  C_14
REMARK    5  A    between atoms: C_14  and  C_15
REMARK    6  A    between atoms: C_18  and  C_19
REMARK                            x       y       z     vdW  Elec       q    Type
REMARK                         _______ _______ _______ _____ _____    ______ ____
ROOT
ATOM      1  S   UNL     1       2.605   5.424  19.204  0.00  0.00    +0.000 S 
ATOM      2  O   UNL     1       2.354   4.678  20.413  0.00  0.00    +0.000 OA
ATOM      3  O   UNL     1       2.020   5.038  17.939  0.00  0.00    +0.000 OA
ENDROOT
BRANCH   1  11
ATOM      4  O   UNL     1      -1.586  11.946  20.349  0.00  0.00    +0.000 OA
ATOM      5  C   UNL     1      -0.755  11.161  20.825  0.00  0.00    +0.000 C 
ATOM      6  C   UNL     1      -0.897  10.732  22.265  0.00  0.00    +0.000 C 
ATOM      7  C   UNL     1      -0.434   9.352  22.671  0.00  0.00    +0.000 C 
ATOM      8  C   UNL     1       1.057   9.198  22.464  0.00  0.00    +0.000 C 
ATOM      9  C   UNL     1       1.324   8.802  21.042  0.00  0.00    +0.000 A 
ATOM     10  C   UNL     1       1.869   7.532  20.798  0.00  0.00    +0.000 A 
ATOM     11  C   UNL     1       2.132   7.106  19.491  0.00  0.00    +0.000 A 
ATOM     12  C   UNL     1       1.974   7.993  18.429  0.00  0.00    +0.000 A 
ATOM     13  C   UNL     1       1.429   9.257  18.668  0.00  0.00    +0.000 A 
ATOM     14  C   UNL     1       1.039   9.642  19.960  0.00  0.00    +0.000 A 
ATOM     15  N   UNL     1       0.290  10.828  20.022  0.00  0.00    +0.000 N 
ATOM     16  H   UNL     1       0.199  11.331  19.144  0.00  0.00    +0.000 HD
ENDBRANCH   1  11
BRANCH   1  17
ATOM     17  N   UNL     1       4.258   5.521  18.936  0.00  0.00    +0.000 NA
ATOM     18  H   UNL     1       4.749   4.664  19.174  0.00  0.00    +0.000 HD
BRANCH  17  19
ATOM     19  C   UNL     1       4.875   6.399  17.942  0.00  0.00    +0.000 C 
BRANCH  19  20
ATOM     20  C   UNL     1       6.255   5.966  17.490  0.00  0.00    +0.000 C 
ATOM     21  C   UNL     1       7.325   5.942  18.572  0.00  0.00    +0.000 C 
ATOM     22  C   UNL     1       7.411   6.982  17.513  0.00  0.00    +0.000 C 
BRANCH  20  23
ATOM     23  C   UNL     1       6.337   5.092  16.230  0.00  0.00    +0.000 A 
ATOM     24  C   UNL     1       5.301   4.192  15.914  0.00  0.00    +0.000 A 
ATOM     25  C   UNL     1       5.205   3.599  14.651  0.00  0.00    +0.000 A 
ATOM     26  C   UNL     1       6.143   3.897  13.661  0.00  0.00    +0.000 A 
ATOM     27  C   UNL     1       7.241   4.702  13.995  0.00  0.00    +0.000 A 
ATOM     28  C   UNL     1       7.339   5.275  15.266  0.00  0.00    +0.000 A 
BRANCH  26  29
ATOM     29  C   UNL     1       5.953   3.439  12.237  0.00  0.00    +0.000 C 
ATOM     30  F   UNL     1       4.754   3.806  11.704  0.00  0.00    +0.000 F 
ATOM     31  F   UNL     1       6.899   3.956  11.403  0.00  0.00    +0.000 F 
ATOM     32  F   UNL     1       6.030   2.088  12.097  0.00  0.00    +0.000 F 
ENDBRANCH  26  29
ENDBRANCH  20  23
ENDBRANCH  19  20
ENDBRANCH  17  19
ENDBRANCH   1  17
TORSDOF 6
ENDMDL
MODEL 6
REMARK VINA RESULT:      -8.8      1.006      1.299
REMARK  Name = 
REMARK  6 active torsions:
REMARK  status: ('A' for Active; 'I' for Inactive)
REMARK    1  A    between atoms: C_8  and  S_9
REMARK    2  A    between atoms: S_9  and  N_12
REMARK    3  A    between atoms: N_12  and  C_13
REMARK    4  A    between atoms: C_13  and  C_14
REMARK    5  A    between atoms: C_14  and  C_15
REMARK    6  A    between atoms: C_18  and  C_19
REMARK                            x       y       z     vdW  Elec       q    Type
REMARK                         _______ _______ _______ _____ _____    ______ ____
ROOT
ATOM      1  S   UNL     1       2.615   5.606  19.663  0.00  0.00    +0.000 S 
ATOM      2  O   UNL     1       2.173   5.298  21.000  0.00  0.00    +0.000 OA
ATOM      3  O   UNL     1       2.170   4.837  18.521  0.00  0.00    +0.000 OA
ENDROOT
BRANCH   1  11
ATOM      4  O   UNL     1      -1.282  12.192  17.975  0.00  0.00    +0.000 OA
ATOM      5  C   UNL     1      -0.594  11.590  18.809  0.00  0.00    +0.000 C 
ATOM      6  C   UNL     1      -1.000  11.638  20.262  0.00  0.00    +0.000 C 
ATOM      7  C   UNL     1      -0.700  10.452  21.150  0.00  0.00    +0.000 C 
ATOM      8  C   UNL     1       0.791  10.228  21.269  0.00  0.00    +0.000 C 
ATOM      9  C   UNL     1       1.265   9.401  20.110  0.00  0.00    +0.000 A 
ATOM     10  C   UNL     1       1.760   8.115  20.371  0.00  0.00    +0.000 A 
ATOM     11  C   UNL     1       2.210   7.297  19.327  0.00  0.00    +0.000 A 
ATOM     12  C   UNL     1       2.287   7.805  18.033  0.00  0.00    +0.000 A 
ATOM     13  C   UNL     1       1.792   9.085  17.770  0.00  0.00    +0.000 A 
ATOM     14  C   UNL     1       1.218   9.861  18.789  0.00  0.00    +0.000 A 
ATOM     15  N   UNL     1       0.546  11.012  18.347  0.00  0.00    +0.000 N 
ATOM     16  H   UNL     1       0.635  11.213  17.356  0.00  0.00    +0.000 HD
ENDBRANCH   1  11
BRANCH   1  17
ATOM     17  N   UNL     1       4.292   5.585  19.605  0.00  0.00    +0.000 NA
ATOM     18  H   UNL     1       4.721   5.868  20.482  0.00  0.00    +0.000 HD
BRANCH  17  19
ATOM     19  C   UNL     1       5.069   4.719  18.719  0.00  0.00    +0.000 C 
BRANCH  19  20
ATOM     20  C   UNL     1       5.906   5.457  17.694  0.00  0.00    +0.000 C 
ATOM     21  C   UNL     1       6.861   6.501  18.252  0.00  0.00    +0.000 C 
ATOM     22  C   UNL     1       5.680   6.964  17.478  0.00  0.00    +0.000 C 
BRANCH  20  23
ATOM     23  C   UNL     1       6.146   4.754  16.350  0.00  0.00    +0.000 A 
ATOM     24  C   UNL     1       5.114   4.024  15.728  0.00  0.00    +0.000 A 
ATOM     25  C   UNL     1       5.205   3.618  14.394  0.00  0.00    +0.000 A 
ATOM     26  C   UNL     1       6.333   3.939  13.635  0.00  0.00    +0.000 A 
ATOM     27  C   UNL     1       7.414   4.565  14.271  0.00  0.00    +0.000 A 
ATOM     28  C   UNL     1       7.322   4.951  15.611  0.00  0.00    +0.000 A 
BRANCH  26  29
ATOM     29  C   UNL     1       6.373   3.697  12.148  0.00  0.00    +0.000 C 
ATOM     30  F   UNL     1       6.941   2.508  11.805  0.00  0.00    +0.000 F 
ATOM     31  F   UNL     1       5.125   3.680  11.599  0.00  0.00    +0.000 F 
ATOM     32  F   UNL     1       7.065   4.654  11.471  0.00  0.00    +0.000 F 
ENDBRANCH  26  29
ENDBRANCH  20  23
ENDBRANCH  19  20
ENDBRANCH  17  19
ENDBRANCH   1  17
TORSDOF 6
ENDMDL
MODEL 7
REMARK VINA RESULT:      -8.7      3.294      4.258
REMARK  Name = 
REMARK  6 active torsions:
REMARK  status: ('A' for Active; 'I' for Inactive)
REMARK    1  A    between atoms: C_8  and  S_9
REMARK    2  A    between atoms: S_9  and  N_12
REMARK    3  A    between atoms: N_12  and  C_13
REMARK    4  A    between atoms: C_13  and  C_14
REMARK    5  A    between atoms: C_14  and  C_15
REMARK    6  A    between atoms: C_18  and  C_19
REMARK                            x       y       z     vdW  Elec       q    Type
REMARK                         _______ _______ _______ _____ _____    ______ ____
ROOT
ATOM      1  S   UNL     1       2.676   5.057  19.895  0.00  0.00    +0.000 S 
ATOM      2  O   UNL     1       2.285   4.832  21.265  0.00  0.00    +0.000 OA
ATOM      3  O   UNL     1       2.156   4.248  18.815  0.00  0.00    +0.000 OA
ENDROOT
BRANCH   1  11
ATOM      4  O   UNL     1      -1.053  11.642  17.859  0.00  0.00    +0.000 OA
ATOM      5  C   UNL     1      -0.404  11.057  18.736  0.00  0.00    +0.000 C 
ATOM      6  C   UNL     1      -0.860  11.159  20.172  0.00  0.00    +0.000 C 
ATOM      7  C   UNL     1      -0.611   9.998  21.107  0.00  0.00    +0.000 C 
ATOM      8  C   UNL     1       0.871   9.756  21.286  0.00  0.00    +0.000 C 
ATOM      9  C   UNL     1       1.372   8.885  20.172  0.00  0.00    +0.000 A 
ATOM     10  C   UNL     1       1.837   7.600  20.491  0.00  0.00    +0.000 A 
ATOM     11  C   UNL     1       2.310   6.742  19.491  0.00  0.00    +0.000 A 
ATOM     12  C   UNL     1       2.441   7.206  18.185  0.00  0.00    +0.000 A 
ATOM     13  C   UNL     1       1.976   8.484  17.863  0.00  0.00    +0.000 A 
ATOM     14  C   UNL     1       1.379   9.301  18.836  0.00  0.00    +0.000 A 
ATOM     15  N   UNL     1       0.742  10.448  18.334  0.00  0.00    +0.000 N 
ATOM     16  H   UNL     1       0.869  10.615  17.341  0.00  0.00    +0.000 HD
ENDBRANCH   1  11
BRANCH   1  17
ATOM     17  N   UNL     1       4.347   4.976  19.766  0.00  0.00    +0.000 NA
ATOM     18  H   UNL     1       4.824   5.279  20.611  0.00  0.00    +0.000 HD
BRANCH  17  19
ATOM     19  C   UNL     1       5.055   4.050  18.883  0.00  0.00    +0.000 C 
BRANCH  19  20
ATOM     20  C   UNL     1       5.454   4.638  17.545  0.00  0.00    +0.000 C 
ATOM     21  C   UNL     1       4.456   4.439  16.414  0.00  0.00    +0.000 C 
ATOM     22  C   UNL     1       5.743   3.695  16.362  0.00  0.00    +0.000 C 
BRANCH  20  23
ATOM     23  C   UNL     1       6.461   5.796  17.563  0.00  0.00    +0.000 A 
ATOM     24  C   UNL     1       6.228   6.961  16.805  0.00  0.00    +0.000 A 
ATOM     25  C   UNL     1       6.964   8.131  17.015  0.00  0.00    +0.000 A 
ATOM     26  C   UNL     1       7.954   8.174  17.998  0.00  0.00    +0.000 A 
ATOM     27  C   UNL     1       8.274   6.992  18.681  0.00  0.00    +0.000 A 
ATOM     28  C   UNL     1       7.546   5.821  18.451  0.00  0.00    +0.000 A 
BRANCH  26  29
ATOM     29  C   UNL     1       8.619   9.470  18.387  0.00  0.00    +0.000 C 
ATOM     30  F   UNL     1       9.534   9.905  17.477  0.00  0.00    +0.000 F 
ATOM     31  F   UNL     1       7.720  10.486  18.518  0.00  0.00    +0.000 F 
ATOM     32  F   UNL     1       9.275   9.396  19.576  0.00  0.00    +0.000 F 
ENDBRANCH  26  29
ENDBRANCH  20  23
ENDBRANCH  19  20
ENDBRANCH  17  19
ENDBRANCH   1  17
TORSDOF 6
ENDMDL
MODEL 8
REMARK VINA RESULT:      -8.7      1.099      1.706
REMARK  Name = 
REMARK  6 active torsions:
REMARK  status: ('A' for Active; 'I' for Inactive)
REMARK    1  A    between atoms: C_8  and  S_9
REMARK    2  A    between atoms: S_9  and  N_12
REMARK    3  A    between atoms: N_12  and  C_13
REMARK    4  A    between atoms: C_13  and  C_14
REMARK    5  A    between atoms: C_14  and  C_15
REMARK    6  A    between atoms: C_18  and  C_19
REMARK                            x       y       z     vdW  Elec       q    Type
REMARK                         _______ _______ _______ _____ _____    ______ ____
ROOT
ATOM      1  S   UNL     1       2.690   5.698  19.141  0.00  0.00    +0.000 S 
ATOM      2  O   UNL     1       2.611   4.940  20.365  0.00  0.00    +0.000 OA
ATOM      3  O   UNL     1       2.001   5.276  17.941  0.00  0.00    +0.000 OA
ENDROOT
BRANCH   1  11
ATOM      4  O   UNL     1      -1.760  12.003  20.504  0.00  0.00    +0.000 OA
ATOM      5  C   UNL     1      -0.897  11.237  20.953  0.00  0.00    +0.000 C 
ATOM      6  C   UNL     1      -1.020  10.754  22.378  0.00  0.00    +0.000 C 
ATOM      7  C   UNL     1      -0.501   9.381  22.737  0.00  0.00    +0.000 C 
ATOM      8  C   UNL     1       0.994   9.294  22.526  0.00  0.00    +0.000 C 
ATOM      9  C   UNL     1       1.275   8.958  21.091  0.00  0.00    +0.000 A 
ATOM     10  C   UNL     1       1.871   7.720  20.805  0.00  0.00    +0.000 A 
ATOM     11  C   UNL     1       2.150   7.349  19.484  0.00  0.00    +0.000 A 
ATOM     12  C   UNL     1       1.955   8.264  18.452  0.00  0.00    +0.000 A 
ATOM     13  C   UNL     1       1.360   9.496  18.734  0.00  0.00    +0.000 A 
ATOM     14  C   UNL     1       0.956   9.822  20.038  0.00  0.00    +0.000 A 
ATOM     15  N   UNL     1       0.159  10.974  20.140  0.00  0.00    +0.000 N 
ATOM     16  H   UNL     1       0.048  11.501  19.279  0.00  0.00    +0.000 HD
ENDBRANCH   1  11
BRANCH   1  17
ATOM     17  N   UNL     1       4.298   5.894  18.703  0.00  0.00    +0.000 NA
ATOM     18  H   UNL     1       4.632   6.845  18.839  0.00  0.00    +0.000 HD
BRANCH  17  19
ATOM     19  C   UNL     1       5.289   4.818  18.726  0.00  0.00    +0.000 C 
BRANCH  19  20
ATOM     20  C   UNL     1       6.496   5.056  17.841  0.00  0.00    +0.000 C 
ATOM     21  C   UNL     1       7.849   4.859  18.507  0.00  0.00    +0.000 C 
ATOM     22  C   UNL     1       7.433   6.239  18.144  0.00  0.00    +0.000 C 
BRANCH  20  23
ATOM     23  C   UNL     1       6.292   4.910  16.327  0.00  0.00    +0.000 A 
ATOM     24  C   UNL     1       7.332   5.220  15.429  0.00  0.00    +0.000 A 
ATOM     25  C   UNL     1       7.281   4.834  14.087  0.00  0.00    +0.000 A 
ATOM     26  C   UNL     1       6.186   4.118  13.601  0.00  0.00    +0.000 A 
ATOM     27  C   UNL     1       5.094   3.901  14.452  0.00  0.00    +0.000 A 
ATOM     28  C   UNL     1       5.145   4.307  15.789  0.00  0.00    +0.000 A 
BRANCH  26  29
ATOM     29  C   UNL     1       6.194   3.513  12.220  0.00  0.00    +0.000 C 
ATOM     30  F   UNL     1       6.533   2.194  12.207  0.00  0.00    +0.000 F 
ATOM     31  F   UNL     1       4.970   3.583  11.623  0.00  0.00    +0.000 F 
ATOM     32  F   UNL     1       7.059   4.132  11.372  0.00  0.00    +0.000 F 
ENDBRANCH  26  29
ENDBRANCH  20  23
ENDBRANCH  19  20
ENDBRANCH  17  19
ENDBRANCH   1  17
TORSDOF 6
ENDMDL
MODEL 9
REMARK VINA RESULT:      -8.6      2.955      4.132
REMARK  Name = 
REMARK  6 active torsions:
REMARK  status: ('A' for Active; 'I' for Inactive)
REMARK    1  A    between atoms: C_8  and  S_9
REMARK    2  A    between atoms: S_9  and  N_12
REMARK    3  A    between atoms: N_12  and  C_13
REMARK    4  A    between atoms: C_13  and  C_14
REMARK    5  A    between atoms: C_14  and  C_15
REMARK    6  A    between atoms: C_18  and  C_19
REMARK                            x       y       z     vdW  Elec       q    Type
REMARK                         _______ _______ _______ _____ _____    ______ ____
ROOT
ATOM      1  S   UNL     1       2.890   4.293  18.950  0.00  0.00    +0.000 S 
ATOM      2  O   UNL     1       3.963   3.992  19.866  0.00  0.00    +0.000 OA
ATOM      3  O   UNL     1       1.608   3.628  19.039  0.00  0.00    +0.000 OA
ENDROOT
BRANCH   1  11
ATOM      4  O   UNL     1      -0.672  11.273  18.899  0.00  0.00    +0.000 OA
ATOM      5  C   UNL     1      -0.028  10.452  19.566  0.00  0.00    +0.000 C 
ATOM      6  C   UNL     1      -0.461  10.162  20.983  0.00  0.00    +0.000 C 
ATOM      7  C   UNL     1      -0.233   8.782  21.554  0.00  0.00    +0.000 C 
ATOM      8  C   UNL     1       1.244   8.463  21.627  0.00  0.00    +0.000 C 
ATOM      9  C   UNL     1       1.703   7.924  20.305  0.00  0.00    +0.000 A 
ATOM     10  C   UNL     1       2.135   6.591  20.246  0.00  0.00    +0.000 A 
ATOM     11  C   UNL     1       2.568   6.032  19.037  0.00  0.00    +0.000 A 
ATOM     12  C   UNL     1       2.694   6.837  17.908  0.00  0.00    +0.000 A 
ATOM     13  C   UNL     1       2.263   8.165  17.963  0.00  0.00    +0.000 A 
ATOM     14  C   UNL     1       1.704   8.695  19.137  0.00  0.00    +0.000 A 
ATOM     15  N   UNL     1       1.094   9.951  18.986  0.00  0.00    +0.000 N 
ATOM     16  H   UNL     1       1.212  10.383  18.075  0.00  0.00    +0.000 HD
ENDBRANCH   1  11
BRANCH   1  17
ATOM     17  N   UNL     1       3.416   4.069  17.373  0.00  0.00    +0.000 NA
ATOM     18  H   UNL     1       2.967   4.699  16.713  0.00  0.00    +0.000 HD
BRANCH  17  19
ATOM     19  C   UNL     1       4.733   3.543  17.017  0.00  0.00    +0.000 C 
BRANCH  19  20
ATOM     20  C   UNL     1       5.594   4.496  16.211  0.00  0.00    +0.000 C 
ATOM     21  C   UNL     1       5.373   4.470  14.706  0.00  0.00    +0.000 C 
ATOM     22  C   UNL     1       6.648   3.927  15.245  0.00  0.00    +0.000 C 
BRANCH  20  23
ATOM     23  C   UNL     1       6.148   5.726  16.943  0.00  0.00    +0.000 A 
ATOM     24  C   UNL     1       7.191   5.594  17.880  0.00  0.00    +0.000 A 
ATOM     25  C   UNL     1       7.903   6.704  18.345  0.00  0.00    +0.000 A 
ATOM     26  C   UNL     1       7.595   7.984  17.880  0.00  0.00    +0.000 A 
ATOM     27  C   UNL     1       6.488   8.143  17.036  0.00  0.00    +0.000 A 
ATOM     28  C   UNL     1       5.769   7.030  16.590  0.00  0.00    +0.000 A 
BRANCH  26  29
ATOM     29  C   UNL     1       8.471   9.168  18.202  0.00  0.00    +0.000 C 
ATOM     30  F   UNL     1       9.377   9.454  17.227  0.00  0.00    +0.000 F 
ATOM     31  F   UNL     1       7.746  10.309  18.376  0.00  0.00    +0.000 F 
ATOM     32  F   UNL     1       9.189   9.004  19.347  0.00  0.00    +0.000 F 
ENDBRANCH  26  29
ENDBRANCH  20  23
ENDBRANCH  19  20
ENDBRANCH  17  19
ENDBRANCH   1  17
TORSDOF 6
ENDMDL
