MODEL 1
REMARK VINA RESULT:      -8.3      0.000      0.000
REMARK  Name = 
REMARK  6 active torsions:
REMARK  status: ('A' for Active; 'I' for Inactive)
REMARK    1  A    between atoms: C_1  and  N_2
REMARK    2  A    between atoms: C_6  and  C_7
REMARK    3  A    between atoms: C_7  and  C_8
REMARK    4  A    between atoms: C_8  and  C_10
REMARK    5  A    between atoms: C_14  and  N_15
REMARK    6  A    between atoms: C_21  and  C_22
REMARK                            x       y       z     vdW  Elec       q    Type
REMARK                         _______ _______ _______ _____ _____    ______ ____
ROOT
ATOM      1  C   UNL     1       2.072   6.970  19.974  0.00  0.00    +0.000 A 
ATOM      2  C   UNL     1       1.345   6.136  20.844  0.00  0.00    +0.000 A 
ATOM      3  C   UNL     1       1.585   4.775  20.847  0.00  0.00    +0.000 A 
ATOM      4  C   UNL     1       2.534   4.250  19.970  0.00  0.00    +0.000 A 
ATOM      5  C   UNL     1       3.270   5.046  19.067  0.00  0.00    +0.000 A 
ATOM      6  C   UNL     1       3.047   6.421  19.117  0.00  0.00    +0.000 A 
ENDROOT
BRANCH   5   7
ATOM      7  N   UNL     1       4.074   4.465  18.122  0.00  0.00    +0.000 N 
ATOM      8  C   UNL     1       3.792   3.958  16.756  0.00  0.00    +0.000 C 
ATOM      9  C   UNL     1       5.179   4.025  16.125  0.00  0.00    +0.000 A 
ATOM     10  C   UNL     1       5.592   3.926  14.809  0.00  0.00    +0.000 A 
ATOM     11  C   UNL     1       6.834   4.488  14.468  0.00  0.00    +0.000 A 
ATOM     12  C   UNL     1       7.506   5.311  15.385  0.00  0.00    +0.000 A 
ATOM     13  C   UNL     1       7.035   5.422  16.691  0.00  0.00    +0.000 A 
ATOM     14  C   UNL     1       6.052   4.529  17.082  0.00  0.00    +0.000 A 
ATOM     15  C   UNL     1       5.478   4.296  18.433  0.00  0.00    +0.000 C 
BRANCH  13  16
ATOM     16  C   UNL     1       7.230   6.669  17.515  0.00  0.00    +0.000 C 
ATOM     17  F   UNL     1       8.012   7.604  16.913  0.00  0.00    +0.000 F 
ATOM     18  F   UNL     1       6.040   7.305  17.747  0.00  0.00    +0.000 F 
ATOM     19  F   UNL     1       7.767   6.440  18.741  0.00  0.00    +0.000 F 
ENDBRANCH  13  16
ENDBRANCH   5   7
BRANCH   1  20
ATOM     20  C   UNL     1       1.784   8.459  19.969  0.00  0.00    +0.000 C 
ATOM     21  F   UNL     1       0.704   8.747  20.770  0.00  0.00    +0.000 F 
BRANCH  20  22
ATOM     22  C   UNL     1       1.465   8.999  18.579  0.00  0.00    +0.000 C 
BRANCH  22  28
ATOM     23  C   UNL     1      -1.429  10.238  18.576  0.00  0.00    +0.000 C 
ATOM     24  N   UNL     1      -0.176  10.934  18.583  0.00  0.00    +0.000 N 
ATOM     25  C   UNL     1      -0.042  12.298  18.655  0.00  0.00    +0.000 A 
ATOM     26  N   UNL     1       1.229  12.617  18.612  0.00  0.00    +0.000 NA
ATOM     27  N   UNL     1       1.948  11.451  18.530  0.00  0.00    +0.000 NA
ATOM     28  C   UNL     1       1.100  10.440  18.549  0.00  0.00    +0.000 A 
ENDBRANCH  22  28
ENDBRANCH  20  22
ENDBRANCH   1  20
TORSDOF 5
ENDMDL
MODEL 2
REMARK VINA RESULT:      -8.3      0.579      1.140
REMARK  Name = 
REMARK  6 active torsions:
REMARK  status: ('A' for Active; 'I' for Inactive)
REMARK    1  A    between atoms: C_1  and  N_2
REMARK    2  A    between atoms: C_6  and  C_7
REMARK    3  A    between atoms: C_7  and  C_8
REMARK    4  A    between atoms: C_8  and  C_10
REMARK    5  A    between atoms: C_14  and  N_15
REMARK    6  A    between atoms: C_21  and  C_22
REMARK                            x       y       z     vdW  Elec       q    Type
REMARK                         _______ _______ _______ _____ _____    ______ ____
ROOT
ATOM      1  C   UNL     1       2.045   7.076  19.931  0.00  0.00    +0.000 A 
ATOM      2  C   UNL     1       1.317   6.259  20.817  0.00  0.00    +0.000 A 
ATOM      3  C   UNL     1       1.554   4.898  20.845  0.00  0.00    +0.000 A 
ATOM      4  C   UNL     1       2.502   4.355  19.978  0.00  0.00    +0.000 A 
ATOM      5  C   UNL     1       3.239   5.132  19.060  0.00  0.00    +0.000 A 
ATOM      6  C   UNL     1       3.019   6.508  19.085  0.00  0.00    +0.000 A 
ENDROOT
BRANCH   5   7
ATOM      7  N   UNL     1       4.041   4.531  18.127  0.00  0.00    +0.000 N 
ATOM      8  C   UNL     1       3.761   4.015  16.764  0.00  0.00    +0.000 C 
ATOM      9  C   UNL     1       5.154   4.058  16.142  0.00  0.00    +0.000 A 
ATOM     10  C   UNL     1       5.574   3.940  14.829  0.00  0.00    +0.000 A 
ATOM     11  C   UNL     1       6.825   4.483  14.490  0.00  0.00    +0.000 A 
ATOM     12  C   UNL     1       7.501   5.306  15.405  0.00  0.00    +0.000 A 
ATOM     13  C   UNL     1       7.024   5.436  16.705  0.00  0.00    +0.000 A 
ATOM     14  C   UNL     1       6.027   4.559  17.099  0.00  0.00    +0.000 A 
ATOM     15  C   UNL     1       5.441   4.348  18.449  0.00  0.00    +0.000 C 
BRANCH  13  16
ATOM     16  C   UNL     1       7.229   6.689  17.519  0.00  0.00    +0.000 C 
ATOM     17  F   UNL     1       8.064   7.588  16.933  0.00  0.00    +0.000 F 
ATOM     18  F   UNL     1       6.053   7.366  17.698  0.00  0.00    +0.000 F 
ATOM     19  F   UNL     1       7.713   6.461  18.767  0.00  0.00    +0.000 F 
ENDBRANCH  13  16
ENDBRANCH   5   7
BRANCH   1  20
ATOM     20  C   UNL     1       1.760   8.565  19.898  0.00  0.00    +0.000 C 
ATOM     21  F   UNL     1       0.668   8.867  20.676  0.00  0.00    +0.000 F 
BRANCH  20  22
ATOM     22  C   UNL     1       1.465   9.082  18.494  0.00  0.00    +0.000 C 
BRANCH  22  28
ATOM     23  C   UNL     1       1.697  12.133  19.239  0.00  0.00    +0.000 C 
ATOM     24  N   UNL     1       0.550  11.437  18.735  0.00  0.00    +0.000 N 
ATOM     25  C   UNL     1      -0.650  12.030  18.431  0.00  0.00    +0.000 A 
ATOM     26  N   UNL     1      -1.498  11.118  18.022  0.00  0.00    +0.000 NA
ATOM     27  N   UNL     1      -0.849   9.909  18.038  0.00  0.00    +0.000 NA
ATOM     28  C   UNL     1       0.393  10.111  18.433  0.00  0.00    +0.000 A 
ENDBRANCH  22  28
ENDBRANCH  20  22
ENDBRANCH   1  20
TORSDOF 5
ENDMDL
MODEL 3
REMARK VINA RESULT:      -8.2      3.530      4.985
REMARK  Name = 
REMARK  6 active torsions:
REMARK  status: ('A' for Active; 'I' for Inactive)
REMARK    1  A    between atoms: C_1  and  N_2
REMARK    2  A    between atoms: C_6  and  C_7
REMARK    3  A    between atoms: C_7  and  C_8
REMARK    4  A    between atoms: C_8  and  C_10
REMARK    5  A    between atoms: C_14  and  N_15
REMARK    6  A    between atoms: C_21  and  C_22
REMARK                            x       y       z     vdW  Elec       q    Type
REMARK                         _______ _______ _______ _____ _____    ______ ____
ROOT
ATOM      1  C   UNL     1       1.240   9.303  20.223  0.00  0.00    +0.000 A 
ATOM      2  C   UNL     1       1.140  10.216  19.157  0.00  0.00    +0.000 A 
ATOM      3  C   UNL     1       1.545   9.837  17.891  0.00  0.00    +0.000 A 
ATOM      4  C   UNL     1       2.066   8.557  17.698  0.00  0.00    +0.000 A 
ATOM      5  C   UNL     1       2.205   7.618  18.742  0.00  0.00    +0.000 A 
ATOM      6  C   UNL     1       1.743   8.005  19.999  0.00  0.00    +0.000 A 
ENDROOT
BRANCH   5   7
ATOM      7  N   UNL     1       2.863   6.436  18.532  0.00  0.00    +0.000 N 
ATOM      8  C   UNL     1       4.290   6.055  18.684  0.00  0.00    +0.000 C 
ATOM      9  C   UNL     1       4.174   4.545  18.861  0.00  0.00    +0.000 A 
ATOM     10  C   UNL     1       5.091   3.599  19.284  0.00  0.00    +0.000 A 
ATOM     11  C   UNL     1       4.595   2.390  19.800  0.00  0.00    +0.000 A 
ATOM     12  C   UNL     1       3.225   2.258  20.080  0.00  0.00    +0.000 A 
ATOM     13  C   UNL     1       2.337   3.252  19.680  0.00  0.00    +0.000 A 
ATOM     14  C   UNL     1       2.823   4.218  18.816  0.00  0.00    +0.000 A 
ATOM     15  C   UNL     1       2.088   5.292  18.098  0.00  0.00    +0.000 C 
BRANCH  13  16
ATOM     16  C   UNL     1       1.065   3.548  20.433  0.00  0.00    +0.000 C 
ATOM     17  F   UNL     1       0.929   2.828  21.578  0.00  0.00    +0.000 F 
ATOM     18  F   UNL     1       1.015   4.856  20.834  0.00  0.00    +0.000 F 
ATOM     19  F   UNL     1      -0.064   3.346  19.706  0.00  0.00    +0.000 F 
ENDBRANCH  13  16
ENDBRANCH   5   7
BRANCH   1  20
ATOM     20  C   UNL     1       0.809   9.740  21.610  0.00  0.00    +0.000 C 
ATOM     21  F   UNL     1       0.700   8.656  22.449  0.00  0.00    +0.000 F 
BRANCH  20  22
ATOM     22  C   UNL     1      -0.542  10.448  21.617  0.00  0.00    +0.000 C 
BRANCH  22  28
ATOM     23  C   UNL     1      -2.661  12.023  23.332  0.00  0.00    +0.000 C 
ATOM     24  N   UNL     1      -1.416  12.508  22.813  0.00  0.00    +0.000 N 
ATOM     25  C   UNL     1      -0.911  13.763  23.045  0.00  0.00    +0.000 A 
ATOM     26  N   UNL     1       0.226  13.902  22.408  0.00  0.00    +0.000 NA
ATOM     27  N   UNL     1       0.488  12.721  21.761  0.00  0.00    +0.000 NA
ATOM     28  C   UNL     1      -0.485  11.873  22.036  0.00  0.00    +0.000 A 
ENDBRANCH  22  28
ENDBRANCH  20  22
ENDBRANCH   1  20
TORSDOF 5
ENDMDL
MODEL 4
REMARK VINA RESULT:      -8.1      1.747      2.182
REMARK  Name = 
REMARK  6 active torsions:
REMARK  status: ('A' for Active; 'I' for Inactive)
REMARK    1  A    between atoms: C_1  and  N_2
REMARK    2  A    between atoms: C_6  and  C_7
REMARK    3  A    between atoms: C_7  and  C_8
REMARK    4  A    between atoms: C_8  and  C_10
REMARK    5  A    between atoms: C_14  and  N_15
REMARK    6  A    between atoms: C_21  and  C_22
REMARK                            x       y       z     vdW  Elec       q    Type
REMARK                         _______ _______ _______ _____ _____    ______ ____
ROOT
ATOM      1  C   UNL     1       2.015   6.607  20.125  0.00  0.00    +0.000 A 
ATOM      2  C   UNL     1       1.478   5.700  21.058  0.00  0.00    +0.000 A 
ATOM      3  C   UNL     1       1.896   4.382  21.049  0.00  0.00    +0.000 A 
ATOM      4  C   UNL     1       2.831   3.972  20.099  0.00  0.00    +0.000 A 
ATOM      5  C   UNL     1       3.379   4.842  19.132  0.00  0.00    +0.000 A 
ATOM      6  C   UNL     1       2.980   6.176  19.193  0.00  0.00    +0.000 A 
ENDROOT
BRANCH   5   7
ATOM      7  N   UNL     1       4.172   4.355  18.128  0.00  0.00    +0.000 N 
ATOM      8  C   UNL     1       3.864   3.924  16.741  0.00  0.00    +0.000 C 
ATOM      9  C   UNL     1       5.225   4.088  16.073  0.00  0.00    +0.000 A 
ATOM     10  C   UNL     1       5.597   4.089  14.740  0.00  0.00    +0.000 A 
ATOM     11  C   UNL     1       6.803   4.723  14.397  0.00  0.00    +0.000 A 
ATOM     12  C   UNL     1       7.472   5.514  15.344  0.00  0.00    +0.000 A 
ATOM     13  C   UNL     1       7.043   5.523  16.668  0.00  0.00    +0.000 A 
ATOM     14  C   UNL     1       6.110   4.567  17.032  0.00  0.00    +0.000 A 
ATOM     15  C   UNL     1       5.592   4.226  18.383  0.00  0.00    +0.000 C 
BRANCH  13  16
ATOM     16  C   UNL     1       7.216   6.723  17.564  0.00  0.00    +0.000 C 
ATOM     17  F   UNL     1       7.839   6.440  18.739  0.00  0.00    +0.000 F 
ATOM     18  F   UNL     1       7.998   7.679  16.974  0.00  0.00    +0.000 F 
ATOM     19  F   UNL     1       6.051   7.347  17.879  0.00  0.00    +0.000 F 
ENDBRANCH  13  16
ENDBRANCH   5   7
BRANCH   1  20
ATOM     20  C   UNL     1       1.533   8.045  20.135  0.00  0.00    +0.000 C 
ATOM     21  F   UNL     1       2.108   8.757  19.109  0.00  0.00    +0.000 F 
BRANCH  20  22
ATOM     22  C   UNL     1       1.870   8.776  21.430  0.00  0.00    +0.000 C 
BRANCH  22  28
ATOM     23  C   UNL     1       0.974  11.621  20.422  0.00  0.00    +0.000 C 
ATOM     24  N   UNL     1       0.390  10.837  21.471  0.00  0.00    +0.000 N 
ATOM     25  C   UNL     1      -0.728  11.195  22.181  0.00  0.00    +0.000 A 
ATOM     26  N   UNL     1      -0.986  10.280  23.084  0.00  0.00    +0.000 NA
ATOM     27  N   UNL     1      -0.038   9.295  22.960  0.00  0.00    +0.000 NA
ATOM     28  C   UNL     1       0.766   9.617  21.965  0.00  0.00    +0.000 A 
ENDBRANCH  22  28
ENDBRANCH  20  22
ENDBRANCH   1  20
TORSDOF 5
ENDMDL
MODEL 5
REMARK VINA RESULT:      -8.0      1.517      1.627
REMARK  Name = 
REMARK  6 active torsions:
REMARK  status: ('A' for Active; 'I' for Inactive)
REMARK    1  A    between atoms: C_1  and  N_2
REMARK    2  A    between atoms: C_6  and  C_7
REMARK    3  A    between atoms: C_7  and  C_8
REMARK    4  A    between atoms: C_8  and  C_10
REMARK    5  A    between atoms: C_14  and  N_15
REMARK    6  A    between atoms: C_21  and  C_22
REMARK                            x       y       z     vdW  Elec       q    Type
REMARK                         _______ _______ _______ _____ _____    ______ ____
ROOT
ATOM      1  C   UNL     1       2.028   6.782  19.948  0.00  0.00    +0.000 A 
ATOM      2  C   UNL     1       1.486   5.950  20.946  0.00  0.00    +0.000 A 
ATOM      3  C   UNL     1       1.904   4.637  21.044  0.00  0.00    +0.000 A 
ATOM      4  C   UNL     1       2.846   4.153  20.136  0.00  0.00    +0.000 A 
ATOM      5  C   UNL     1       3.400   4.945  19.108  0.00  0.00    +0.000 A 
ATOM      6  C   UNL     1       3.001   6.280  19.060  0.00  0.00    +0.000 A 
ENDROOT
BRANCH   5   7
ATOM      7  N   UNL     1       4.201   4.382  18.150  0.00  0.00    +0.000 N 
ATOM      8  C   UNL     1       3.903   3.847  16.798  0.00  0.00    +0.000 C 
ATOM      9  C   UNL     1       5.271   3.957  16.131  0.00  0.00    +0.000 A 
ATOM     10  C   UNL     1       5.654   3.856  14.805  0.00  0.00    +0.000 A 
ATOM     11  C   UNL     1       6.865   4.459  14.425  0.00  0.00    +0.000 A 
ATOM     12  C   UNL     1       7.529   5.318  15.316  0.00  0.00    +0.000 A 
ATOM     13  C   UNL     1       7.087   5.429  16.631  0.00  0.00    +0.000 A 
ATOM     14  C   UNL     1       6.149   4.505  17.058  0.00  0.00    +0.000 A 
ATOM     15  C   UNL     1       5.618   4.269  18.427  0.00  0.00    +0.000 C 
BRANCH  13  16
ATOM     16  C   UNL     1       7.256   6.693  17.435  0.00  0.00    +0.000 C 
ATOM     17  F   UNL     1       8.045   7.622  16.831  0.00  0.00    +0.000 F 
ATOM     18  F   UNL     1       6.057   7.325  17.629  0.00  0.00    +0.000 F 
ATOM     19  F   UNL     1       7.768   6.491  18.676  0.00  0.00    +0.000 F 
ENDBRANCH  13  16
ENDBRANCH   5   7
BRANCH   1  20
ATOM     20  C   UNL     1       1.546   8.216  19.842  0.00  0.00    +0.000 C 
ATOM     21  F   UNL     1       2.369   8.945  19.017  0.00  0.00    +0.000 F 
BRANCH  20  22
ATOM     22  C   UNL     1       1.512   8.933  21.187  0.00  0.00    +0.000 C 
BRANCH  22  28
ATOM     23  C   UNL     1      -0.697   9.933  23.197  0.00  0.00    +0.000 C 
ATOM     24  N   UNL     1      -0.134  10.644  22.086  0.00  0.00    +0.000 N 
ATOM     25  C   UNL     1      -0.439  11.939  21.754  0.00  0.00    +0.000 A 
ATOM     26  N   UNL     1       0.221  12.283  20.674  0.00  0.00    +0.000 NA
ATOM     27  N   UNL     1       0.987  11.209  20.296  0.00  0.00    +0.000 NA
ATOM     28  C   UNL     1       0.798  10.237  21.169  0.00  0.00    +0.000 A 
ENDBRANCH  22  28
ENDBRANCH  20  22
ENDBRANCH   1  20
TORSDOF 5
ENDMDL
MODEL 6
REMARK VINA RESULT:      -8.0      1.377      1.955
REMARK  Name = 
REMARK  6 active torsions:
REMARK  status: ('A' for Active; 'I' for Inactive)
REMARK    1  A    between atoms: C_1  and  N_2
REMARK    2  A    between atoms: C_6  and  C_7
REMARK    3  A    between atoms: C_7  and  C_8
REMARK    4  A    between atoms: C_8  and  C_10
REMARK    5  A    between atoms: C_14  and  N_15
REMARK    6  A    between atoms: C_21  and  C_22
REMARK                            x       y       z     vdW  Elec       q    Type
REMARK                         _______ _______ _______ _____ _____    ______ ____
ROOT
ATOM      1  C   UNL     1       1.650   8.515  19.106  0.00  0.00    +0.000 A 
ATOM      2  C   UNL     1       1.145   8.202  20.382  0.00  0.00    +0.000 A 
ATOM      3  C   UNL     1       1.540   7.035  21.007  0.00  0.00    +0.000 A 
ATOM      4  C   UNL     1       2.421   6.176  20.350  0.00  0.00    +0.000 A 
ATOM      5  C   UNL     1       2.935   6.439  19.062  0.00  0.00    +0.000 A 
ATOM      6  C   UNL     1       2.562   7.646  18.473  0.00  0.00    +0.000 A 
ENDROOT
BRANCH   5   7
ATOM      7  N   UNL     1       3.671   5.493  18.399  0.00  0.00    +0.000 N 
ATOM      8  C   UNL     1       3.374   4.666  17.203  0.00  0.00    +0.000 C 
ATOM      9  C   UNL     1       4.783   4.330  16.722  0.00  0.00    +0.000 A 
ATOM     10  C   UNL     1       5.240   3.793  15.532  0.00  0.00    +0.000 A 
ATOM     11  C   UNL     1       6.579   4.032  15.178  0.00  0.00    +0.000 A 
ATOM     12  C   UNL     1       7.338   4.967  15.898  0.00  0.00    +0.000 A 
ATOM     13  C   UNL     1       6.827   5.521  17.068  0.00  0.00    +0.000 A 
ATOM     14  C   UNL     1       5.680   4.943  17.588  0.00  0.00    +0.000 A 
ATOM     15  C   UNL     1       5.003   5.202  18.886  0.00  0.00    +0.000 C 
BRANCH  13  16
ATOM     16  C   UNL     1       7.198   6.906  17.535  0.00  0.00    +0.000 C 
ATOM     17  F   UNL     1       7.807   6.926  18.751  0.00  0.00    +0.000 F 
ATOM     18  F   UNL     1       8.093   7.496  16.684  0.00  0.00    +0.000 F 
ATOM     19  F   UNL     1       6.146   7.762  17.610  0.00  0.00    +0.000 F 
ENDBRANCH  13  16
ENDBRANCH   5   7
BRANCH   1  20
ATOM     20  C   UNL     1       1.193   9.791  18.425  0.00  0.00    +0.000 C 
ATOM     21  F   UNL     1       2.244  10.665  18.276  0.00  0.00    +0.000 F 
BRANCH  20  22
ATOM     22  C   UNL     1       0.108  10.525  19.205  0.00  0.00    +0.000 C 
BRANCH  22  28
ATOM     23  C   UNL     1      -0.278  13.515  18.296  0.00  0.00    +0.000 C 
ATOM     24  N   UNL     1       0.358  13.035  19.487  0.00  0.00    +0.000 N 
ATOM     25  C   UNL     1       0.859  13.838  20.481  0.00  0.00    +0.000 A 
ATOM     26  N   UNL     1       1.399  13.094  21.415  0.00  0.00    +0.000 NA
ATOM     27  N   UNL     1       1.238  11.782  21.048  0.00  0.00    +0.000 NA
ATOM     28  C   UNL     1       0.579  11.750  19.905  0.00  0.00    +0.000 A 
ENDBRANCH  22  28
ENDBRANCH  20  22
ENDBRANCH   1  20
TORSDOF 5
ENDMDL
MODEL 7
REMARK VINA RESULT:      -7.9      3.262      8.979
REMARK  Name = 
REMARK  6 active torsions:
REMARK  status: ('A' for Active; 'I' for Inactive)
REMARK    1  A    between atoms: C_1  and  N_2
REMARK    2  A    between atoms: C_6  and  C_7
REMARK    3  A    between atoms: C_7  and  C_8
REMARK    4  A    between atoms: C_8  and  C_10
REMARK    5  A    between atoms: C_14  and  N_15
REMARK    6  A    between atoms: C_21  and  C_22
REMARK                            x       y       z     vdW  Elec       q    Type
REMARK                         _______ _______ _______ _____ _____    ______ ____
ROOT
ATOM      1  C   UNL     1       2.236   7.334  19.624  0.00  0.00    +0.000 A 
ATOM      2  C   UNL     1       2.518   7.639  18.279  0.00  0.00    +0.000 A 
ATOM      3  C   UNL     1       2.031   8.809  17.727  0.00  0.00    +0.000 A 
ATOM      4  C   UNL     1       1.252   9.659  18.511  0.00  0.00    +0.000 A 
ATOM      5  C   UNL     1       0.928   9.382  19.856  0.00  0.00    +0.000 A 
ATOM      6  C   UNL     1       1.471   8.222  20.406  0.00  0.00    +0.000 A 
ENDROOT
BRANCH   5   7
ATOM      7  N   UNL     1       0.034  10.169  20.533  0.00  0.00    +0.000 N 
ATOM      8  C   UNL     1      -0.053  10.569  21.960  0.00  0.00    +0.000 C 
ATOM      9  C   UNL     1      -0.875  11.850  21.856  0.00  0.00    +0.000 A 
ATOM     10  C   UNL     1      -1.123  12.855  22.773  0.00  0.00    +0.000 A 
ATOM     11  C   UNL     1      -1.501  14.114  22.278  0.00  0.00    +0.000 A 
ATOM     12  C   UNL     1      -1.404  14.385  20.904  0.00  0.00    +0.000 A 
ATOM     13  C   UNL     1      -1.108  13.356  20.014  0.00  0.00    +0.000 A 
ATOM     14  C   UNL     1      -1.152  12.065  20.511  0.00  0.00    +0.000 A 
ATOM     15  C   UNL     1      -1.046  10.773  19.782  0.00  0.00    +0.000 C 
BRANCH  13  16
ATOM     16  C   UNL     1      -0.370  13.595  18.721  0.00  0.00    +0.000 C 
ATOM     17  F   UNL     1      -0.230  14.911  18.409  0.00  0.00    +0.000 F 
ATOM     18  F   UNL     1       0.909  13.110  18.779  0.00  0.00    +0.000 F 
ATOM     19  F   UNL     1      -0.940  12.995  17.644  0.00  0.00    +0.000 F 
ENDBRANCH  13  16
ENDBRANCH   5   7
BRANCH   1  20
ATOM     20  C   UNL     1       2.761   6.037  20.211  0.00  0.00    +0.000 C 
ATOM     21  F   UNL     1       3.941   5.674  19.607  0.00  0.00    +0.000 F 
BRANCH  20  22
ATOM     22  C   UNL     1       1.793   4.872  20.038  0.00  0.00    +0.000 C 
BRANCH  22  28
ATOM     23  C   UNL     1       3.763   2.418  20.155  0.00  0.00    +0.000 C 
ATOM     24  N   UNL     1       2.983   2.865  19.039  0.00  0.00    +0.000 N 
ATOM     25  C   UNL     1       2.928   2.231  17.823  0.00  0.00    +0.000 A 
ATOM     26  N   UNL     1       2.150   2.905  17.012  0.00  0.00    +0.000 NA
ATOM     27  N   UNL     1       1.669   3.990  17.702  0.00  0.00    +0.000 NA
ATOM     28  C   UNL     1       2.145   3.942  18.932  0.00  0.00    +0.000 A 
ENDBRANCH  22  28
ENDBRANCH  20  22
ENDBRANCH   1  20
TORSDOF 5
ENDMDL
MODEL 8
REMARK VINA RESULT:      -7.9      1.612      1.938
REMARK  Name = 
REMARK  6 active torsions:
REMARK  status: ('A' for Active; 'I' for Inactive)
REMARK    1  A    between atoms: C_1  and  N_2
REMARK    2  A    between atoms: C_6  and  C_7
REMARK    3  A    between atoms: C_7  and  C_8
REMARK    4  A    between atoms: C_8  and  C_10
REMARK    5  A    between atoms: C_14  and  N_15
REMARK    6  A    between atoms: C_21  and  C_22
REMARK                            x       y       z     vdW  Elec       q    Type
REMARK                         _______ _______ _______ _____ _____    ______ ____
ROOT
ATOM      1  C   UNL     1       2.035   6.365  20.225  0.00  0.00    +0.000 A 
ATOM      2  C   UNL     1       1.447   5.408  21.074  0.00  0.00    +0.000 A 
ATOM      3  C   UNL     1       1.843   4.086  20.994  0.00  0.00    +0.000 A 
ATOM      4  C   UNL     1       2.810   3.722  20.057  0.00  0.00    +0.000 A 
ATOM      5  C   UNL     1       3.411   4.643  19.173  0.00  0.00    +0.000 A 
ATOM      6  C   UNL     1       3.031   5.977  19.306  0.00  0.00    +0.000 A 
ENDROOT
BRANCH   5   7
ATOM      7  N   UNL     1       4.237   4.209  18.171  0.00  0.00    +0.000 N 
ATOM      8  C   UNL     1       3.959   3.728  16.795  0.00  0.00    +0.000 C 
ATOM      9  C   UNL     1       5.297   3.996  16.114  0.00  0.00    +0.000 A 
ATOM     10  C   UNL     1       5.659   4.005  14.779  0.00  0.00    +0.000 A 
ATOM     11  C   UNL     1       6.804   4.734  14.415  0.00  0.00    +0.000 A 
ATOM     12  C   UNL     1       7.409   5.596  15.344  0.00  0.00    +0.000 A 
ATOM     13  C   UNL     1       6.988   5.592  16.670  0.00  0.00    +0.000 A 
ATOM     14  C   UNL     1       6.143   4.566  17.058  0.00  0.00    +0.000 A 
ATOM     15  C   UNL     1       5.664   4.206  18.418  0.00  0.00    +0.000 C 
BRANCH  13  16
ATOM     16  C   UNL     1       7.062   6.818  17.544  0.00  0.00    +0.000 C 
ATOM     17  F   UNL     1       5.865   7.440  17.715  0.00  0.00    +0.000 F 
ATOM     18  F   UNL     1       7.477   6.504  18.811  0.00  0.00    +0.000 F 
ATOM     19  F   UNL     1       7.933   7.760  17.098  0.00  0.00    +0.000 F 
ENDBRANCH  13  16
ENDBRANCH   5   7
BRANCH   1  20
ATOM     20  C   UNL     1       1.576   7.807  20.311  0.00  0.00    +0.000 C 
ATOM     21  F   UNL     1       2.524   8.582  20.936  0.00  0.00    +0.000 F 
BRANCH  20  22
ATOM     22  C   UNL     1       0.277   7.972  21.093  0.00  0.00    +0.000 C 
BRANCH  22  28
ATOM     23  C   UNL     1      -0.837  10.425  19.463  0.00  0.00    +0.000 C 
ATOM     24  N   UNL     1      -0.487  10.380  20.852  0.00  0.00    +0.000 N 
ATOM     25  C   UNL     1      -0.648  11.423  21.730  0.00  0.00    +0.000 A 
ATOM     26  N   UNL     1      -0.206  11.071  22.913  0.00  0.00    +0.000 NA
ATOM     27  N   UNL     1       0.237   9.775  22.824  0.00  0.00    +0.000 NA
ATOM     28  C   UNL     1       0.032   9.352  21.591  0.00  0.00    +0.000 A 
ENDBRANCH  22  28
ENDBRANCH  20  22
ENDBRANCH   1  20
TORSDOF 5
ENDMDL
MODEL 9
REMARK VINA RESULT:      -7.8      1.132      1.375
REMARK  Name = 
REMARK  6 active torsions:
REMARK  status: ('A' for Active; 'I' for Inactive)
REMARK    1  A    between atoms: C_1  and  N_2
REMARK    2  A    between atoms: C_6  and  C_7
REMARK    3  A    between atoms: C_7  and  C_8
REMARK    4  A    between atoms: C_8  and  C_10
REMARK    5  A    between atoms: C_14  and  N_15
REMARK    6  A    between atoms: C_21  and  C_22
REMARK                            x       y       z     vdW  Elec       q    Type
REMARK                         _______ _______ _______ _____ _____    ______ ____
ROOT
ATOM      1  C   UNL     1       1.915   7.042  19.748  0.00  0.00    +0.000 A 
ATOM      2  C   UNL     1       1.446   6.290  20.841  0.00  0.00    +0.000 A 
ATOM      3  C   UNL     1       1.932   5.014  21.053  0.00  0.00    +0.000 A 
ATOM      4  C   UNL     1       2.870   4.487  20.165  0.00  0.00    +0.000 A 
ATOM      5  C   UNL     1       3.352   5.197  19.046  0.00  0.00    +0.000 A 
ATOM      6  C   UNL     1       2.885   6.500  18.881  0.00  0.00    +0.000 A 
ENDROOT
BRANCH   5   7
ATOM      7  N   UNL     1       4.152   4.580  18.121  0.00  0.00    +0.000 N 
ATOM      8  C   UNL     1       3.863   4.018  16.778  0.00  0.00    +0.000 C 
ATOM      9  C   UNL     1       5.247   4.060  16.138  0.00  0.00    +0.000 A 
ATOM     10  C   UNL     1       5.653   3.908  14.824  0.00  0.00    +0.000 A 
ATOM     11  C   UNL     1       6.891   4.457  14.453  0.00  0.00    +0.000 A 
ATOM     12  C   UNL     1       7.568   5.317  15.333  0.00  0.00    +0.000 A 
ATOM     13  C   UNL     1       7.104   5.481  16.635  0.00  0.00    +0.000 A 
ATOM     14  C   UNL     1       6.125   4.603  17.068  0.00  0.00    +0.000 A 
ATOM     15  C   UNL     1       5.558   4.425  18.431  0.00  0.00    +0.000 C 
BRANCH  13  16
ATOM     16  C   UNL     1       7.301   6.760  17.408  0.00  0.00    +0.000 C 
ATOM     17  F   UNL     1       7.936   6.586  18.598  0.00  0.00    +0.000 F 
ATOM     18  F   UNL     1       8.088   7.644  16.718  0.00  0.00    +0.000 F 
ATOM     19  F   UNL     1       6.148   7.427  17.672  0.00  0.00    +0.000 F 
ENDBRANCH  13  16
ENDBRANCH   5   7
BRANCH   1  20
ATOM     20  C   UNL     1       1.358   8.434  19.517  0.00  0.00    +0.000 C 
ATOM     21  F   UNL     1       2.352   9.295  19.120  0.00  0.00    +0.000 F 
BRANCH  20  22
ATOM     22  C   UNL     1       0.720   9.033  20.766  0.00  0.00    +0.000 C 
BRANCH  22  28
ATOM     23  C   UNL     1      -1.302  10.760  19.080  0.00  0.00    +0.000 C 
ATOM     24  N   UNL     1      -0.320  11.223  20.016  0.00  0.00    +0.000 N 
ATOM     25  C   UNL     1      -0.148  12.535  20.380  0.00  0.00    +0.000 A 
ATOM     26  N   UNL     1       0.847  12.627  21.229  0.00  0.00    +0.000 NA
ATOM     27  N   UNL     1       1.328  11.361  21.446  0.00  0.00    +0.000 NA
ATOM     28  C   UNL     1       0.599  10.515  20.742  0.00  0.00    +0.000 A 
ENDBRANCH  22  28
ENDBRANCH  20  22
ENDBRANCH   1  20
TORSDOF 5
ENDMDL
