MODEL 1
REMARK VINA RESULT:      -8.4      0.000      0.000
REMARK  Name = 
REMARK  6 active torsions:
REMARK  status: ('A' for Active; 'I' for Inactive)
REMARK    1  A    between atoms: C_1  and  C_2
REMARK    2  A    between atoms: C_6  and  O_7
REMARK    3  A    between atoms: O_7  and  C_8
REMARK    4  A    between atoms: C_11  and  N_12
REMARK    5  A    between atoms: C_13  and  C_15
REMARK    6  A    between atoms: C_16  and  C_17
REMARK                            x       y       z     vdW  Elec       q    Type
REMARK                         _______ _______ _______ _____ _____    ______ ____
ROOT
ATOM      1  N   UNL     1       1.371   8.911  20.589  0.00  0.00    +0.000 N 
ATOM      2  C   UNL     1       0.504   9.862  20.094  0.00  0.00    +0.000 C 
ATOM      3  O   UNL     1      -0.058   9.776  19.006  0.00  0.00    +0.000 OA
ATOM      4  H   UNL     1       1.778   9.068  21.508  0.00  0.00    +0.000 HD
ENDROOT
BRANCH   2   5
ATOM      5  C   UNL     1       0.275  11.035  20.941  0.00  0.00    +0.000 A 
ATOM      6  C   UNL     1      -0.241  10.963  22.231  0.00  0.00    +0.000 A 
ATOM      7  C   UNL     1      -0.675   9.857  23.120  0.00  0.00    +0.000 C 
ATOM      8  O   UNL     1      -0.382  12.204  22.769  0.00  0.00    +0.000 OA
ATOM      9  C   UNL     1       0.031  13.107  21.845  0.00  0.00    +0.000 A 
ATOM     10  N   UNL     1      -0.005  14.446  22.047  0.00  0.00    +0.000 NA
ATOM     11  C   UNL     1       0.407  15.131  21.031  0.00  0.00    +0.000 A 
ATOM     12  N   UNL     1       0.862  14.592  19.849  0.00  0.00    +0.000 N 
ATOM     13  C   UNL     1       0.932  13.236  19.621  0.00  0.00    +0.000 A 
ATOM     14  O   UNL     1       1.370  12.764  18.578  0.00  0.00    +0.000 OA
ATOM     15  C   UNL     1       0.456  12.436  20.716  0.00  0.00    +0.000 A 
ATOM     16  H   UNL     1       1.183  15.192  19.103  0.00  0.00    +0.000 HD
ENDBRANCH   2   5
BRANCH   1  20
ATOM     17  C   UNL     1       2.850   5.380  18.828  0.00  0.00    +0.000 A 
ATOM     18  C   UNL     1       2.867   6.558  18.088  0.00  0.00    +0.000 A 
ATOM     19  C   UNL     1       2.351   7.736  18.634  0.00  0.00    +0.000 A 
ATOM     20  C   UNL     1       1.821   7.749  19.927  0.00  0.00    +0.000 A 
ATOM     21  C   UNL     1       1.744   6.546  20.637  0.00  0.00    +0.000 A 
ATOM     22  C   UNL     1       2.227   5.362  20.078  0.00  0.00    +0.000 A 
BRANCH  17  23
ATOM     23  O   UNL     1       3.444   4.286  18.244  0.00  0.00    +0.000 OA
BRANCH  23  29
ATOM     24  C   UNL     1       6.315   3.992  14.338  0.00  0.00    +0.000 C 
ATOM     25  C   UNL     1       6.157   4.248  15.806  0.00  0.00    +0.000 A 
ATOM     26  C   UNL     1       7.263   4.543  16.612  0.00  0.00    +0.000 A 
ATOM     27  C   UNL     1       7.097   4.812  17.970  0.00  0.00    +0.000 A 
ATOM     28  C   UNL     1       5.826   4.776  18.537  0.00  0.00    +0.000 A 
ATOM     29  C   UNL     1       4.724   4.415  17.755  0.00  0.00    +0.000 A 
ATOM     30  C   UNL     1       4.883   4.192  16.388  0.00  0.00    +0.000 A 
ENDBRANCH  23  29
ENDBRANCH  17  23
ENDBRANCH   1  20
TORSDOF 4
ENDMDL
MODEL 2
REMARK VINA RESULT:      -8.4      3.081      9.654
REMARK  Name = 
REMARK  6 active torsions:
REMARK  status: ('A' for Active; 'I' for Inactive)
REMARK    1  A    between atoms: C_1  and  C_2
REMARK    2  A    between atoms: C_6  and  O_7
REMARK    3  A    between atoms: O_7  and  C_8
REMARK    4  A    between atoms: C_11  and  N_12
REMARK    5  A    between atoms: C_13  and  C_15
REMARK    6  A    between atoms: C_16  and  C_17
REMARK                            x       y       z     vdW  Elec       q    Type
REMARK                         _______ _______ _______ _____ _____    ______ ____
ROOT
ATOM      1  N   UNL     1       2.431   7.346  18.117  0.00  0.00    +0.000 N 
ATOM      2  C   UNL     1       3.120   6.286  18.666  0.00  0.00    +0.000 C 
ATOM      3  O   UNL     1       3.262   6.113  19.873  0.00  0.00    +0.000 OA
ATOM      4  H   UNL     1       2.360   7.395  17.103  0.00  0.00    +0.000 HD
ENDROOT
BRANCH   2   5
ATOM      5  C   UNL     1       3.715   5.338  17.721  0.00  0.00    +0.000 A 
ATOM      6  C   UNL     1       3.139   4.114  17.393  0.00  0.00    +0.000 A 
ATOM      7  C   UNL     1       1.895   3.409  17.789  0.00  0.00    +0.000 C 
ATOM      8  O   UNL     1       3.923   3.425  16.522  0.00  0.00    +0.000 OA
ATOM      9  C   UNL     1       5.023   4.176  16.269  0.00  0.00    +0.000 A 
ATOM     10  N   UNL     1       6.030   3.770  15.459  0.00  0.00    +0.000 NA
ATOM     11  C   UNL     1       6.998   4.622  15.373  0.00  0.00    +0.000 A 
ATOM     12  N   UNL     1       7.034   5.841  16.011  0.00  0.00    +0.000 N 
ATOM     13  C   UNL     1       6.017   6.292  16.823  0.00  0.00    +0.000 A 
ATOM     14  O   UNL     1       6.042   7.393  17.360  0.00  0.00    +0.000 OA
ATOM     15  C   UNL     1       4.932   5.362  16.969  0.00  0.00    +0.000 A 
ATOM     16  H   UNL     1       7.819   6.462  15.884  0.00  0.00    +0.000 HD
ENDBRANCH   2   5
BRANCH   1  20
ATOM     17  C   UNL     1       0.905  10.736  20.100  0.00  0.00    +0.000 A 
ATOM     18  C   UNL     1       0.964   9.526  20.785  0.00  0.00    +0.000 A 
ATOM     19  C   UNL     1       1.433   8.379  20.141  0.00  0.00    +0.000 A 
ATOM     20  C   UNL     1       1.854   8.431  18.810  0.00  0.00    +0.000 A 
ATOM     21  C   UNL     1       1.726   9.635  18.108  0.00  0.00    +0.000 A 
ATOM     22  C   UNL     1       1.225  10.773  18.741  0.00  0.00    +0.000 A 
BRANCH  17  23
ATOM     23  O   UNL     1       0.502  11.830  20.830  0.00  0.00    +0.000 OA
BRANCH  23  29
ATOM     24  C   UNL     1      -3.341  12.437  23.737  0.00  0.00    +0.000 C 
ATOM     25  C   UNL     1      -2.763  12.395  22.355  0.00  0.00    +0.000 A 
ATOM     26  C   UNL     1      -3.572  12.582  21.227  0.00  0.00    +0.000 A 
ATOM     27  C   UNL     1      -3.015  12.574  19.949  0.00  0.00    +0.000 A 
ATOM     28  C   UNL     1      -1.648  12.368  19.786  0.00  0.00    +0.000 A 
ATOM     29  C   UNL     1      -0.843  12.113  20.901  0.00  0.00    +0.000 A 
ATOM     30  C   UNL     1      -1.392  12.166  22.182  0.00  0.00    +0.000 A 
ENDBRANCH  23  29
ENDBRANCH  17  23
ENDBRANCH   1  20
TORSDOF 4
ENDMDL
MODEL 3
REMARK VINA RESULT:      -8.3      2.943      9.886
REMARK  Name = 
REMARK  6 active torsions:
REMARK  status: ('A' for Active; 'I' for Inactive)
REMARK    1  A    between atoms: C_1  and  C_2
REMARK    2  A    between atoms: C_6  and  O_7
REMARK    3  A    between atoms: O_7  and  C_8
REMARK    4  A    between atoms: C_11  and  N_12
REMARK    5  A    between atoms: C_13  and  C_15
REMARK    6  A    between atoms: C_16  and  C_17
REMARK                            x       y       z     vdW  Elec       q    Type
REMARK                         _______ _______ _______ _____ _____    ______ ____
ROOT
ATOM      1  N   UNL     1       2.030   7.304  19.977  0.00  0.00    +0.000 N 
ATOM      2  C   UNL     1       2.558   7.203  18.708  0.00  0.00    +0.000 C 
ATOM      3  O   UNL     1       2.612   8.136  17.912  0.00  0.00    +0.000 OA
ATOM      4  H   UNL     1       2.041   6.475  20.566  0.00  0.00    +0.000 HD
ENDROOT
BRANCH   2   5
ATOM      5  C   UNL     1       3.063   5.884  18.317  0.00  0.00    +0.000 A 
ATOM      6  C   UNL     1       4.083   5.695  17.390  0.00  0.00    +0.000 A 
ATOM      7  C   UNL     1       4.933   6.600  16.577  0.00  0.00    +0.000 C 
ATOM      8  O   UNL     1       4.323   4.371  17.194  0.00  0.00    +0.000 OA
ATOM      9  C   UNL     1       3.467   3.673  17.979  0.00  0.00    +0.000 A 
ATOM     10  N   UNL     1       3.418   2.320  18.004  0.00  0.00    +0.000 NA
ATOM     11  C   UNL     1       2.513   1.852  18.800  0.00  0.00    +0.000 A 
ATOM     12  N   UNL     1       1.673   2.618  19.576  0.00  0.00    +0.000 N 
ATOM     13  C   UNL     1       1.713   3.994  19.589  0.00  0.00    +0.000 A 
ATOM     14  O   UNL     1       0.983   4.667  20.308  0.00  0.00    +0.000 OA
ATOM     15  C   UNL     1       2.687   4.557  18.696  0.00  0.00    +0.000 A 
ATOM     16  H   UNL     1       0.998   2.180  20.187  0.00  0.00    +0.000 HD
ENDBRANCH   2   5
BRANCH   1  20
ATOM     17  C   UNL     1       0.325  10.827  21.539  0.00  0.00    +0.000 A 
ATOM     18  C   UNL     1       0.606   9.775  22.405  0.00  0.00    +0.000 A 
ATOM     19  C   UNL     1       1.139   8.583  21.909  0.00  0.00    +0.000 A 
ATOM     20  C   UNL     1       1.402   8.434  20.545  0.00  0.00    +0.000 A 
ATOM     21  C   UNL     1       1.052   9.470  19.673  0.00  0.00    +0.000 A 
ATOM     22  C   UNL     1       0.487  10.647  20.163  0.00  0.00    +0.000 A 
BRANCH  17  23
ATOM     23  O   UNL     1      -0.128  11.989  22.118  0.00  0.00    +0.000 OA
BRANCH  23  29
ATOM     24  C   UNL     1      -4.280  12.458  24.593  0.00  0.00    +0.000 C 
ATOM     25  C   UNL     1      -3.546  12.491  23.287  0.00  0.00    +0.000 A 
ATOM     26  C   UNL     1      -4.220  12.748  22.086  0.00  0.00    +0.000 A 
ATOM     27  C   UNL     1      -3.519  12.809  20.882  0.00  0.00    +0.000 A 
ATOM     28  C   UNL     1      -2.142  12.603  20.866  0.00  0.00    +0.000 A 
ATOM     29  C   UNL     1      -1.472  12.277  22.050  0.00  0.00    +0.000 A 
ATOM     30  C   UNL     1      -2.165  12.262  23.260  0.00  0.00    +0.000 A 
ENDBRANCH  23  29
ENDBRANCH  17  23
ENDBRANCH   1  20
TORSDOF 4
ENDMDL
MODEL 4
REMARK VINA RESULT:      -8.3      2.540      3.950
REMARK  Name = 
REMARK  6 active torsions:
REMARK  status: ('A' for Active; 'I' for Inactive)
REMARK    1  A    between atoms: C_1  and  C_2
REMARK    2  A    between atoms: C_6  and  O_7
REMARK    3  A    between atoms: O_7  and  C_8
REMARK    4  A    between atoms: C_11  and  N_12
REMARK    5  A    between atoms: C_13  and  C_15
REMARK    6  A    between atoms: C_16  and  C_17
REMARK                            x       y       z     vdW  Elec       q    Type
REMARK                         _______ _______ _______ _____ _____    ______ ____
ROOT
ATOM      1  N   UNL     1       0.260  10.431  19.532  0.00  0.00    +0.000 N 
ATOM      2  C   UNL     1       0.407  11.354  20.545  0.00  0.00    +0.000 C 
ATOM      3  O   UNL     1       1.396  11.425  21.270  0.00  0.00    +0.000 OA
ATOM      4  H   UNL     1      -0.593  10.462  18.979  0.00  0.00    +0.000 HD
ENDROOT
BRANCH   2   5
ATOM      5  C   UNL     1      -0.710  12.281  20.747  0.00  0.00    +0.000 A 
ATOM      6  C   UNL     1      -0.997  13.338  19.888  0.00  0.00    +0.000 A 
ATOM      7  C   UNL     1      -0.399  13.851  18.631  0.00  0.00    +0.000 C 
ATOM      8  O   UNL     1      -2.062  14.053  20.337  0.00  0.00    +0.000 OA
ATOM      9  C   UNL     1      -2.488  13.486  21.493  0.00  0.00    +0.000 A 
ATOM     10  N   UNL     1      -3.520  13.971  22.222  0.00  0.00    +0.000 NA
ATOM     11  C   UNL     1      -3.746  13.300  23.304  0.00  0.00    +0.000 A 
ATOM     12  N   UNL     1      -3.043  12.187  23.703  0.00  0.00    +0.000 N 
ATOM     13  C   UNL     1      -2.003  11.656  22.973  0.00  0.00    +0.000 A 
ATOM     14  O   UNL     1      -1.404  10.645  23.318  0.00  0.00    +0.000 OA
ATOM     15  C   UNL     1      -1.699  12.389  21.775  0.00  0.00    +0.000 A 
ATOM     16  H   UNL     1      -3.287  11.705  24.556  0.00  0.00    +0.000 HD
ENDBRANCH   2   5
BRANCH   1  20
ATOM     17  C   UNL     1       2.776   7.271  18.335  0.00  0.00    +0.000 A 
ATOM     18  C   UNL     1       2.304   7.295  19.643  0.00  0.00    +0.000 A 
ATOM     19  C   UNL     1       1.497   8.349  20.077  0.00  0.00    +0.000 A 
ATOM     20  C   UNL     1       1.148   9.384  19.206  0.00  0.00    +0.000 A 
ATOM     21  C   UNL     1       1.684   9.388  17.913  0.00  0.00    +0.000 A 
ATOM     22  C   UNL     1       2.519   8.353  17.490  0.00  0.00    +0.000 A 
BRANCH  17  23
ATOM     23  O   UNL     1       3.502   6.161  17.970  0.00  0.00    +0.000 OA
BRANCH  23  29
ATOM     24  C   UNL     1       4.466   1.998  20.277  0.00  0.00    +0.000 C 
ATOM     25  C   UNL     1       3.524   2.835  19.466  0.00  0.00    +0.000 A 
ATOM     26  C   UNL     1       2.275   2.339  19.070  0.00  0.00    +0.000 A 
ATOM     27  C   UNL     1       1.395   3.141  18.344  0.00  0.00    +0.000 A 
ATOM     28  C   UNL     1       1.759   4.440  17.998  0.00  0.00    +0.000 A 
ATOM     29  C   UNL     1       3.031   4.919  18.330  0.00  0.00    +0.000 A 
ATOM     30  C   UNL     1       3.893   4.134  19.095  0.00  0.00    +0.000 A 
ENDBRANCH  23  29
ENDBRANCH  17  23
ENDBRANCH   1  20
TORSDOF 4
ENDMDL
MODEL 5
REMARK VINA RESULT:      -8.3      1.898      2.485
REMARK  Name = 
REMARK  6 active torsions:
REMARK  status: ('A' for Active; 'I' for Inactive)
REMARK    1  A    between atoms: C_1  and  C_2
REMARK    2  A    between atoms: C_6  and  O_7
REMARK    3  A    between atoms: O_7  and  C_8
REMARK    4  A    between atoms: C_11  and  N_12
REMARK    5  A    between atoms: C_13  and  C_15
REMARK    6  A    between atoms: C_16  and  C_17
REMARK                            x       y       z     vdW  Elec       q    Type
REMARK                         _______ _______ _______ _____ _____    ______ ____
ROOT
ATOM      1  N   UNL     1       1.207  10.247  19.359  0.00  0.00    +0.000 N 
ATOM      2  C   UNL     1       0.103  10.848  18.792  0.00  0.00    +0.000 C 
ATOM      3  O   UNL     1      -0.734  10.250  18.123  0.00  0.00    +0.000 OA
ATOM      4  H   UNL     1       1.837  10.827  19.907  0.00  0.00    +0.000 HD
ENDROOT
BRANCH   2   5
ATOM      5  C   UNL     1      -0.037  12.289  19.012  0.00  0.00    +0.000 A 
ATOM      6  C   UNL     1      -1.198  12.884  19.496  0.00  0.00    +0.000 A 
ATOM      7  C   UNL     1      -2.526  12.380  19.925  0.00  0.00    +0.000 C 
ATOM      8  O   UNL     1      -1.060  14.235  19.568  0.00  0.00    +0.000 OA
ATOM      9  C   UNL     1       0.184  14.549  19.129  0.00  0.00    +0.000 A 
ATOM     10  N   UNL     1       0.642  15.821  19.042  0.00  0.00    +0.000 NA
ATOM     11  C   UNL     1       1.844  15.905  18.574  0.00  0.00    +0.000 A 
ATOM     12  N   UNL     1       2.624  14.831  18.206  0.00  0.00    +0.000 N 
ATOM     13  C   UNL     1       2.196  13.526  18.304  0.00  0.00    +0.000 A 
ATOM     14  O   UNL     1       2.908  12.575  18.006  0.00  0.00    +0.000 OA
ATOM     15  C   UNL     1       0.852  13.389  18.793  0.00  0.00    +0.000 A 
ATOM     16  H   UNL     1       3.562  14.974  17.862  0.00  0.00    +0.000 HD
ENDBRANCH   2   5
BRANCH   1  20
ATOM     17  C   UNL     1       2.552   6.260  19.136  0.00  0.00    +0.000 A 
ATOM     18  C   UNL     1       2.528   7.027  17.975  0.00  0.00    +0.000 A 
ATOM     19  C   UNL     1       2.054   8.340  18.014  0.00  0.00    +0.000 A 
ATOM     20  C   UNL     1       1.607   8.902  19.213  0.00  0.00    +0.000 A 
ATOM     21  C   UNL     1       1.570   8.102  20.360  0.00  0.00    +0.000 A 
ATOM     22  C   UNL     1       2.010   6.778  20.315  0.00  0.00    +0.000 A 
BRANCH  17  23
ATOM     23  O   UNL     1       3.102   5.005  19.025  0.00  0.00    +0.000 OA
BRANCH  23  29
ATOM     24  C   UNL     1       7.892   5.778  19.231  0.00  0.00    +0.000 C 
ATOM     25  C   UNL     1       6.698   5.277  18.477  0.00  0.00    +0.000 A 
ATOM     26  C   UNL     1       6.825   4.761  17.182  0.00  0.00    +0.000 A 
ATOM     27  C   UNL     1       5.710   4.267  16.505  0.00  0.00    +0.000 A 
ATOM     28  C   UNL     1       4.458   4.295  17.113  0.00  0.00    +0.000 A 
ATOM     29  C   UNL     1       4.309   4.871  18.378  0.00  0.00    +0.000 A 
ATOM     30  C   UNL     1       5.431   5.322  19.074  0.00  0.00    +0.000 A 
ENDBRANCH  23  29
ENDBRANCH  17  23
ENDBRANCH   1  20
TORSDOF 4
ENDMDL
MODEL 6
REMARK VINA RESULT:      -8.3      1.858      2.029
REMARK  Name = 
REMARK  6 active torsions:
REMARK  status: ('A' for Active; 'I' for Inactive)
REMARK    1  A    between atoms: C_1  and  C_2
REMARK    2  A    between atoms: C_6  and  O_7
REMARK    3  A    between atoms: O_7  and  C_8
REMARK    4  A    between atoms: C_11  and  N_12
REMARK    5  A    between atoms: C_13  and  C_15
REMARK    6  A    between atoms: C_16  and  C_17
REMARK                            x       y       z     vdW  Elec       q    Type
REMARK                         _______ _______ _______ _____ _____    ______ ____
ROOT
ATOM      1  N   UNL     1       1.268  10.181  19.252  0.00  0.00    +0.000 N 
ATOM      2  C   UNL     1       0.148  10.759  18.693  0.00  0.00    +0.000 C 
ATOM      3  O   UNL     1      -0.663  10.151  18.001  0.00  0.00    +0.000 OA
ATOM      4  H   UNL     1       1.874  10.767  19.820  0.00  0.00    +0.000 HD
ENDROOT
BRANCH   2   5
ATOM      5  C   UNL     1      -0.044  12.188  18.953  0.00  0.00    +0.000 A 
ATOM      6  C   UNL     1      -1.232  12.729  19.434  0.00  0.00    +0.000 A 
ATOM      7  C   UNL     1      -2.550  12.169  19.825  0.00  0.00    +0.000 C 
ATOM      8  O   UNL     1      -1.141  14.081  19.547  0.00  0.00    +0.000 OA
ATOM      9  C   UNL     1       0.099  14.449  19.140  0.00  0.00    +0.000 A 
ATOM     10  N   UNL     1       0.515  15.737  19.097  0.00  0.00    +0.000 NA
ATOM     11  C   UNL     1       1.721  15.875  18.653  0.00  0.00    +0.000 A 
ATOM     12  N   UNL     1       2.542  14.839  18.267  0.00  0.00    +0.000 N 
ATOM     13  C   UNL     1       2.157  13.518  18.320  0.00  0.00    +0.000 A 
ATOM     14  O   UNL     1       2.906  12.600  18.006  0.00  0.00    +0.000 OA
ATOM     15  C   UNL     1       0.811  13.322  18.781  0.00  0.00    +0.000 A 
ATOM     16  H   UNL     1       3.481  15.023  17.944  0.00  0.00    +0.000 HD
ENDBRANCH   2   5
BRANCH   1  20
ATOM     17  C   UNL     1       2.750   6.250  18.930  0.00  0.00    +0.000 A 
ATOM     18  C   UNL     1       2.729   7.055  17.796  0.00  0.00    +0.000 A 
ATOM     19  C   UNL     1       2.211   8.350  17.866  0.00  0.00    +0.000 A 
ATOM     20  C   UNL     1       1.716   8.855  19.071  0.00  0.00    +0.000 A 
ATOM     21  C   UNL     1       1.677   8.015  20.189  0.00  0.00    +0.000 A 
ATOM     22  C   UNL     1       2.161   6.709  20.111  0.00  0.00    +0.000 A 
BRANCH  17  23
ATOM     23  O   UNL     1       3.343   5.017  18.791  0.00  0.00    +0.000 OA
BRANCH  23  29
ATOM     24  C   UNL     1       6.132   3.860  14.987  0.00  0.00    +0.000 C 
ATOM     25  C   UNL     1       6.014   4.359  16.395  0.00  0.00    +0.000 A 
ATOM     26  C   UNL     1       7.151   4.683  17.145  0.00  0.00    +0.000 A 
ATOM     27  C   UNL     1       7.025   5.178  18.443  0.00  0.00    +0.000 A 
ATOM     28  C   UNL     1       5.762   5.342  19.005  0.00  0.00    +0.000 A 
ATOM     29  C   UNL     1       4.624   4.957  18.290  0.00  0.00    +0.000 A 
ATOM     30  C   UNL     1       4.747   4.505  16.976  0.00  0.00    +0.000 A 
ENDBRANCH  23  29
ENDBRANCH  17  23
ENDBRANCH   1  20
TORSDOF 4
ENDMDL
MODEL 7
REMARK VINA RESULT:      -8.3      2.856      3.803
REMARK  Name = 
REMARK  6 active torsions:
REMARK  status: ('A' for Active; 'I' for Inactive)
REMARK    1  A    between atoms: C_1  and  C_2
REMARK    2  A    between atoms: C_6  and  O_7
REMARK    3  A    between atoms: O_7  and  C_8
REMARK    4  A    between atoms: C_11  and  N_12
REMARK    5  A    between atoms: C_13  and  C_15
REMARK    6  A    between atoms: C_16  and  C_17
REMARK                            x       y       z     vdW  Elec       q    Type
REMARK                         _______ _______ _______ _____ _____    ______ ____
ROOT
ATOM      1  N   UNL     1      -0.017  11.192  20.068  0.00  0.00    +0.000 N 
ATOM      2  C   UNL     1       0.473  12.289  20.744  0.00  0.00    +0.000 C 
ATOM      3  O   UNL     1       1.625  12.379  21.159  0.00  0.00    +0.000 OA
ATOM      4  H   UNL     1      -0.984  11.218  19.755  0.00  0.00    +0.000 HD
ENDROOT
BRANCH   2   5
ATOM      5  C   UNL     1      -0.471  13.386  20.974  0.00  0.00    +0.000 A 
ATOM      6  C   UNL     1      -1.411  13.389  22.000  0.00  0.00    +0.000 A 
ATOM      7  C   UNL     1      -1.762  12.451  23.095  0.00  0.00    +0.000 C 
ATOM      8  O   UNL     1      -2.176  14.512  21.955  0.00  0.00    +0.000 OA
ATOM      9  C   UNL     1      -1.759  15.258  20.902  0.00  0.00    +0.000 A 
ATOM     10  N   UNL     1      -2.332  16.434  20.551  0.00  0.00    +0.000 NA
ATOM     11  C   UNL     1      -1.802  16.972  19.502  0.00  0.00    +0.000 A 
ATOM     12  N   UNL     1      -0.748  16.443  18.792  0.00  0.00    +0.000 N 
ATOM     13  C   UNL     1      -0.131  15.262  19.135  0.00  0.00    +0.000 A 
ATOM     14  O   UNL     1       0.829  14.816  18.517  0.00  0.00    +0.000 OA
ATOM     15  C   UNL     1      -0.707  14.615  20.282  0.00  0.00    +0.000 A 
ATOM     16  H   UNL     1      -0.377  16.929  17.988  0.00  0.00    +0.000 HD
ENDBRANCH   2   5
BRANCH   1  20
ATOM     17  C   UNL     1       2.150   7.621  19.519  0.00  0.00    +0.000 A 
ATOM     18  C   UNL     1       1.995   8.485  18.440  0.00  0.00    +0.000 A 
ATOM     19  C   UNL     1       1.252   9.659  18.584  0.00  0.00    +0.000 A 
ATOM     20  C   UNL     1       0.664   9.983  19.809  0.00  0.00    +0.000 A 
ATOM     21  C   UNL     1       0.766   9.075  20.869  0.00  0.00    +0.000 A 
ATOM     22  C   UNL     1       1.478   7.885  20.715  0.00  0.00    +0.000 A 
BRANCH  17  23
ATOM     23  O   UNL     1       2.956   6.526  19.311  0.00  0.00    +0.000 OA
BRANCH  23  29
ATOM     24  C   UNL     1       1.519   2.551  21.702  0.00  0.00    +0.000 C 
ATOM     25  C   UNL     1       1.671   3.295  20.410  0.00  0.00    +0.000 A 
ATOM     26  C   UNL     1       1.283   2.718  19.194  0.00  0.00    +0.000 A 
ATOM     27  C   UNL     1       1.399   3.434  18.003  0.00  0.00    +0.000 A 
ATOM     28  C   UNL     1       1.915   4.727  18.016  0.00  0.00    +0.000 A 
ATOM     29  C   UNL     1       2.369   5.285  19.215  0.00  0.00    +0.000 A 
ATOM     30  C   UNL     1       2.210   4.588  20.412  0.00  0.00    +0.000 A 
ENDBRANCH  23  29
ENDBRANCH  17  23
ENDBRANCH   1  20
TORSDOF 4
ENDMDL
MODEL 8
REMARK VINA RESULT:      -8.3      0.365      1.374
REMARK  Name = 
REMARK  6 active torsions:
REMARK  status: ('A' for Active; 'I' for Inactive)
REMARK    1  A    between atoms: C_1  and  C_2
REMARK    2  A    between atoms: C_6  and  O_7
REMARK    3  A    between atoms: O_7  and  C_8
REMARK    4  A    between atoms: C_11  and  N_12
REMARK    5  A    between atoms: C_13  and  C_15
REMARK    6  A    between atoms: C_16  and  C_17
REMARK                            x       y       z     vdW  Elec       q    Type
REMARK                         _______ _______ _______ _____ _____    ______ ____
ROOT
ATOM      1  N   UNL     1       1.350   8.899  20.601  0.00  0.00    +0.000 N 
ATOM      2  C   UNL     1       0.480   9.845  20.105  0.00  0.00    +0.000 C 
ATOM      3  O   UNL     1      -0.084   9.756  19.019  0.00  0.00    +0.000 OA
ATOM      4  H   UNL     1       1.759   9.059  21.518  0.00  0.00    +0.000 HD
ENDROOT
BRANCH   2   5
ATOM      5  C   UNL     1       0.251  11.021  20.949  0.00  0.00    +0.000 A 
ATOM      6  C   UNL     1      -0.250  10.952  22.246  0.00  0.00    +0.000 A 
ATOM      7  C   UNL     1      -0.664   9.847  23.145  0.00  0.00    +0.000 C 
ATOM      8  O   UNL     1      -0.395  12.194  22.778  0.00  0.00    +0.000 OA
ATOM      9  C   UNL     1      -0.000  13.096  21.845  0.00  0.00    +0.000 A 
ATOM     10  N   UNL     1      -0.045  14.435  22.041  0.00  0.00    +0.000 NA
ATOM     11  C   UNL     1       0.349  15.118  21.017  0.00  0.00    +0.000 A 
ATOM     12  N   UNL     1       0.795  14.577  19.832  0.00  0.00    +0.000 N 
ATOM     13  C   UNL     1       0.873  13.221  19.610  0.00  0.00    +0.000 A 
ATOM     14  O   UNL     1       1.303  12.747  18.565  0.00  0.00    +0.000 OA
ATOM     15  C   UNL     1       0.417  12.423  20.715  0.00  0.00    +0.000 A 
ATOM     16  H   UNL     1       1.102  15.176  19.079  0.00  0.00    +0.000 HD
ENDBRANCH   2   5
BRANCH   1  20
ATOM     17  C   UNL     1       2.823   5.359  18.851  0.00  0.00    +0.000 A 
ATOM     18  C   UNL     1       2.883   6.544  18.124  0.00  0.00    +0.000 A 
ATOM     19  C   UNL     1       2.370   7.725  18.666  0.00  0.00    +0.000 A 
ATOM     20  C   UNL     1       1.800   7.735  19.941  0.00  0.00    +0.000 A 
ATOM     21  C   UNL     1       1.681   6.527  20.637  0.00  0.00    +0.000 A 
ATOM     22  C   UNL     1       2.161   5.340  20.081  0.00  0.00    +0.000 A 
BRANCH  17  23
ATOM     23  O   UNL     1       3.416   4.260  18.276  0.00  0.00    +0.000 OA
BRANCH  23  29
ATOM     24  C   UNL     1       7.958   5.715  19.189  0.00  0.00    +0.000 C 
ATOM     25  C   UNL     1       6.958   5.131  18.239  0.00  0.00    +0.000 A 
ATOM     26  C   UNL     1       7.317   4.795  16.928  0.00  0.00    +0.000 A 
ATOM     27  C   UNL     1       6.384   4.221  16.064  0.00  0.00    +0.000 A 
ATOM     28  C   UNL     1       5.082   3.990  16.500  0.00  0.00    +0.000 A 
ATOM     29  C   UNL     1       4.696   4.385  17.785  0.00  0.00    +0.000 A 
ATOM     30  C   UNL     1       5.640   4.916  18.663  0.00  0.00    +0.000 A 
ENDBRANCH  23  29
ENDBRANCH  17  23
ENDBRANCH   1  20
TORSDOF 4
ENDMDL
MODEL 9
REMARK VINA RESULT:      -8.2      1.909      2.987
REMARK  Name = 
REMARK  6 active torsions:
REMARK  status: ('A' for Active; 'I' for Inactive)
REMARK    1  A    between atoms: C_1  and  C_2
REMARK    2  A    between atoms: C_6  and  O_7
REMARK    3  A    between atoms: O_7  and  C_8
REMARK    4  A    between atoms: C_11  and  N_12
REMARK    5  A    between atoms: C_13  and  C_15
REMARK    6  A    between atoms: C_16  and  C_17
REMARK                            x       y       z     vdW  Elec       q    Type
REMARK                         _______ _______ _______ _____ _____    ______ ____
ROOT
ATOM      1  N   UNL     1       0.442   9.965  19.627  0.00  0.00    +0.000 N 
ATOM      2  C   UNL     1       0.587  10.965  20.564  0.00  0.00    +0.000 C 
ATOM      3  O   UNL     1       1.555  11.068  21.312  0.00  0.00    +0.000 OA
ATOM      4  H   UNL     1      -0.392   9.973  19.046  0.00  0.00    +0.000 HD
ENDROOT
BRANCH   2   5
ATOM      5  C   UNL     1      -0.506  11.936  20.652  0.00  0.00    +0.000 A 
ATOM      6  C   UNL     1      -0.748  12.911  19.689  0.00  0.00    +0.000 A 
ATOM      7  C   UNL     1      -0.114  13.282  18.400  0.00  0.00    +0.000 C 
ATOM      8  O   UNL     1      -1.800  13.695  20.044  0.00  0.00    +0.000 OA
ATOM      9  C   UNL     1      -2.261  13.256  21.241  0.00  0.00    +0.000 A 
ATOM     10  N   UNL     1      -3.292  13.838  21.899  0.00  0.00    +0.000 NA
ATOM     11  C   UNL     1      -3.556  13.283  23.036  0.00  0.00    +0.000 A 
ATOM     12  N   UNL     1      -2.892  12.195  23.556  0.00  0.00    +0.000 N 
ATOM     13  C   UNL     1      -1.855  11.568  22.902  0.00  0.00    +0.000 A 
ATOM     14  O   UNL     1      -1.291  10.580  23.356  0.00  0.00    +0.000 OA
ATOM     15  C   UNL     1      -1.509  12.171  21.644  0.00  0.00    +0.000 A 
ATOM     16  H   UNL     1      -3.165  11.806  24.446  0.00  0.00    +0.000 HD
ENDBRANCH   2   5
BRANCH   1  20
ATOM     17  C   UNL     1       2.899   6.650  18.774  0.00  0.00    +0.000 A 
ATOM     18  C   UNL     1       2.355   6.772  20.048  0.00  0.00    +0.000 A 
ATOM     19  C   UNL     1       1.565   7.879  20.369  0.00  0.00    +0.000 A 
ATOM     20  C   UNL     1       1.307   8.869  19.418  0.00  0.00    +0.000 A 
ATOM     21  C   UNL     1       1.915   8.773  18.161  0.00  0.00    +0.000 A 
ATOM     22  C   UNL     1       2.733   7.686  17.852  0.00  0.00    +0.000 A 
BRANCH  17  23
ATOM     23  O   UNL     1       3.602   5.495  18.520  0.00  0.00    +0.000 OA
BRANCH  23  29
ATOM     24  C   UNL     1       5.723   4.257  14.330  0.00  0.00    +0.000 C 
ATOM     25  C   UNL     1       5.801   4.936  15.664  0.00  0.00    +0.000 A 
ATOM     26  C   UNL     1       6.982   5.554  16.092  0.00  0.00    +0.000 A 
ATOM     27  C   UNL     1       7.030   6.212  17.321  0.00  0.00    +0.000 A 
ATOM     28  C   UNL     1       5.902   6.247  18.137  0.00  0.00    +0.000 A 
ATOM     29  C   UNL     1       4.739   5.574  17.748  0.00  0.00    +0.000 A 
ATOM     30  C   UNL     1       4.677   4.956  16.500  0.00  0.00    +0.000 A 
ENDBRANCH  23  29
ENDBRANCH  17  23
ENDBRANCH   1  20
TORSDOF 4
ENDMDL
