MODEL 1
REMARK VINA RESULT:      -8.4      0.000      0.000
REMARK  Name = 
REMARK  5 active torsions:
REMARK  status: ('A' for Active; 'I' for Inactive)
REMARK    1  A    between atoms: C_2  and  C_10
REMARK    2  A    between atoms: N_3  and  C_4
REMARK    3  A    between atoms: C_15  and  C_16
REMARK    4  A    between atoms: C_19  and  C_20
REMARK    5  A    between atoms: C_20  and  N_21
REMARK                            x       y       z     vdW  Elec       q    Type
REMARK                         _______ _______ _______ _____ _____    ______ ____
ROOT
ATOM      1  C   UNL     1       3.704   4.211  19.709  0.00  0.00    +0.000 A 
ATOM      2  C   UNL     1       3.858   2.862  20.101  0.00  0.00    +0.000 A 
ATOM      3  C   UNL     1       3.020   2.285  21.046  0.00  0.00    +0.000 A 
ATOM      4  C   UNL     1       2.025   3.055  21.627  0.00  0.00    +0.000 A 
ATOM      5  C   UNL     1       1.833   4.378  21.210  0.00  0.00    +0.000 A 
ATOM      6  C   UNL     1       2.631   4.993  20.214  0.00  0.00    +0.000 A 
ENDROOT
BRANCH   6   7
ATOM      7  C   UNL     1       2.262   6.359  19.729  0.00  0.00    +0.000 A 
ATOM      8  C   UNL     1       1.760   7.347  20.595  0.00  0.00    +0.000 A 
ATOM      9  C   UNL     1       1.445   8.637  20.145  0.00  0.00    +0.000 A 
ATOM     10  C   UNL     1       1.673   9.001  18.814  0.00  0.00    +0.000 A 
ATOM     11  C   UNL     1       2.157   8.035  17.936  0.00  0.00    +0.000 A 
ATOM     12  C   UNL     1       2.376   6.727  18.375  0.00  0.00    +0.000 A 
BRANCH  10  13
ATOM     13  C   UNL     1       1.423  10.408  18.338  0.00  0.00    +0.000 C 
BRANCH  13  14
ATOM     14  N   UNL     1       0.020  10.768  18.468  0.00  0.00    +0.000 N 
ATOM     15  C   UNL     1      -0.499  11.796  19.207  0.00  0.00    +0.000 A 
ATOM     16  C   UNL     1      -1.863  11.733  19.046  0.00  0.00    +0.000 A 
ATOM     17  C   UNL     1      -2.067  10.657  18.162  0.00  0.00    +0.000 A 
ATOM     18  N   UNL     1      -0.924  10.076  17.793  0.00  0.00    +0.000 NA
ENDBRANCH  13  14
ENDBRANCH  10  13
ENDBRANCH   6   7
BRANCH   1  20
ATOM     19  O   UNL     1       5.638   5.368  19.136  0.00  0.00    +0.000 OA
ATOM     20  C   UNL     1       4.719   4.668  18.709  0.00  0.00    +0.000 C 
ATOM     21  N   UNL     1       4.536   4.268  17.404  0.00  0.00    +0.000 N 
ATOM     22  H   UNL     1       3.723   3.698  17.197  0.00  0.00    +0.000 HD
BRANCH  21  23
ATOM     23  C   UNL     1       5.454   4.431  16.336  0.00  0.00    +0.000 A 
ATOM     24  C   UNL     1       6.721   5.003  16.489  0.00  0.00    +0.000 A 
ATOM     25  C   UNL     1       7.565   5.173  15.391  0.00  0.00    +0.000 A 
ATOM     26  C   UNL     1       7.160   4.757  14.128  0.00  0.00    +0.000 A 
ATOM     27  C   UNL     1       5.920   4.144  13.967  0.00  0.00    +0.000 A 
ATOM     28  C   UNL     1       5.074   3.976  15.068  0.00  0.00    +0.000 A 
ENDBRANCH  21  23
ENDBRANCH   1  20
TORSDOF 5
ENDMDL
MODEL 2
REMARK VINA RESULT:      -8.3      0.596      1.525
REMARK  Name = 
REMARK  5 active torsions:
REMARK  status: ('A' for Active; 'I' for Inactive)
REMARK    1  A    between atoms: C_2  and  C_10
REMARK    2  A    between atoms: N_3  and  C_4
REMARK    3  A    between atoms: C_15  and  C_16
REMARK    4  A    between atoms: C_19  and  C_20
REMARK    5  A    between atoms: C_20  and  N_21
REMARK                            x       y       z     vdW  Elec       q    Type
REMARK                         _______ _______ _______ _____ _____    ______ ____
ROOT
ATOM      1  C   UNL     1       3.324   3.916  19.626  0.00  0.00    +0.000 A 
ATOM      2  C   UNL     1       3.269   2.542  19.948  0.00  0.00    +0.000 A 
ATOM      3  C   UNL     1       2.281   2.033  20.781  0.00  0.00    +0.000 A 
ATOM      4  C   UNL     1       1.342   2.897  21.320  0.00  0.00    +0.000 A 
ATOM      5  C   UNL     1       1.358   4.253  20.970  0.00  0.00    +0.000 A 
ATOM      6  C   UNL     1       2.315   4.807  20.084  0.00  0.00    +0.000 A 
ENDROOT
BRANCH   6   7
ATOM      7  C   UNL     1       2.167   6.231  19.653  0.00  0.00    +0.000 A 
ATOM      8  C   UNL     1       2.412   6.637  18.328  0.00  0.00    +0.000 A 
ATOM      9  C   UNL     1       2.241   7.967  17.918  0.00  0.00    +0.000 A 
ATOM     10  C   UNL     1       1.766   8.932  18.812  0.00  0.00    +0.000 A 
ATOM     11  C   UNL     1       1.530   8.555  20.131  0.00  0.00    +0.000 A 
ATOM     12  C   UNL     1       1.796   7.249  20.550  0.00  0.00    +0.000 A 
BRANCH  10  13
ATOM     13  C   UNL     1       1.494  10.343  18.361  0.00  0.00    +0.000 C 
BRANCH  13  14
ATOM     14  N   UNL     1       0.085  10.679  18.500  0.00  0.00    +0.000 N 
ATOM     15  C   UNL     1      -0.968  10.083  17.858  0.00  0.00    +0.000 A 
ATOM     16  C   UNL     1      -2.096  10.744  18.281  0.00  0.00    +0.000 A 
ATOM     17  C   UNL     1      -1.626  11.696  19.206  0.00  0.00    +0.000 A 
ATOM     18  N   UNL     1      -0.301  11.650  19.355  0.00  0.00    +0.000 NA
ENDBRANCH  13  14
ENDBRANCH  10  13
ENDBRANCH   6   7
BRANCH   1  20
ATOM     19  O   UNL     1       5.562   4.455  19.301  0.00  0.00    +0.000 OA
ATOM     20  C   UNL     1       4.476   4.285  18.746  0.00  0.00    +0.000 C 
ATOM     21  N   UNL     1       4.221   4.403  17.398  0.00  0.00    +0.000 N 
ATOM     22  H   UNL     1       3.269   4.243  17.084  0.00  0.00    +0.000 HD
BRANCH  21  23
ATOM     23  C   UNL     1       5.182   4.566  16.369  0.00  0.00    +0.000 A 
ATOM     24  C   UNL     1       5.309   3.687  15.288  0.00  0.00    +0.000 A 
ATOM     25  C   UNL     1       6.302   3.879  14.325  0.00  0.00    +0.000 A 
ATOM     26  C   UNL     1       7.169   4.961  14.422  0.00  0.00    +0.000 A 
ATOM     27  C   UNL     1       7.026   5.870  15.468  0.00  0.00    +0.000 A 
ATOM     28  C   UNL     1       6.032   5.676  16.433  0.00  0.00    +0.000 A 
ENDBRANCH  21  23
ENDBRANCH   1  20
TORSDOF 5
ENDMDL
MODEL 3
REMARK VINA RESULT:      -8.2      0.379      1.177
REMARK  Name = 
REMARK  5 active torsions:
REMARK  status: ('A' for Active; 'I' for Inactive)
REMARK    1  A    between atoms: C_2  and  C_10
REMARK    2  A    between atoms: N_3  and  C_4
REMARK    3  A    between atoms: C_15  and  C_16
REMARK    4  A    between atoms: C_19  and  C_20
REMARK    5  A    between atoms: C_20  and  N_21
REMARK                            x       y       z     vdW  Elec       q    Type
REMARK                         _______ _______ _______ _____ _____    ______ ____
ROOT
ATOM      1  C   UNL     1       3.730   4.176  19.664  0.00  0.00    +0.000 A 
ATOM      2  C   UNL     1       3.893   2.831  20.063  0.00  0.00    +0.000 A 
ATOM      3  C   UNL     1       3.080   2.261  21.034  0.00  0.00    +0.000 A 
ATOM      4  C   UNL     1       2.100   3.035  21.634  0.00  0.00    +0.000 A 
ATOM      5  C   UNL     1       1.898   4.356  21.212  0.00  0.00    +0.000 A 
ATOM      6  C   UNL     1       2.669   4.963  20.191  0.00  0.00    +0.000 A 
ENDROOT
BRANCH   6   7
ATOM      7  C   UNL     1       2.288   6.324  19.704  0.00  0.00    +0.000 A 
ATOM      8  C   UNL     1       1.736   7.294  20.561  0.00  0.00    +0.000 A 
ATOM      9  C   UNL     1       1.409   8.581  20.111  0.00  0.00    +0.000 A 
ATOM     10  C   UNL     1       1.674   8.961  18.792  0.00  0.00    +0.000 A 
ATOM     11  C   UNL     1       2.208   8.014  17.923  0.00  0.00    +0.000 A 
ATOM     12  C   UNL     1       2.440   6.707  18.359  0.00  0.00    +0.000 A 
BRANCH  10  13
ATOM     13  C   UNL     1       1.410  10.367  18.319  0.00  0.00    +0.000 C 
BRANCH  13  14
ATOM     14  N   UNL     1       0.018  10.739  18.520  0.00  0.00    +0.000 N 
ATOM     15  C   UNL     1      -1.070  10.235  17.861  0.00  0.00    +0.000 A 
ATOM     16  C   UNL     1      -2.163  10.898  18.364  0.00  0.00    +0.000 A 
ATOM     17  C   UNL     1      -1.637  11.755  19.349  0.00  0.00    +0.000 A 
ATOM     18  N   UNL     1      -0.312  11.652  19.460  0.00  0.00    +0.000 NA
ENDBRANCH  13  14
ENDBRANCH  10  13
ENDBRANCH   6   7
BRANCH   1  20
ATOM     19  O   UNL     1       5.692   5.260  19.045  0.00  0.00    +0.000 OA
ATOM     20  C   UNL     1       4.718   4.625  18.635  0.00  0.00    +0.000 C 
ATOM     21  N   UNL     1       4.453   4.292  17.326  0.00  0.00    +0.000 N 
ATOM     22  H   UNL     1       3.602   3.773  17.136  0.00  0.00    +0.000 HD
BRANCH  21  23
ATOM     23  C   UNL     1       5.326   4.455  16.221  0.00  0.00    +0.000 A 
ATOM     24  C   UNL     1       5.109   3.860  14.973  0.00  0.00    +0.000 A 
ATOM     25  C   UNL     1       6.026   4.026  13.934  0.00  0.00    +0.000 A 
ATOM     26  C   UNL     1       7.162   4.803  14.123  0.00  0.00    +0.000 A 
ATOM     27  C   UNL     1       7.370   5.439  15.344  0.00  0.00    +0.000 A 
ATOM     28  C   UNL     1       6.452   5.270  16.386  0.00  0.00    +0.000 A 
ENDBRANCH  21  23
ENDBRANCH   1  20
TORSDOF 5
ENDMDL
MODEL 4
REMARK VINA RESULT:      -8.0      2.969      8.093
REMARK  Name = 
REMARK  5 active torsions:
REMARK  status: ('A' for Active; 'I' for Inactive)
REMARK    1  A    between atoms: C_2  and  C_10
REMARK    2  A    between atoms: N_3  and  C_4
REMARK    3  A    between atoms: C_15  and  C_16
REMARK    4  A    between atoms: C_19  and  C_20
REMARK    5  A    between atoms: C_20  and  N_21
REMARK                            x       y       z     vdW  Elec       q    Type
REMARK                         _______ _______ _______ _____ _____    ______ ____
ROOT
ATOM      1  C   UNL     1      -0.382  10.232  20.711  0.00  0.00    +0.000 A 
ATOM      2  C   UNL     1      -0.972  10.968  21.762  0.00  0.00    +0.000 A 
ATOM      3  C   UNL     1      -0.704  10.671  23.092  0.00  0.00    +0.000 A 
ATOM      4  C   UNL     1       0.146   9.619  23.391  0.00  0.00    +0.000 A 
ATOM      5  C   UNL     1       0.774   8.913  22.357  0.00  0.00    +0.000 A 
ATOM      6  C   UNL     1       0.570   9.213  20.987  0.00  0.00    +0.000 A 
ENDROOT
BRANCH   6   7
ATOM      7  C   UNL     1       1.393   8.506  19.958  0.00  0.00    +0.000 A 
ATOM      8  C   UNL     1       1.725   9.104  18.730  0.00  0.00    +0.000 A 
ATOM      9  C   UNL     1       2.523   8.452  17.780  0.00  0.00    +0.000 A 
ATOM     10  C   UNL     1       3.065   7.192  18.050  0.00  0.00    +0.000 A 
ATOM     11  C   UNL     1       2.738   6.575  19.255  0.00  0.00    +0.000 A 
ATOM     12  C   UNL     1       1.864   7.194  20.151  0.00  0.00    +0.000 A 
BRANCH  10  13
ATOM     13  C   UNL     1       3.996   6.519  17.076  0.00  0.00    +0.000 C 
BRANCH  13  14
ATOM     14  N   UNL     1       5.338   6.398  17.627  0.00  0.00    +0.000 N 
ATOM     15  C   UNL     1       6.420   7.181  17.330  0.00  0.00    +0.000 A 
ATOM     16  C   UNL     1       7.467   6.681  18.067  0.00  0.00    +0.000 A 
ATOM     17  C   UNL     1       6.908   5.621  18.805  0.00  0.00    +0.000 A 
ATOM     18  N   UNL     1       5.609   5.454  18.554  0.00  0.00    +0.000 NA
ENDBRANCH  13  14
ENDBRANCH  10  13
ENDBRANCH   6   7
BRANCH   1  20
ATOM     19  O   UNL     1      -0.034  11.390  18.725  0.00  0.00    +0.000 OA
ATOM     20  C   UNL     1      -0.816  10.671  19.348  0.00  0.00    +0.000 C 
ATOM     21  N   UNL     1      -2.048  10.235  18.913  0.00  0.00    +0.000 N 
ATOM     22  H   UNL     1      -2.590   9.653  19.543  0.00  0.00    +0.000 HD
BRANCH  21  23
ATOM     23  C   UNL     1      -2.579  10.378  17.607  0.00  0.00    +0.000 A 
ATOM     24  C   UNL     1      -3.639  11.236  17.296  0.00  0.00    +0.000 A 
ATOM     25  C   UNL     1      -4.146  11.304  15.997  0.00  0.00    +0.000 A 
ATOM     26  C   UNL     1      -3.589  10.527  14.989  0.00  0.00    +0.000 A 
ATOM     27  C   UNL     1      -2.504   9.701  15.272  0.00  0.00    +0.000 A 
ATOM     28  C   UNL     1      -1.998   9.632  16.575  0.00  0.00    +0.000 A 
ENDBRANCH  21  23
ENDBRANCH   1  20
TORSDOF 5
ENDMDL
MODEL 5
REMARK VINA RESULT:      -8.0      2.954      8.135
REMARK  Name = 
REMARK  5 active torsions:
REMARK  status: ('A' for Active; 'I' for Inactive)
REMARK    1  A    between atoms: C_2  and  C_10
REMARK    2  A    between atoms: N_3  and  C_4
REMARK    3  A    between atoms: C_15  and  C_16
REMARK    4  A    between atoms: C_19  and  C_20
REMARK    5  A    between atoms: C_20  and  N_21
REMARK                            x       y       z     vdW  Elec       q    Type
REMARK                         _______ _______ _______ _____ _____    ______ ____
ROOT
ATOM      1  C   UNL     1      -0.565  10.427  20.740  0.00  0.00    +0.000 A 
ATOM      2  C   UNL     1      -1.145  11.273  21.712  0.00  0.00    +0.000 A 
ATOM      3  C   UNL     1      -0.929  11.070  23.068  0.00  0.00    +0.000 A 
ATOM      4  C   UNL     1      -0.142  10.005  23.475  0.00  0.00    +0.000 A 
ATOM      5  C   UNL     1       0.476   9.189  22.520  0.00  0.00    +0.000 A 
ATOM      6  C   UNL     1       0.326   9.388  21.125  0.00  0.00    +0.000 A 
ENDROOT
BRANCH   6   7
ATOM      7  C   UNL     1       1.139   8.561  20.181  0.00  0.00    +0.000 A 
ATOM      8  C   UNL     1       1.430   8.992  18.875  0.00  0.00    +0.000 A 
ATOM      9  C   UNL     1       2.220   8.231  18.002  0.00  0.00    +0.000 A 
ATOM     10  C   UNL     1       2.793   7.028  18.427  0.00  0.00    +0.000 A 
ATOM     11  C   UNL     1       2.507   6.576  19.712  0.00  0.00    +0.000 A 
ATOM     12  C   UNL     1       1.641   7.296  20.538  0.00  0.00    +0.000 A 
BRANCH  10  13
ATOM     13  C   UNL     1       3.715   6.245  17.530  0.00  0.00    +0.000 C 
BRANCH  13  14
ATOM     14  N   UNL     1       3.465   4.815  17.634  0.00  0.00    +0.000 N 
ATOM     15  C   UNL     1       2.302   4.161  17.328  0.00  0.00    +0.000 A 
ATOM     16  C   UNL     1       2.526   2.834  17.606  0.00  0.00    +0.000 A 
ATOM     17  C   UNL     1       3.864   2.781  18.038  0.00  0.00    +0.000 A 
ATOM     18  N   UNL     1       4.446   3.982  18.043  0.00  0.00    +0.000 NA
ENDBRANCH  13  14
ENDBRANCH  10  13
ENDBRANCH   6   7
BRANCH   1  20
ATOM     19  O   UNL     1      -0.138  11.472  18.707  0.00  0.00    +0.000 OA
ATOM     20  C   UNL     1      -0.939  10.776  19.334  0.00  0.00    +0.000 C 
ATOM     21  N   UNL     1      -2.141  10.293  18.868  0.00  0.00    +0.000 N 
ATOM     22  H   UNL     1      -2.703   9.739  19.505  0.00  0.00    +0.000 HD
BRANCH  21  23
ATOM     23  C   UNL     1      -2.610  10.348  17.532  0.00  0.00    +0.000 A 
ATOM     24  C   UNL     1      -2.033   9.624  16.482  0.00  0.00    +0.000 A 
ATOM     25  C   UNL     1      -2.516   9.749  15.178  0.00  0.00    +0.000 A 
ATOM     26  C   UNL     1      -3.591  10.587  14.910  0.00  0.00    +0.000 A 
ATOM     27  C   UNL     1      -4.205  11.280  15.950  0.00  0.00    +0.000 A 
ATOM     28  C   UNL     1      -3.720  11.155  17.257  0.00  0.00    +0.000 A 
ENDBRANCH  21  23
ENDBRANCH   1  20
TORSDOF 5
ENDMDL
MODEL 6
REMARK VINA RESULT:      -8.0      1.048      1.674
REMARK  Name = 
REMARK  5 active torsions:
REMARK  status: ('A' for Active; 'I' for Inactive)
REMARK    1  A    between atoms: C_2  and  C_10
REMARK    2  A    between atoms: N_3  and  C_4
REMARK    3  A    between atoms: C_15  and  C_16
REMARK    4  A    between atoms: C_19  and  C_20
REMARK    5  A    between atoms: C_20  and  N_21
REMARK                            x       y       z     vdW  Elec       q    Type
REMARK                         _______ _______ _______ _____ _____    ______ ____
ROOT
ATOM      1  C   UNL     1       2.792   3.533  19.154  0.00  0.00    +0.000 A 
ATOM      2  C   UNL     1       2.670   2.201  19.607  0.00  0.00    +0.000 A 
ATOM      3  C   UNL     1       2.184   1.911  20.876  0.00  0.00    +0.000 A 
ATOM      4  C   UNL     1       1.829   2.953  21.717  0.00  0.00    +0.000 A 
ATOM      5  C   UNL     1       1.901   4.275  21.261  0.00  0.00    +0.000 A 
ATOM      6  C   UNL     1       2.341   4.616  19.958  0.00  0.00    +0.000 A 
ENDROOT
BRANCH   6   7
ATOM      7  C   UNL     1       2.246   6.038  19.508  0.00  0.00    +0.000 A 
ATOM      8  C   UNL     1       2.563   6.426  18.194  0.00  0.00    +0.000 A 
ATOM      9  C   UNL     1       2.441   7.755  17.764  0.00  0.00    +0.000 A 
ATOM     10  C   UNL     1       1.945   8.739  18.625  0.00  0.00    +0.000 A 
ATOM     11  C   UNL     1       1.637   8.379  19.934  0.00  0.00    +0.000 A 
ATOM     12  C   UNL     1       1.854   7.073  20.377  0.00  0.00    +0.000 A 
BRANCH  10  13
ATOM     13  C   UNL     1       1.725  10.151  18.149  0.00  0.00    +0.000 C 
BRANCH  13  14
ATOM     14  N   UNL     1       0.393  10.623  18.496  0.00  0.00    +0.000 N 
ATOM     15  C   UNL     1       0.079  11.598  19.404  0.00  0.00    +0.000 A 
ATOM     16  C   UNL     1      -1.293  11.684  19.411  0.00  0.00    +0.000 A 
ATOM     17  C   UNL     1      -1.714  10.749  18.447  0.00  0.00    +0.000 A 
ATOM     18  N   UNL     1      -0.691  10.111  17.875  0.00  0.00    +0.000 NA
ENDBRANCH  13  14
ENDBRANCH  10  13
ENDBRANCH   6   7
BRANCH   1  20
ATOM     19  O   UNL     1       2.575   3.560  16.838  0.00  0.00    +0.000 OA
ATOM     20  C   UNL     1       3.366   3.653  17.778  0.00  0.00    +0.000 C 
ATOM     21  N   UNL     1       4.725   3.854  17.683  0.00  0.00    +0.000 N 
ATOM     22  H   UNL     1       5.255   3.899  18.547  0.00  0.00    +0.000 HD
BRANCH  21  23
ATOM     23  C   UNL     1       5.451   4.169  16.507  0.00  0.00    +0.000 A 
ATOM     24  C   UNL     1       5.009   3.845  15.219  0.00  0.00    +0.000 A 
ATOM     25  C   UNL     1       5.788   4.147  14.100  0.00  0.00    +0.000 A 
ATOM     26  C   UNL     1       7.010   4.790  14.253  0.00  0.00    +0.000 A 
ATOM     27  C   UNL     1       7.443   5.160  15.524  0.00  0.00    +0.000 A 
ATOM     28  C   UNL     1       6.663   4.855  16.645  0.00  0.00    +0.000 A 
ENDBRANCH  21  23
ENDBRANCH   1  20
TORSDOF 5
ENDMDL
MODEL 7
REMARK VINA RESULT:      -8.0      1.093      1.563
REMARK  Name = 
REMARK  5 active torsions:
REMARK  status: ('A' for Active; 'I' for Inactive)
REMARK    1  A    between atoms: C_2  and  C_10
REMARK    2  A    between atoms: N_3  and  C_4
REMARK    3  A    between atoms: C_15  and  C_16
REMARK    4  A    between atoms: C_19  and  C_20
REMARK    5  A    between atoms: C_20  and  N_21
REMARK                            x       y       z     vdW  Elec       q    Type
REMARK                         _______ _______ _______ _____ _____    ______ ____
ROOT
ATOM      1  C   UNL     1       2.781   3.594  19.192  0.00  0.00    +0.000 A 
ATOM      2  C   UNL     1       2.653   2.250  19.609  0.00  0.00    +0.000 A 
ATOM      3  C   UNL     1       2.087   1.925  20.835  0.00  0.00    +0.000 A 
ATOM      4  C   UNL     1       1.656   2.942  21.670  0.00  0.00    +0.000 A 
ATOM      5  C   UNL     1       1.733   4.275  21.247  0.00  0.00    +0.000 A 
ATOM      6  C   UNL     1       2.256   4.651  19.985  0.00  0.00    +0.000 A 
ENDROOT
BRANCH   6   7
ATOM      7  C   UNL     1       2.166   6.081  19.557  0.00  0.00    +0.000 A 
ATOM      8  C   UNL     1       2.436   6.482  18.236  0.00  0.00    +0.000 A 
ATOM      9  C   UNL     1       2.318   7.818  17.829  0.00  0.00    +0.000 A 
ATOM     10  C   UNL     1       1.873   8.797  18.723  0.00  0.00    +0.000 A 
ATOM     11  C   UNL     1       1.612   8.425  20.038  0.00  0.00    +0.000 A 
ATOM     12  C   UNL     1       1.825   7.109  20.455  0.00  0.00    +0.000 A 
BRANCH  10  13
ATOM     13  C   UNL     1       1.657  10.219  18.275  0.00  0.00    +0.000 C 
BRANCH  13  14
ATOM     14  N   UNL     1       0.268  10.620  18.441  0.00  0.00    +0.000 N 
ATOM     15  C   UNL     1      -0.832  10.015  17.893  0.00  0.00    +0.000 A 
ATOM     16  C   UNL     1      -1.917  10.751  18.304  0.00  0.00    +0.000 A 
ATOM     17  C   UNL     1      -1.375  11.757  19.126  0.00  0.00    +0.000 A 
ATOM     18  N   UNL     1      -0.047  11.672  19.226  0.00  0.00    +0.000 NA
ENDBRANCH  13  14
ENDBRANCH  10  13
ENDBRANCH   6   7
BRANCH   1  20
ATOM     19  O   UNL     1       2.729   3.632  16.867  0.00  0.00    +0.000 OA
ATOM     20  C   UNL     1       3.447   3.752  17.861  0.00  0.00    +0.000 C 
ATOM     21  N   UNL     1       4.799   4.015  17.866  0.00  0.00    +0.000 N 
ATOM     22  H   UNL     1       5.262   4.076  18.766  0.00  0.00    +0.000 HD
BRANCH  21  23
ATOM     23  C   UNL     1       5.592   4.373  16.747  0.00  0.00    +0.000 A 
ATOM     24  C   UNL     1       6.422   5.499  16.721  0.00  0.00    +0.000 A 
ATOM     25  C   UNL     1       7.150   5.822  15.574  0.00  0.00    +0.000 A 
ATOM     26  C   UNL     1       7.070   5.016  14.446  0.00  0.00    +0.000 A 
ATOM     27  C   UNL     1       6.283   3.867  14.471  0.00  0.00    +0.000 A 
ATOM     28  C   UNL     1       5.552   3.545  15.620  0.00  0.00    +0.000 A 
ENDBRANCH  21  23
ENDBRANCH   1  20
TORSDOF 5
ENDMDL
MODEL 8
REMARK VINA RESULT:      -7.9      2.916      8.090
REMARK  Name = 
REMARK  5 active torsions:
REMARK  status: ('A' for Active; 'I' for Inactive)
REMARK    1  A    between atoms: C_2  and  C_10
REMARK    2  A    between atoms: N_3  and  C_4
REMARK    3  A    between atoms: C_15  and  C_16
REMARK    4  A    between atoms: C_19  and  C_20
REMARK    5  A    between atoms: C_20  and  N_21
REMARK                            x       y       z     vdW  Elec       q    Type
REMARK                         _______ _______ _______ _____ _____    ______ ____
ROOT
ATOM      1  C   UNL     1      -0.512  10.301  20.700  0.00  0.00    +0.000 A 
ATOM      2  C   UNL     1      -1.163  11.083  21.680  0.00  0.00    +0.000 A 
ATOM      3  C   UNL     1      -0.961  10.859  23.035  0.00  0.00    +0.000 A 
ATOM      4  C   UNL     1      -0.115   9.836  23.431  0.00  0.00    +0.000 A 
ATOM      5  C   UNL     1       0.573   9.086  22.469  0.00  0.00    +0.000 A 
ATOM      6  C   UNL     1       0.436   9.311  21.077  0.00  0.00    +0.000 A 
ENDROOT
BRANCH   6   7
ATOM      7  C   UNL     1       1.319   8.563  20.130  0.00  0.00    +0.000 A 
ATOM      8  C   UNL     1       1.814   7.280  20.428  0.00  0.00    +0.000 A 
ATOM      9  C   UNL     1       2.614   6.566  19.526  0.00  0.00    +0.000 A 
ATOM     10  C   UNL     1       2.904   7.092  18.263  0.00  0.00    +0.000 A 
ATOM     11  C   UNL     1       2.435   8.365  17.951  0.00  0.00    +0.000 A 
ATOM     12  C   UNL     1       1.720   9.106  18.895  0.00  0.00    +0.000 A 
BRANCH  10  13
ATOM     13  C   UNL     1       3.688   6.299  17.250  0.00  0.00    +0.000 C 
BRANCH  13  14
ATOM     14  N   UNL     1       5.099   6.246  17.598  0.00  0.00    +0.000 N 
ATOM     15  C   UNL     1       6.084   7.091  17.163  0.00  0.00    +0.000 A 
ATOM     16  C   UNL     1       7.252   6.641  17.731  0.00  0.00    +0.000 A 
ATOM     17  C   UNL     1       6.864   5.544  18.523  0.00  0.00    +0.000 A 
ATOM     18  N   UNL     1       5.552   5.308  18.459  0.00  0.00    +0.000 NA
ENDBRANCH  13  14
ENDBRANCH  10  13
ENDBRANCH   6   7
BRANCH   1  20
ATOM     19  O   UNL     1      -0.060  11.331  18.664  0.00  0.00    +0.000 OA
ATOM     20  C   UNL     1      -0.880  10.662  19.296  0.00  0.00    +0.000 C 
ATOM     21  N   UNL     1      -2.100  10.219  18.835  0.00  0.00    +0.000 N 
ATOM     22  H   UNL     1      -2.678   9.684  19.475  0.00  0.00    +0.000 HD
BRANCH  21  23
ATOM     23  C   UNL     1      -2.573  10.289  17.501  0.00  0.00    +0.000 A 
ATOM     24  C   UNL     1      -2.016   9.557  16.446  0.00  0.00    +0.000 A 
ATOM     25  C   UNL     1      -2.501   9.699  15.145  0.00  0.00    +0.000 A 
ATOM     26  C   UNL     1      -3.560  10.559  14.884  0.00  0.00    +0.000 A 
ATOM     27  C   UNL     1      -4.155  11.260  15.930  0.00  0.00    +0.000 A 
ATOM     28  C   UNL     1      -3.667  11.120  17.234  0.00  0.00    +0.000 A 
ENDBRANCH  21  23
ENDBRANCH   1  20
TORSDOF 5
ENDMDL
MODEL 9
REMARK VINA RESULT:      -7.9      2.817      8.085
REMARK  Name = 
REMARK  5 active torsions:
REMARK  status: ('A' for Active; 'I' for Inactive)
REMARK    1  A    between atoms: C_2  and  C_10
REMARK    2  A    between atoms: N_3  and  C_4
REMARK    3  A    between atoms: C_15  and  C_16
REMARK    4  A    between atoms: C_19  and  C_20
REMARK    5  A    between atoms: C_20  and  N_21
REMARK                            x       y       z     vdW  Elec       q    Type
REMARK                         _______ _______ _______ _____ _____    ______ ____
ROOT
ATOM      1  C   UNL     1      -0.466  10.330  20.744  0.00  0.00    +0.000 A 
ATOM      2  C   UNL     1      -1.036  11.160  21.735  0.00  0.00    +0.000 A 
ATOM      3  C   UNL     1      -0.820  10.925  23.087  0.00  0.00    +0.000 A 
ATOM      4  C   UNL     1      -0.044   9.842  23.468  0.00  0.00    +0.000 A 
ATOM      5  C   UNL     1       0.564   9.040  22.494  0.00  0.00    +0.000 A 
ATOM      6  C   UNL     1       0.414   9.273  21.104  0.00  0.00    +0.000 A 
ENDROOT
BRANCH   6   7
ATOM      7  C   UNL     1       1.216   8.458  20.140  0.00  0.00    +0.000 A 
ATOM      8  C   UNL     1       1.567   8.943  18.868  0.00  0.00    +0.000 A 
ATOM      9  C   UNL     1       2.347   8.191  17.978  0.00  0.00    +0.000 A 
ATOM     10  C   UNL     1       2.850   6.942  18.354  0.00  0.00    +0.000 A 
ATOM     11  C   UNL     1       2.504   6.437  19.604  0.00  0.00    +0.000 A 
ATOM     12  C   UNL     1       1.648   7.154  20.443  0.00  0.00    +0.000 A 
BRANCH  10  13
ATOM     13  C   UNL     1       3.762   6.163  17.442  0.00  0.00    +0.000 C 
BRANCH  13  14
ATOM     14  N   UNL     1       3.588   4.730  17.620  0.00  0.00    +0.000 N 
ATOM     15  C   UNL     1       4.474   3.861  18.198  0.00  0.00    +0.000 A 
ATOM     16  C   UNL     1       3.894   2.617  18.121  0.00  0.00    +0.000 A 
ATOM     17  C   UNL     1       2.644   2.844  17.515  0.00  0.00    +0.000 A 
ATOM     18  N   UNL     1       2.445   4.130  17.223  0.00  0.00    +0.000 NA
ENDBRANCH  13  14
ENDBRANCH  10  13
ENDBRANCH   6   7
BRANCH   1  20
ATOM     19  O   UNL     1       0.002  11.349  18.708  0.00  0.00    +0.000 OA
ATOM     20  C   UNL     1      -0.838  10.715  19.347  0.00  0.00    +0.000 C 
ATOM     21  N   UNL     1      -2.082  10.329  18.902  0.00  0.00    +0.000 N 
ATOM     22  H   UNL     1      -2.675   9.817  19.548  0.00  0.00    +0.000 HD
BRANCH  21  23
ATOM     23  C   UNL     1      -2.571  10.427  17.575  0.00  0.00    +0.000 A 
ATOM     24  C   UNL     1      -3.600  11.297  17.196  0.00  0.00    +0.000 A 
ATOM     25  C   UNL     1      -4.065  11.320  15.880  0.00  0.00    +0.000 A 
ATOM     26  C   UNL     1      -3.498  10.488  14.923  0.00  0.00    +0.000 A 
ATOM     27  C   UNL     1      -2.443   9.649  15.275  0.00  0.00    +0.000 A 
ATOM     28  C   UNL     1      -1.978   9.624  16.594  0.00  0.00    +0.000 A 
ENDBRANCH  21  23
ENDBRANCH   1  20
TORSDOF 5
ENDMDL
