MODEL 1
REMARK VINA RESULT:      -8.3      0.000      0.000
REMARK  Name = 
REMARK  4 active torsions:
REMARK  status: ('A' for Active; 'I' for Inactive)
REMARK    1  A    between atoms: C_1  and  C_2
REMARK    2  A    between atoms: C_4  and  C_5
REMARK    3  A    between atoms: N_17  and  C_18
REMARK    4  A    between atoms: N_20  and  C_21
REMARK                            x       y       z     vdW  Elec       q    Type
REMARK                         _______ _______ _______ _____ _____    ______ ____
ROOT
ATOM      1  C   UNL     1       2.459   6.754  19.139  0.00  0.00    +0.000 C 
ATOM      2  O   UNL     1       2.136   6.357  18.041  0.00  0.00    +0.000 OA
ATOM      3  N   UNL     1       3.535   6.286  19.890  0.00  0.00    +0.000 N 
ATOM      4  C   UNL     1       4.395   5.377  19.291  0.00  0.00    +0.000 A 
ATOM      5  N   UNL     1       5.698   5.468  19.240  0.00  0.00    +0.000 NA
ATOM      6  C   UNL     1       6.014   4.808  18.074  0.00  0.00    +0.000 A 
ATOM      7  C   UNL     1       7.183   4.746  17.316  0.00  0.00    +0.000 A 
ATOM      8  C   UNL     1       7.005   4.557  15.954  0.00  0.00    +0.000 A 
ATOM      9  F   UNL     1       7.870   5.112  15.086  0.00  0.00    +0.000 F 
ATOM     10  C   UNL     1       5.898   3.876  15.473  0.00  0.00    +0.000 A 
ATOM     11  C   UNL     1       4.882   3.476  16.345  0.00  0.00    +0.000 A 
ATOM     12  C   UNL     1       4.896   4.119  17.570  0.00  0.00    +0.000 A 
ATOM     13  N   UNL     1       3.999   4.263  18.581  0.00  0.00    +0.000 N 
ATOM     14  C   UNL     1       2.915   3.412  18.959  0.00  0.00    +0.000 C 
ATOM     15  H   UNL     1       3.948   6.968  20.532  0.00  0.00    +0.000 HD
ENDROOT
BRANCH   1  19
ATOM     16  C   UNL     1       0.225   9.780  22.568  0.00  0.00    +0.000 C 
ATOM     17  C   UNL     1       0.847   9.195  21.355  0.00  0.00    +0.000 A 
ATOM     18  C   UNL     1       1.398   7.948  21.175  0.00  0.00    +0.000 A 
ATOM     19  C   UNL     1       1.709   7.851  19.793  0.00  0.00    +0.000 A 
ATOM     20  N   UNL     1       1.277   8.940  19.142  0.00  0.00    +0.000 NA
ATOM     21  N   UNL     1       0.930   9.822  20.116  0.00  0.00    +0.000 N 
BRANCH  21  22
ATOM     22  C   UNL     1       0.748  11.188  19.798  0.00  0.00    +0.000 A 
ATOM     23  C   UNL     1      -0.221  11.543  18.850  0.00  0.00    +0.000 A 
ATOM     24  C   UNL     1      -0.423  12.884  18.527  0.00  0.00    +0.000 A 
ATOM     25  C   UNL     1       0.377  13.871  19.108  0.00  0.00    +0.000 A 
ATOM     26  C   UNL     1       1.362  13.516  20.023  0.00  0.00    +0.000 A 
ATOM     27  C   UNL     1       1.563  12.185  20.372  0.00  0.00    +0.000 A 
ENDBRANCH  21  22
ENDBRANCH   1  19
TORSDOF 2
ENDMDL
MODEL 2
REMARK VINA RESULT:      -8.0      0.936      1.376
REMARK  Name = 
REMARK  4 active torsions:
REMARK  status: ('A' for Active; 'I' for Inactive)
REMARK    1  A    between atoms: C_1  and  C_2
REMARK    2  A    between atoms: C_4  and  C_5
REMARK    3  A    between atoms: N_17  and  C_18
REMARK    4  A    between atoms: N_20  and  C_21
REMARK                            x       y       z     vdW  Elec       q    Type
REMARK                         _______ _______ _______ _____ _____    ______ ____
ROOT
ATOM      1  C   UNL     1       2.041   7.515  18.996  0.00  0.00    +0.000 C 
ATOM      2  O   UNL     1       1.971   7.319  17.802  0.00  0.00    +0.000 OA
ATOM      3  N   UNL     1       2.727   6.722  19.914  0.00  0.00    +0.000 N 
ATOM      4  C   UNL     1       3.507   5.687  19.417  0.00  0.00    +0.000 A 
ATOM      5  N   UNL     1       4.756   5.452  19.720  0.00  0.00    +0.000 NA
ATOM      6  C   UNL     1       5.246   4.848  18.584  0.00  0.00    +0.000 A 
ATOM      7  C   UNL     1       6.542   4.567  18.153  0.00  0.00    +0.000 A 
ATOM      8  C   UNL     1       6.729   4.560  16.779  0.00  0.00    +0.000 A 
ATOM      9  F   UNL     1       7.906   4.959  16.265  0.00  0.00    +0.000 F 
ATOM     10  C   UNL     1       5.689   4.228  15.925  0.00  0.00    +0.000 A 
ATOM     11  C   UNL     1       4.403   4.015  16.429  0.00  0.00    +0.000 A 
ATOM     12  C   UNL     1       4.200   4.514  17.703  0.00  0.00    +0.000 A 
ATOM     13  N   UNL     1       3.102   4.782  18.458  0.00  0.00    +0.000 N 
ATOM     14  C   UNL     1       1.799   4.199  18.402  0.00  0.00    +0.000 C 
ATOM     15  H   UNL     1       3.072   7.214  20.741  0.00  0.00    +0.000 HD
ENDROOT
BRANCH   1  19
ATOM     16  C   UNL     1      -0.080  10.782  22.272  0.00  0.00    +0.000 C 
ATOM     17  C   UNL     1       0.570  10.131  21.110  0.00  0.00    +0.000 A 
ATOM     18  C   UNL     1       0.961   8.821  20.951  0.00  0.00    +0.000 A 
ATOM     19  C   UNL     1       1.387   8.698  19.603  0.00  0.00    +0.000 A 
ATOM     20  N   UNL     1       1.173   9.843  18.942  0.00  0.00    +0.000 NA
ATOM     21  N   UNL     1       0.858  10.755  19.899  0.00  0.00    +0.000 N 
BRANCH  21  22
ATOM     22  C   UNL     1       0.896  12.136  19.599  0.00  0.00    +0.000 A 
ATOM     23  C   UNL     1       1.995  12.894  20.025  0.00  0.00    +0.000 A 
ATOM     24  C   UNL     1       2.057  14.256  19.734  0.00  0.00    +0.000 A 
ATOM     25  C   UNL     1       0.999  14.877  19.066  0.00  0.00    +0.000 A 
ATOM     26  C   UNL     1      -0.108  14.132  18.674  0.00  0.00    +0.000 A 
ATOM     27  C   UNL     1      -0.177  12.768  18.938  0.00  0.00    +0.000 A 
ENDBRANCH  21  22
ENDBRANCH   1  19
TORSDOF 2
ENDMDL
MODEL 3
REMARK VINA RESULT:      -7.9      1.154      1.318
REMARK  Name = 
REMARK  4 active torsions:
REMARK  status: ('A' for Active; 'I' for Inactive)
REMARK    1  A    between atoms: C_1  and  C_2
REMARK    2  A    between atoms: C_4  and  C_5
REMARK    3  A    between atoms: N_17  and  C_18
REMARK    4  A    between atoms: N_20  and  C_21
REMARK                            x       y       z     vdW  Elec       q    Type
REMARK                         _______ _______ _______ _____ _____    ______ ____
ROOT
ATOM      1  C   UNL     1       1.989   7.747  19.000  0.00  0.00    +0.000 C 
ATOM      2  O   UNL     1       2.144   7.712  17.798  0.00  0.00    +0.000 OA
ATOM      3  N   UNL     1       2.413   6.774  19.903  0.00  0.00    +0.000 N 
ATOM      4  C   UNL     1       3.191   5.734  19.416  0.00  0.00    +0.000 A 
ATOM      5  N   UNL     1       4.332   5.330  19.909  0.00  0.00    +0.000 NA
ATOM      6  C   UNL     1       4.989   4.827  18.808  0.00  0.00    +0.000 A 
ATOM      7  C   UNL     1       6.318   4.466  18.591  0.00  0.00    +0.000 A 
ATOM      8  C   UNL     1       6.774   4.614  17.290  0.00  0.00    +0.000 A 
ATOM      9  F   UNL     1       8.058   4.948  17.068  0.00  0.00    +0.000 F 
ATOM     10  C   UNL     1       5.902   4.507  16.217  0.00  0.00    +0.000 A 
ATOM     11  C   UNL     1       4.529   4.370  16.436  0.00  0.00    +0.000 A 
ATOM     12  C   UNL     1       4.116   4.721  17.709  0.00  0.00    +0.000 A 
ATOM     13  N   UNL     1       2.915   5.007  18.277  0.00  0.00    +0.000 N 
ATOM     14  C   UNL     1       1.607   4.578  17.894  0.00  0.00    +0.000 C 
ATOM     15  H   UNL     1       2.624   7.117  20.844  0.00  0.00    +0.000 HD
ENDROOT
BRANCH   1  19
ATOM     16  C   UNL     1      -0.228  10.870  22.351  0.00  0.00    +0.000 C 
ATOM     17  C   UNL     1       0.462  10.270  21.183  0.00  0.00    +0.000 A 
ATOM     18  C   UNL     1       0.845   8.966  20.974  0.00  0.00    +0.000 A 
ATOM     19  C   UNL     1       1.324   8.905  19.640  0.00  0.00    +0.000 A 
ATOM     20  N   UNL     1       1.149  10.085  19.029  0.00  0.00    +0.000 NA
ATOM     21  N   UNL     1       0.805  10.951  20.019  0.00  0.00    +0.000 N 
BRANCH  21  22
ATOM     22  C   UNL     1       0.870  12.345  19.791  0.00  0.00    +0.000 A 
ATOM     23  C   UNL     1      -0.100  12.947  18.978  0.00  0.00    +0.000 A 
ATOM     24  C   UNL     1      -0.061  14.321  18.746  0.00  0.00    +0.000 A 
ATOM     25  C   UNL     1       0.976  15.090  19.280  0.00  0.00    +0.000 A 
ATOM     26  C   UNL     1       1.958  14.487  20.059  0.00  0.00    +0.000 A 
ATOM     27  C   UNL     1       1.923  13.121  20.317  0.00  0.00    +0.000 A 
ENDBRANCH  21  22
ENDBRANCH   1  19
TORSDOF 2
ENDMDL
MODEL 4
REMARK VINA RESULT:      -7.8      3.949      9.139
REMARK  Name = 
REMARK  4 active torsions:
REMARK  status: ('A' for Active; 'I' for Inactive)
REMARK    1  A    between atoms: C_1  and  C_2
REMARK    2  A    between atoms: C_4  and  C_5
REMARK    3  A    between atoms: N_17  and  C_18
REMARK    4  A    between atoms: N_20  and  C_21
REMARK                            x       y       z     vdW  Elec       q    Type
REMARK                         _______ _______ _______ _____ _____    ______ ____
ROOT
ATOM      1  C   UNL     1       0.924   9.096  20.492  0.00  0.00    +0.000 C 
ATOM      2  O   UNL     1       0.360   9.604  19.547  0.00  0.00    +0.000 OA
ATOM      3  N   UNL     1       1.004   9.629  21.776  0.00  0.00    +0.000 N 
ATOM      4  C   UNL     1       0.274  10.778  22.046  0.00  0.00    +0.000 A 
ATOM      5  N   UNL     1      -0.542  10.953  23.052  0.00  0.00    +0.000 NA
ATOM      6  C   UNL     1      -1.461  11.852  22.560  0.00  0.00    +0.000 A 
ATOM      7  C   UNL     1      -2.708  12.270  23.022  0.00  0.00    +0.000 A 
ATOM      8  C   UNL     1      -3.614  12.651  22.043  0.00  0.00    +0.000 A 
ATOM      9  F   UNL     1      -4.927  12.432  22.231  0.00  0.00    +0.000 F 
ATOM     10  C   UNL     1      -3.174  13.175  20.838  0.00  0.00    +0.000 A 
ATOM     11  C   UNL     1      -1.809  13.213  20.541  0.00  0.00    +0.000 A 
ATOM     12  C   UNL     1      -1.031  12.385  21.330  0.00  0.00    +0.000 A 
ATOM     13  N   UNL     1       0.235  11.898  21.241  0.00  0.00    +0.000 N 
ATOM     14  C   UNL     1       1.371  12.443  20.568  0.00  0.00    +0.000 C 
ATOM     15  H   UNL     1       1.090   8.942  22.529  0.00  0.00    +0.000 HD
ENDROOT
BRANCH   1  19
ATOM     16  C   UNL     1       2.162   4.178  20.927  0.00  0.00    +0.000 C 
ATOM     17  C   UNL     1       2.008   5.589  20.499  0.00  0.00    +0.000 A 
ATOM     18  C   UNL     1       1.258   6.595  21.064  0.00  0.00    +0.000 A 
ATOM     19  C   UNL     1       1.586   7.778  20.352  0.00  0.00    +0.000 A 
ATOM     20  N   UNL     1       2.560   7.532  19.466  0.00  0.00    +0.000 NA
ATOM     21  N   UNL     1       2.676   6.179  19.429  0.00  0.00    +0.000 N 
BRANCH  21  22
ATOM     22  C   UNL     1       3.371   5.558  18.365  0.00  0.00    +0.000 A 
ATOM     23  C   UNL     1       4.391   6.265  17.715  0.00  0.00    +0.000 A 
ATOM     24  C   UNL     1       5.095   5.670  16.669  0.00  0.00    +0.000 A 
ATOM     25  C   UNL     1       4.747   4.389  16.233  0.00  0.00    +0.000 A 
ATOM     26  C   UNL     1       3.711   3.701  16.856  0.00  0.00    +0.000 A 
ATOM     27  C   UNL     1       3.013   4.271  17.914  0.00  0.00    +0.000 A 
ENDBRANCH  21  22
ENDBRANCH   1  19
TORSDOF 2
ENDMDL
MODEL 5
REMARK VINA RESULT:      -7.7      3.027      8.481
REMARK  Name = 
REMARK  4 active torsions:
REMARK  status: ('A' for Active; 'I' for Inactive)
REMARK    1  A    between atoms: C_1  and  C_2
REMARK    2  A    between atoms: C_4  and  C_5
REMARK    3  A    between atoms: N_17  and  C_18
REMARK    4  A    between atoms: N_20  and  C_21
REMARK                            x       y       z     vdW  Elec       q    Type
REMARK                         _______ _______ _______ _____ _____    ______ ____
ROOT
ATOM      1  C   UNL     1       1.956   8.358  18.785  0.00  0.00    +0.000 C 
ATOM      2  O   UNL     1       1.421   8.521  19.860  0.00  0.00    +0.000 OA
ATOM      3  N   UNL     1       2.110   9.328  17.797  0.00  0.00    +0.000 N 
ATOM      4  C   UNL     1       1.738  10.629  18.104  0.00  0.00    +0.000 A 
ATOM      5  N   UNL     1       2.468  11.700  17.932  0.00  0.00    +0.000 NA
ATOM      6  C   UNL     1       2.023  12.546  18.923  0.00  0.00    +0.000 A 
ATOM      7  C   UNL     1       2.534  13.734  19.444  0.00  0.00    +0.000 A 
ATOM      8  C   UNL     1       2.244  13.978  20.778  0.00  0.00    +0.000 A 
ATOM      9  F   UNL     1       3.134  14.635  21.543  0.00  0.00    +0.000 F 
ATOM     10  C   UNL     1       1.087  13.476  21.354  0.00  0.00    +0.000 A 
ATOM     11  C   UNL     1       0.256  12.615  20.633  0.00  0.00    +0.000 A 
ATOM     12  C   UNL     1       0.853  12.044  19.523  0.00  0.00    +0.000 A 
ATOM     13  N   UNL     1       0.556  10.989  18.718  0.00  0.00    +0.000 N 
ATOM     14  C   UNL     1      -0.712  10.398  18.429  0.00  0.00    +0.000 C 
ATOM     15  H   UNL     1       2.924   9.206  17.189  0.00  0.00    +0.000 HD
ENDROOT
BRANCH   1  19
ATOM     16  C   UNL     1       2.605   3.457  17.575  0.00  0.00    +0.000 C 
ATOM     17  C   UNL     1       2.755   4.917  17.792  0.00  0.00    +0.000 A 
ATOM     18  C   UNL     1       1.846   5.821  18.289  0.00  0.00    +0.000 A 
ATOM     19  C   UNL     1       2.547   7.047  18.429  0.00  0.00    +0.000 A 
ATOM     20  N   UNL     1       3.843   6.879  18.132  0.00  0.00    +0.000 NA
ATOM     21  N   UNL     1       3.921   5.644  17.570  0.00  0.00    +0.000 N 
BRANCH  21  22
ATOM     22  C   UNL     1       5.073   5.273  16.838  0.00  0.00    +0.000 A 
ATOM     23  C   UNL     1       6.229   4.895  17.534  0.00  0.00    +0.000 A 
ATOM     24  C   UNL     1       7.374   4.518  16.833  0.00  0.00    +0.000 A 
ATOM     25  C   UNL     1       7.386   4.569  15.438  0.00  0.00    +0.000 A 
ATOM     26  C   UNL     1       6.250   4.977  14.747  0.00  0.00    +0.000 A 
ATOM     27  C   UNL     1       5.093   5.336  15.429  0.00  0.00    +0.000 A 
ENDBRANCH  21  22
ENDBRANCH   1  19
TORSDOF 2
ENDMDL
MODEL 6
REMARK VINA RESULT:      -7.6      3.333      8.819
REMARK  Name = 
REMARK  4 active torsions:
REMARK  status: ('A' for Active; 'I' for Inactive)
REMARK    1  A    between atoms: C_1  and  C_2
REMARK    2  A    between atoms: C_4  and  C_5
REMARK    3  A    between atoms: N_17  and  C_18
REMARK    4  A    between atoms: N_20  and  C_21
REMARK                            x       y       z     vdW  Elec       q    Type
REMARK                         _______ _______ _______ _____ _____    ______ ____
ROOT
ATOM      1  C   UNL     1       1.740   8.895  18.640  0.00  0.00    +0.000 C 
ATOM      2  O   UNL     1       1.218   8.802  19.730  0.00  0.00    +0.000 OA
ATOM      3  N   UNL     1       1.687  10.009  17.805  0.00  0.00    +0.000 N 
ATOM      4  C   UNL     1       1.099  11.163  18.303  0.00  0.00    +0.000 A 
ATOM      5  N   UNL     1       1.620  12.362  18.287  0.00  0.00    +0.000 NA
ATOM      6  C   UNL     1       1.063  12.962  19.394  0.00  0.00    +0.000 A 
ATOM      7  C   UNL     1       1.370  14.135  20.081  0.00  0.00    +0.000 A 
ATOM      8  C   UNL     1       1.084  14.128  21.438  0.00  0.00    +0.000 A 
ATOM      9  F   UNL     1       1.865  14.818  22.287  0.00  0.00    +0.000 F 
ATOM     10  C   UNL     1       0.053  13.347  21.939  0.00  0.00    +0.000 A 
ATOM     11  C   UNL     1      -0.633  12.463  21.103  0.00  0.00    +0.000 A 
ATOM     12  C   UNL     1       0.021  12.175  19.919  0.00  0.00    +0.000 A 
ATOM     13  N   UNL     1      -0.108  11.212  18.969  0.00  0.00    +0.000 N 
ATOM     14  C   UNL     1      -1.260  10.449  18.602  0.00  0.00    +0.000 C 
ATOM     15  H   UNL     1       2.490  10.125  17.182  0.00  0.00    +0.000 HD
ENDROOT
BRANCH   1  19
ATOM     16  C   UNL     1       5.450   6.114  16.542  0.00  0.00    +0.000 C 
ATOM     17  C   UNL     1       4.252   6.597  17.270  0.00  0.00    +0.000 A 
ATOM     18  C   UNL     1       3.811   7.886  17.464  0.00  0.00    +0.000 A 
ATOM     19  C   UNL     1       2.543   7.778  18.092  0.00  0.00    +0.000 A 
ATOM     20  N   UNL     1       2.179   6.492  18.186  0.00  0.00    +0.000 NA
ATOM     21  N   UNL     1       3.291   5.782  17.861  0.00  0.00    +0.000 N 
BRANCH  21  22
ATOM     22  C   UNL     1       3.366   4.405  18.175  0.00  0.00    +0.000 A 
ATOM     23  C   UNL     1       2.615   3.494  17.420  0.00  0.00    +0.000 A 
ATOM     24  C   UNL     1       2.680   2.131  17.706  0.00  0.00    +0.000 A 
ATOM     25  C   UNL     1       3.450   1.678  18.780  0.00  0.00    +0.000 A 
ATOM     26  C   UNL     1       4.168   2.587  19.551  0.00  0.00    +0.000 A 
ATOM     27  C   UNL     1       4.132   3.947  19.267  0.00  0.00    +0.000 A 
ENDBRANCH  21  22
ENDBRANCH   1  19
TORSDOF 2
ENDMDL
MODEL 7
REMARK VINA RESULT:      -7.5      1.714      2.701
REMARK  Name = 
REMARK  4 active torsions:
REMARK  status: ('A' for Active; 'I' for Inactive)
REMARK    1  A    between atoms: C_1  and  C_2
REMARK    2  A    between atoms: C_4  and  C_5
REMARK    3  A    between atoms: N_17  and  C_18
REMARK    4  A    between atoms: N_20  and  C_21
REMARK                            x       y       z     vdW  Elec       q    Type
REMARK                         _______ _______ _______ _____ _____    ______ ____
ROOT
ATOM      1  C   UNL     1       2.205   8.166  18.448  0.00  0.00    +0.000 C 
ATOM      2  O   UNL     1       2.333   7.936  17.265  0.00  0.00    +0.000 OA
ATOM      3  N   UNL     1       2.527   7.296  19.487  0.00  0.00    +0.000 N 
ATOM      4  C   UNL     1       3.168   6.109  19.161  0.00  0.00    +0.000 A 
ATOM      5  N   UNL     1       4.263   5.650  19.708  0.00  0.00    +0.000 NA
ATOM      6  C   UNL     1       4.836   4.914  18.696  0.00  0.00    +0.000 A 
ATOM      7  C   UNL     1       6.109   4.369  18.534  0.00  0.00    +0.000 A 
ATOM      8  C   UNL     1       6.556   4.267  17.226  0.00  0.00    +0.000 A 
ATOM      9  F   UNL     1       7.866   4.409  16.957  0.00  0.00    +0.000 F 
ATOM     10  C   UNL     1       5.658   4.106  16.182  0.00  0.00    +0.000 A 
ATOM     11  C   UNL     1       4.283   4.168  16.419  0.00  0.00    +0.000 A 
ATOM     12  C   UNL     1       3.937   4.751  17.625  0.00  0.00    +0.000 A 
ATOM     13  N   UNL     1       2.788   5.259  18.143  0.00  0.00    +0.000 N 
ATOM     14  C   UNL     1       1.432   4.937  17.829  0.00  0.00    +0.000 C 
ATOM     15  H   UNL     1       2.794   7.746  20.366  0.00  0.00    +0.000 HD
ENDROOT
BRANCH   1  19
ATOM     16  C   UNL     1       0.792  13.050  18.685  0.00  0.00    +0.000 C 
ATOM     17  C   UNL     1       0.989  11.598  18.911  0.00  0.00    +0.000 A 
ATOM     18  C   UNL     1       1.710  10.691  18.171  0.00  0.00    +0.000 A 
ATOM     19  C   UNL     1       1.693   9.478  18.908  0.00  0.00    +0.000 A 
ATOM     20  N   UNL     1       1.081   9.659  20.086  0.00  0.00    +0.000 NA
ATOM     21  N   UNL     1       0.498  10.883  20.000  0.00  0.00    +0.000 N 
BRANCH  21  22
ATOM     22  C   UNL     1      -0.503  11.256  20.928  0.00  0.00    +0.000 A 
ATOM     23  C   UNL     1      -0.420  10.781  22.244  0.00  0.00    +0.000 A 
ATOM     24  C   UNL     1      -1.390  11.141  23.178  0.00  0.00    +0.000 A 
ATOM     25  C   UNL     1      -2.475  11.931  22.789  0.00  0.00    +0.000 A 
ATOM     26  C   UNL     1      -2.575  12.373  21.474  0.00  0.00    +0.000 A 
ATOM     27  C   UNL     1      -1.606  12.041  20.535  0.00  0.00    +0.000 A 
ENDBRANCH  21  22
ENDBRANCH   1  19
TORSDOF 2
ENDMDL
MODEL 8
REMARK VINA RESULT:      -7.4      1.907      2.666
REMARK  Name = 
REMARK  4 active torsions:
REMARK  status: ('A' for Active; 'I' for Inactive)
REMARK    1  A    between atoms: C_1  and  C_2
REMARK    2  A    between atoms: C_4  and  C_5
REMARK    3  A    between atoms: N_17  and  C_18
REMARK    4  A    between atoms: N_20  and  C_21
REMARK                            x       y       z     vdW  Elec       q    Type
REMARK                         _______ _______ _______ _____ _____    ______ ____
ROOT
ATOM      1  C   UNL     1       2.096   8.304  18.250  0.00  0.00    +0.000 C 
ATOM      2  O   UNL     1       2.356   8.050  17.094  0.00  0.00    +0.000 OA
ATOM      3  N   UNL     1       2.318   7.463  19.338  0.00  0.00    +0.000 N 
ATOM      4  C   UNL     1       3.012   6.283  19.113  0.00  0.00    +0.000 A 
ATOM      5  N   UNL     1       4.049   5.858  19.787  0.00  0.00    +0.000 NA
ATOM      6  C   UNL     1       4.742   5.112  18.860  0.00  0.00    +0.000 A 
ATOM      7  C   UNL     1       6.034   4.590  18.852  0.00  0.00    +0.000 A 
ATOM      8  C   UNL     1       6.624   4.468  17.602  0.00  0.00    +0.000 A 
ATOM      9  F   UNL     1       7.952   4.631  17.474  0.00  0.00    +0.000 F 
ATOM     10  C   UNL     1       5.848   4.266  16.471  0.00  0.00    +0.000 A 
ATOM     11  C   UNL     1       4.454   4.305  16.556  0.00  0.00    +0.000 A 
ATOM     12  C   UNL     1       3.969   4.907  17.702  0.00  0.00    +0.000 A 
ATOM     13  N   UNL     1       2.761   5.403  18.081  0.00  0.00    +0.000 N 
ATOM     14  C   UNL     1       1.453   5.046  17.629  0.00  0.00    +0.000 C 
ATOM     15  H   UNL     1       2.480   7.938  20.230  0.00  0.00    +0.000 HD
ENDROOT
BRANCH   1  19
ATOM     16  C   UNL     1       1.227  13.290  18.778  0.00  0.00    +0.000 C 
ATOM     17  C   UNL     1       1.127  11.812  18.719  0.00  0.00    +0.000 A 
ATOM     18  C   UNL     1       2.078  10.889  18.353  0.00  0.00    +0.000 A 
ATOM     19  C   UNL     1       1.513   9.615  18.619  0.00  0.00    +0.000 A 
ATOM     20  N   UNL     1       0.319   9.750  19.212  0.00  0.00    +0.000 NA
ATOM     21  N   UNL     1       0.012  11.069  19.097  0.00  0.00    +0.000 N 
BRANCH  21  22
ATOM     22  C   UNL     1      -1.315  11.507  19.313  0.00  0.00    +0.000 A 
ATOM     23  C   UNL     1      -2.283  11.256  18.331  0.00  0.00    +0.000 A 
ATOM     24  C   UNL     1      -3.599  11.672  18.526  0.00  0.00    +0.000 A 
ATOM     25  C   UNL     1      -3.943  12.386  19.676  0.00  0.00    +0.000 A 
ATOM     26  C   UNL     1      -2.975  12.666  20.635  0.00  0.00    +0.000 A 
ATOM     27  C   UNL     1      -1.662  12.241  20.466  0.00  0.00    +0.000 A 
ENDBRANCH  21  22
ENDBRANCH   1  19
TORSDOF 2
ENDMDL
