MODEL 1
REMARK VINA RESULT:      -8.3      0.000      0.000
REMARK  Name = 
REMARK  4 active torsions:
REMARK  status: ('A' for Active; 'I' for Inactive)
REMARK    1  A    between atoms: C_1  and  C_2
REMARK    2  A    between atoms: C_5  and  C_6
REMARK    3  A    between atoms: C_12  and  C_13
REMARK    4  A    between atoms: N_15  and  C_16
REMARK                            x       y       z     vdW  Elec       q    Type
REMARK                         _______ _______ _______ _____ _____    ______ ____
ROOT
ATOM      1  C   UNL     1       0.158  10.260  18.702  0.00  0.00    +0.000 C 
ATOM      2  C   UNL     1      -0.530   9.663  19.927  0.00  0.00    +0.000 C 
ATOM      3  C   UNL     1       0.542   8.886  20.685  0.00  0.00    +0.000 C 
ATOM      4  N   UNL     1       1.571   8.613  19.696  0.00  0.00    +0.000 N 
ATOM      5  C   UNL     1       2.232   7.406  19.637  0.00  0.00    +0.000 A 
ATOM      6  C   UNL     1       3.266   7.202  18.740  0.00  0.00    +0.000 A 
ATOM      7  C   UNL     1       3.898   5.956  18.648  0.00  0.00    +0.000 A 
ATOM      8  C   UNL     1       3.472   4.883  19.455  0.00  0.00    +0.000 A 
ATOM      9  C   UNL     1       3.953   3.545  19.400  0.00  0.00    +0.000 A 
ATOM     10  C   UNL     1       3.480   2.563  20.267  0.00  0.00    +0.000 A 
ATOM     11  C   UNL     1       2.495   2.889  21.188  0.00  0.00    +0.000 A 
ATOM     12  C   UNL     1       1.988   4.188  21.223  0.00  0.00    +0.000 A 
ATOM     13  C   UNL     1       2.448   5.192  20.376  0.00  0.00    +0.000 A 
ATOM     14  N   UNL     1       1.870   6.406  20.465  0.00  0.00    +0.000 NA
ATOM     15  C   UNL     1       1.493   9.527  18.559  0.00  0.00    +0.000 C 
ENDROOT
BRANCH   1  20
ATOM     16  C   UNL     1       1.795  14.890  19.141  0.00  0.00    +0.000 C 
ATOM     17  C   UNL     1       0.917  13.728  18.905  0.00  0.00    +0.000 A 
ATOM     18  N   UNL     1      -0.357  13.836  18.507  0.00  0.00    +0.000 NA
ATOM     19  O   UNL     1      -0.777  12.505  18.397  0.00  0.00    +0.000 OA
ATOM     20  C   UNL     1       0.297  11.736  18.743  0.00  0.00    +0.000 A 
ATOM     21  N   UNL     1       1.360  12.441  19.066  0.00  0.00    +0.000 NA
ENDBRANCH   1  20
BRANCH   7  22
ATOM     22  C   UNL     1       4.979   5.888  17.624  0.00  0.00    +0.000 C 
ATOM     23  O   UNL     1       6.128   6.179  17.951  0.00  0.00    +0.000 OA
ATOM     24  N   UNL     1       4.645   5.424  16.367  0.00  0.00    +0.000 N 
ATOM     25  H   UNL     1       3.723   5.032  16.210  0.00  0.00    +0.000 HD
BRANCH  24  26
ATOM     26  C   UNL     1       5.642   5.235  15.360  0.00  0.00    +0.000 C 
ATOM     27  C   UNL     1       5.431   4.243  14.247  0.00  0.00    +0.000 C 
ATOM     28  C   UNL     1       6.465   3.978  15.301  0.00  0.00    +0.000 C 
ENDBRANCH  24  26
ENDBRANCH   7  22
TORSDOF 3
ENDMDL
MODEL 2
REMARK VINA RESULT:      -8.3      1.108      1.193
REMARK  Name = 
REMARK  4 active torsions:
REMARK  status: ('A' for Active; 'I' for Inactive)
REMARK    1  A    between atoms: C_1  and  C_2
REMARK    2  A    between atoms: C_5  and  C_6
REMARK    3  A    between atoms: C_12  and  C_13
REMARK    4  A    between atoms: N_15  and  C_16
REMARK                            x       y       z     vdW  Elec       q    Type
REMARK                         _______ _______ _______ _____ _____    ______ ____
ROOT
ATOM      1  C   UNL     1       0.515  10.401  19.563  0.00  0.00    +0.000 C 
ATOM      2  C   UNL     1      -0.379   9.664  20.558  0.00  0.00    +0.000 C 
ATOM      3  C   UNL     1       0.489   8.585  21.197  0.00  0.00    +0.000 C 
ATOM      4  N   UNL     1       1.577   8.378  20.255  0.00  0.00    +0.000 N 
ATOM      5  C   UNL     1       2.074   7.126  19.970  0.00  0.00    +0.000 A 
ATOM      6  C   UNL     1       3.165   6.966  19.134  0.00  0.00    +0.000 A 
ATOM      7  C   UNL     1       3.632   5.687  18.805  0.00  0.00    +0.000 A 
ATOM      8  C   UNL     1       2.980   4.542  19.306  0.00  0.00    +0.000 A 
ATOM      9  C   UNL     1       3.283   3.191  18.979  0.00  0.00    +0.000 A 
ATOM     10  C   UNL     1       2.589   2.129  19.554  0.00  0.00    +0.000 A 
ATOM     11  C   UNL     1       1.560   2.394  20.446  0.00  0.00    +0.000 A 
ATOM     12  C   UNL     1       1.229   3.717  20.742  0.00  0.00    +0.000 A 
ATOM     13  C   UNL     1       1.910   4.798  20.190  0.00  0.00    +0.000 A 
ATOM     14  N   UNL     1       1.492   6.038  20.513  0.00  0.00    +0.000 NA
ATOM     15  C   UNL     1       1.748   9.519  19.359  0.00  0.00    +0.000 C 
ENDROOT
BRANCH   1  20
ATOM     16  C   UNL     1       1.258  15.273  19.705  0.00  0.00    +0.000 C 
ATOM     17  C   UNL     1       1.179  13.853  20.099  0.00  0.00    +0.000 A 
ATOM     18  N   UNL     1       1.450  13.414  21.335  0.00  0.00    +0.000 NA
ATOM     19  O   UNL     1       1.227  12.035  21.245  0.00  0.00    +0.000 OA
ATOM     20  C   UNL     1       0.843  11.792  19.957  0.00  0.00    +0.000 A 
ATOM     21  N   UNL     1       0.801  12.877  19.214  0.00  0.00    +0.000 NA
ENDBRANCH   1  20
BRANCH   7  22
ATOM     22  C   UNL     1       4.802   5.678  17.882  0.00  0.00    +0.000 C 
ATOM     23  O   UNL     1       5.931   5.821  18.349  0.00  0.00    +0.000 OA
ATOM     24  N   UNL     1       4.562   5.430  16.545  0.00  0.00    +0.000 N 
ATOM     25  H   UNL     1       3.635   5.143  16.250  0.00  0.00    +0.000 HD
BRANCH  24  26
ATOM     26  C   UNL     1       5.639   5.306  15.611  0.00  0.00    +0.000 C 
ATOM     27  C   UNL     1       5.504   4.429  14.395  0.00  0.00    +0.000 C 
ATOM     28  C   UNL     1       6.436   4.036  15.502  0.00  0.00    +0.000 C 
ENDBRANCH  24  26
ENDBRANCH   7  22
TORSDOF 3
ENDMDL
MODEL 3
REMARK VINA RESULT:      -8.1      1.344      1.465
REMARK  Name = 
REMARK  4 active torsions:
REMARK  status: ('A' for Active; 'I' for Inactive)
REMARK    1  A    between atoms: C_1  and  C_2
REMARK    2  A    between atoms: C_5  and  C_6
REMARK    3  A    between atoms: C_12  and  C_13
REMARK    4  A    between atoms: N_15  and  C_16
REMARK                            x       y       z     vdW  Elec       q    Type
REMARK                         _______ _______ _______ _____ _____    ______ ____
ROOT
ATOM      1  C   UNL     1       1.412  10.242  18.324  0.00  0.00    +0.000 C 
ATOM      2  C   UNL     1       0.385   9.761  19.347  0.00  0.00    +0.000 C 
ATOM      3  C   UNL     1       1.070   8.665  20.158  0.00  0.00    +0.000 C 
ATOM      4  N   UNL     1       2.155   8.200  19.311  0.00  0.00    +0.000 N 
ATOM      5  C   UNL     1       2.486   6.868  19.205  0.00  0.00    +0.000 A 
ATOM      6  C   UNL     1       3.578   6.460  18.458  0.00  0.00    +0.000 A 
ATOM      7  C   UNL     1       3.876   5.101  18.311  0.00  0.00    +0.000 A 
ATOM      8  C   UNL     1       3.053   4.124  18.905  0.00  0.00    +0.000 A 
ATOM      9  C   UNL     1       3.179   2.714  18.759  0.00  0.00    +0.000 A 
ATOM     10  C   UNL     1       2.323   1.834  19.416  0.00  0.00    +0.000 A 
ATOM     11  C   UNL     1       1.304   2.342  20.209  0.00  0.00    +0.000 A 
ATOM     12  C   UNL     1       1.148   3.724  20.327  0.00  0.00    +0.000 A 
ATOM     13  C   UNL     1       1.993   4.627  19.690  0.00  0.00    +0.000 A 
ATOM     14  N   UNL     1       1.738   5.942  19.839  0.00  0.00    +0.000 NA
ATOM     15  C   UNL     1       2.519   9.186  18.297  0.00  0.00    +0.000 C 
ENDROOT
BRANCH   1  20
ATOM     16  C   UNL     1       3.623  14.639  18.032  0.00  0.00    +0.000 C 
ATOM     17  C   UNL     1       2.814  13.504  18.516  0.00  0.00    +0.000 A 
ATOM     18  N   UNL     1       2.104  13.537  19.651  0.00  0.00    +0.000 NA
ATOM     19  O   UNL     1       1.499  12.275  19.691  0.00  0.00    +0.000 OA
ATOM     20  C   UNL     1       1.913  11.616  18.568  0.00  0.00    +0.000 A 
ATOM     21  N   UNL     1       2.725  12.329  17.817  0.00  0.00    +0.000 NA
ENDBRANCH   1  20
BRANCH   7  22
ATOM     22  C   UNL     1       5.070   4.821  17.463  0.00  0.00    +0.000 C 
ATOM     23  O   UNL     1       6.191   4.939  17.956  0.00  0.00    +0.000 OA
ATOM     24  N   UNL     1       4.853   4.366  16.178  0.00  0.00    +0.000 N 
ATOM     25  H   UNL     1       3.913   4.118  15.890  0.00  0.00    +0.000 HD
BRANCH  24  26
ATOM     26  C   UNL     1       5.943   3.980  15.336  0.00  0.00    +0.000 C 
ATOM     27  C   UNL     1       6.628   4.991  14.455  0.00  0.00    +0.000 C 
ATOM     28  C   UNL     1       5.790   3.908  13.842  0.00  0.00    +0.000 C 
ENDBRANCH  24  26
ENDBRANCH   7  22
TORSDOF 3
ENDMDL
MODEL 4
REMARK VINA RESULT:      -7.8      1.820      2.093
REMARK  Name = 
REMARK  4 active torsions:
REMARK  status: ('A' for Active; 'I' for Inactive)
REMARK    1  A    between atoms: C_1  and  C_2
REMARK    2  A    between atoms: C_5  and  C_6
REMARK    3  A    between atoms: C_12  and  C_13
REMARK    4  A    between atoms: N_15  and  C_16
REMARK                            x       y       z     vdW  Elec       q    Type
REMARK                         _______ _______ _______ _____ _____    ______ ____
ROOT
ATOM      1  C   UNL     1       0.173  10.385  19.921  0.00  0.00    +0.000 C 
ATOM      2  C   UNL     1      -0.722   9.572  20.855  0.00  0.00    +0.000 C 
ATOM      3  C   UNL     1       0.163   8.486  21.458  0.00  0.00    +0.000 C 
ATOM      4  N   UNL     1       1.278   8.359  20.533  0.00  0.00    +0.000 N 
ATOM      5  C   UNL     1       1.818   7.139  20.196  0.00  0.00    +0.000 A 
ATOM      6  C   UNL     1       2.932   7.053  19.380  0.00  0.00    +0.000 A 
ATOM      7  C   UNL     1       3.443   5.807  18.997  0.00  0.00    +0.000 A 
ATOM      8  C   UNL     1       2.815   4.619  19.421  0.00  0.00    +0.000 A 
ATOM      9  C   UNL     1       3.164   3.297  19.033  0.00  0.00    +0.000 A 
ATOM     10  C   UNL     1       2.489   2.186  19.536  0.00  0.00    +0.000 A 
ATOM     11  C   UNL     1       1.432   2.376  20.414  0.00  0.00    +0.000 A 
ATOM     12  C   UNL     1       1.056   3.671  20.770  0.00  0.00    +0.000 A 
ATOM     13  C   UNL     1       1.717   4.798  20.291  0.00  0.00    +0.000 A 
ATOM     14  N   UNL     1       1.256   6.008  20.667  0.00  0.00    +0.000 NA
ATOM     15  C   UNL     1       1.436   9.550  19.702  0.00  0.00    +0.000 C 
ENDROOT
BRANCH   1  20
ATOM     16  C   UNL     1       1.213  15.191  20.277  0.00  0.00    +0.000 C 
ATOM     17  C   UNL     1       0.881  13.797  20.628  0.00  0.00    +0.000 A 
ATOM     18  N   UNL     1       0.655  13.387  21.883  0.00  0.00    +0.000 NA
ATOM     19  O   UNL     1       0.367  12.025  21.732  0.00  0.00    +0.000 OA
ATOM     20  C   UNL     1       0.451  11.762  20.394  0.00  0.00    +0.000 A 
ATOM     21  N   UNL     1       0.768  12.818  19.675  0.00  0.00    +0.000 NA
ENDBRANCH   1  20
BRANCH   7  22
ATOM     22  C   UNL     1       4.634   5.879  18.103  0.00  0.00    +0.000 C 
ATOM     23  O   UNL     1       4.462   5.954  16.887  0.00  0.00    +0.000 OA
ATOM     24  N   UNL     1       5.880   5.935  18.695  0.00  0.00    +0.000 N 
ATOM     25  H   UNL     1       5.948   6.050  19.701  0.00  0.00    +0.000 HD
BRANCH  24  26
ATOM     26  C   UNL     1       7.064   6.105  17.912  0.00  0.00    +0.000 C 
ATOM     27  C   UNL     1       8.228   6.899  18.443  0.00  0.00    +0.000 C 
ATOM     28  C   UNL     1       7.414   7.434  17.302  0.00  0.00    +0.000 C 
ENDBRANCH  24  26
ENDBRANCH   7  22
TORSDOF 3
ENDMDL
MODEL 5
REMARK VINA RESULT:      -7.8      1.054      1.133
REMARK  Name = 
REMARK  4 active torsions:
REMARK  status: ('A' for Active; 'I' for Inactive)
REMARK    1  A    between atoms: C_1  and  C_2
REMARK    2  A    between atoms: C_5  and  C_6
REMARK    3  A    between atoms: C_12  and  C_13
REMARK    4  A    between atoms: N_15  and  C_16
REMARK                            x       y       z     vdW  Elec       q    Type
REMARK                         _______ _______ _______ _____ _____    ______ ____
ROOT
ATOM      1  C   UNL     1       0.967  10.410  18.650  0.00  0.00    +0.000 C 
ATOM      2  C   UNL     1       0.027   9.906  19.743  0.00  0.00    +0.000 C 
ATOM      3  C   UNL     1       0.815   8.876  20.546  0.00  0.00    +0.000 C 
ATOM      4  N   UNL     1       1.877   8.444  19.652  0.00  0.00    +0.000 N 
ATOM      5  C   UNL     1       2.276   7.129  19.566  0.00  0.00    +0.000 A 
ATOM      6  C   UNL     1       3.346   6.758  18.770  0.00  0.00    +0.000 A 
ATOM      7  C   UNL     1       3.711   5.412  18.645  0.00  0.00    +0.000 A 
ATOM      8  C   UNL     1       2.979   4.412  19.314  0.00  0.00    +0.000 A 
ATOM      9  C   UNL     1       3.175   3.007  19.201  0.00  0.00    +0.000 A 
ATOM     10  C   UNL     1       2.407   2.103  19.931  0.00  0.00    +0.000 A 
ATOM     11  C   UNL     1       1.407   2.580  20.766  0.00  0.00    +0.000 A 
ATOM     12  C   UNL     1       1.180   3.954  20.852  0.00  0.00    +0.000 A 
ATOM     13  C   UNL     1       1.937   4.882  20.143  0.00  0.00    +0.000 A 
ATOM     14  N   UNL     1       1.617   6.185  20.268  0.00  0.00    +0.000 NA
ATOM     15  C   UNL     1       2.128   9.416  18.591  0.00  0.00    +0.000 C 
ENDROOT
BRANCH   1  20
ATOM     16  C   UNL     1       1.574  15.068  20.148  0.00  0.00    +0.000 C 
ATOM     17  C   UNL     1       1.723  13.801  19.406  0.00  0.00    +0.000 A 
ATOM     18  N   UNL     1       2.628  13.618  18.436  0.00  0.00    +0.000 NA
ATOM     19  O   UNL     1       2.418  12.290  18.044  0.00  0.00    +0.000 OA
ATOM     20  C   UNL     1       1.403  11.817  18.826  0.00  0.00    +0.000 A 
ATOM     21  N   UNL     1       0.941  12.709  19.676  0.00  0.00    +0.000 NA
ENDBRANCH   1  20
BRANCH   7  22
ATOM     22  C   UNL     1       4.871   5.171  17.740  0.00  0.00    +0.000 C 
ATOM     23  O   UNL     1       5.860   4.587  18.180  0.00  0.00    +0.000 OA
ATOM     24  N   UNL     1       4.744   5.553  16.419  0.00  0.00    +0.000 N 
ATOM     25  H   UNL     1       3.842   5.865  16.075  0.00  0.00    +0.000 HD
BRANCH  24  26
ATOM     26  C   UNL     1       5.770   5.266  15.465  0.00  0.00    +0.000 C 
ATOM     27  C   UNL     1       5.456   4.505  14.204  0.00  0.00    +0.000 C 
ATOM     28  C   UNL     1       6.293   3.870  15.275  0.00  0.00    +0.000 C 
ENDBRANCH  24  26
ENDBRANCH   7  22
TORSDOF 3
ENDMDL
MODEL 6
REMARK VINA RESULT:      -7.7      2.267      7.796
REMARK  Name = 
REMARK  4 active torsions:
REMARK  status: ('A' for Active; 'I' for Inactive)
REMARK    1  A    between atoms: C_1  and  C_2
REMARK    2  A    between atoms: C_5  and  C_6
REMARK    3  A    between atoms: C_12  and  C_13
REMARK    4  A    between atoms: N_15  and  C_16
REMARK                            x       y       z     vdW  Elec       q    Type
REMARK                         _______ _______ _______ _____ _____    ______ ____
ROOT
ATOM      1  C   UNL     1       4.795   6.700  17.602  0.00  0.00    +0.000 C 
ATOM      2  C   UNL     1       4.879   6.097  19.002  0.00  0.00    +0.000 C 
ATOM      3  C   UNL     1       3.456   6.094  19.554  0.00  0.00    +0.000 C 
ATOM      4  N   UNL     1       2.755   7.101  18.775  0.00  0.00    +0.000 N 
ATOM      5  C   UNL     1       1.847   7.968  19.341  0.00  0.00    +0.000 A 
ATOM      6  C   UNL     1       1.131   8.860  18.562  0.00  0.00    +0.000 A 
ATOM      7  C   UNL     1       0.250   9.775  19.150  0.00  0.00    +0.000 A 
ATOM      8  C   UNL     1       0.097   9.816  20.550  0.00  0.00    +0.000 A 
ATOM      9  C   UNL     1      -0.682  10.751  21.285  0.00  0.00    +0.000 A 
ATOM     10  C   UNL     1      -0.786  10.684  22.673  0.00  0.00    +0.000 A 
ATOM     11  C   UNL     1      -0.089   9.699  23.358  0.00  0.00    +0.000 A 
ATOM     12  C   UNL     1       0.711   8.802  22.649  0.00  0.00    +0.000 A 
ATOM     13  C   UNL     1       0.826   8.839  21.263  0.00  0.00    +0.000 A 
ATOM     14  N   UNL     1       1.650   7.950  20.674  0.00  0.00    +0.000 NA
ATOM     15  C   UNL     1       3.427   7.377  17.508  0.00  0.00    +0.000 C 
ENDROOT
BRANCH   1  20
ATOM     16  C   UNL     1       6.389   4.389  13.550  0.00  0.00    +0.000 C 
ATOM     17  C   UNL     1       5.685   4.684  14.812  0.00  0.00    +0.000 A 
ATOM     18  N   UNL     1       4.897   3.801  15.440  0.00  0.00    +0.000 NA
ATOM     19  O   UNL     1       4.471   4.498  16.576  0.00  0.00    +0.000 OA
ATOM     20  C   UNL     1       5.051   5.732  16.508  0.00  0.00    +0.000 A 
ATOM     21  N   UNL     1       5.803   5.895  15.441  0.00  0.00    +0.000 NA
ENDBRANCH   1  20
BRANCH   7  22
ATOM     22  C   UNL     1      -0.433  10.680  18.183  0.00  0.00    +0.000 C 
ATOM     23  O   UNL     1      -0.046  11.844  18.079  0.00  0.00    +0.000 OA
ATOM     24  N   UNL     1      -1.425  10.140  17.389  0.00  0.00    +0.000 N 
ATOM     25  H   UNL     1      -1.575   9.137  17.393  0.00  0.00    +0.000 HD
BRANCH  24  26
ATOM     26  C   UNL     1      -2.060  10.916  16.368  0.00  0.00    +0.000 C 
ATOM     27  C   UNL     1      -3.558  11.062  16.333  0.00  0.00    +0.000 C 
ATOM     28  C   UNL     1      -2.858  10.264  15.273  0.00  0.00    +0.000 C 
ENDBRANCH  24  26
ENDBRANCH   7  22
TORSDOF 3
ENDMDL
MODEL 7
REMARK VINA RESULT:      -7.6      1.285      1.382
REMARK  Name = 
REMARK  4 active torsions:
REMARK  status: ('A' for Active; 'I' for Inactive)
REMARK    1  A    between atoms: C_1  and  C_2
REMARK    2  A    between atoms: C_5  and  C_6
REMARK    3  A    between atoms: C_12  and  C_13
REMARK    4  A    between atoms: N_15  and  C_16
REMARK                            x       y       z     vdW  Elec       q    Type
REMARK                         _______ _______ _______ _____ _____    ______ ____
ROOT
ATOM      1  C   UNL     1       0.532  10.061  18.982  0.00  0.00    +0.000 C 
ATOM      2  C   UNL     1       0.188   9.713  20.428  0.00  0.00    +0.000 C 
ATOM      3  C   UNL     1       1.288   8.774  20.916  0.00  0.00    +0.000 C 
ATOM      4  N   UNL     1       1.863   8.216  19.703  0.00  0.00    +0.000 N 
ATOM      5  C   UNL     1       2.233   6.893  19.606  0.00  0.00    +0.000 A 
ATOM      6  C   UNL     1       2.856   6.408  18.470  0.00  0.00    +0.000 A 
ATOM      7  C   UNL     1       3.180   5.051  18.356  0.00  0.00    +0.000 A 
ATOM      8  C   UNL     1       2.854   4.153  19.392  0.00  0.00    +0.000 A 
ATOM      9  C   UNL     1       3.034   2.742  19.371  0.00  0.00    +0.000 A 
ATOM     10  C   UNL     1       2.700   1.948  20.467  0.00  0.00    +0.000 A 
ATOM     11  C   UNL     1       2.153   2.543  21.594  0.00  0.00    +0.000 A 
ATOM     12  C   UNL     1       1.935   3.921  21.609  0.00  0.00    +0.000 A 
ATOM     13  C   UNL     1       2.267   4.740  20.534  0.00  0.00    +0.000 A 
ATOM     14  N   UNL     1       1.986   6.055  20.633  0.00  0.00    +0.000 NA
ATOM     15  C   UNL     1       1.585   9.046  18.534  0.00  0.00    +0.000 C 
ENDROOT
BRANCH   1  20
ATOM     16  C   UNL     1       0.821  14.981  18.854  0.00  0.00    +0.000 C 
ATOM     17  C   UNL     1       1.147  13.551  18.693  0.00  0.00    +0.000 A 
ATOM     18  N   UNL     1       2.307  13.113  18.189  0.00  0.00    +0.000 NA
ATOM     19  O   UNL     1       2.179  11.720  18.244  0.00  0.00    +0.000 OA
ATOM     20  C   UNL     1       0.947  11.470  18.779  0.00  0.00    +0.000 A 
ATOM     21  N   UNL     1       0.274  12.563  19.068  0.00  0.00    +0.000 NA
ENDBRANCH   1  20
BRANCH   7  22
ATOM     22  C   UNL     1       3.830   4.679  17.067  0.00  0.00    +0.000 C 
ATOM     23  O   UNL     1       3.323   3.797  16.376  0.00  0.00    +0.000 OA
ATOM     24  N   UNL     1       4.937   5.404  16.674  0.00  0.00    +0.000 N 
ATOM     25  H   UNL     1       5.200   6.233  17.196  0.00  0.00    +0.000 HD
BRANCH  24  26
ATOM     26  C   UNL     1       5.558   5.177  15.406  0.00  0.00    +0.000 C 
ATOM     27  C   UNL     1       6.229   3.863  15.104  0.00  0.00    +0.000 C 
ATOM     28  C   UNL     1       7.054   5.105  15.269  0.00  0.00    +0.000 C 
ENDBRANCH  24  26
ENDBRANCH   7  22
TORSDOF 3
ENDMDL
MODEL 8
REMARK VINA RESULT:      -7.6      1.579      1.646
REMARK  Name = 
REMARK  4 active torsions:
REMARK  status: ('A' for Active; 'I' for Inactive)
REMARK    1  A    between atoms: C_1  and  C_2
REMARK    2  A    between atoms: C_5  and  C_6
REMARK    3  A    between atoms: C_12  and  C_13
REMARK    4  A    between atoms: N_15  and  C_16
REMARK                            x       y       z     vdW  Elec       q    Type
REMARK                         _______ _______ _______ _____ _____    ______ ____
ROOT
ATOM      1  C   UNL     1       0.153  10.510  20.211  0.00  0.00    +0.000 C 
ATOM      2  C   UNL     1      -0.461   9.685  21.340  0.00  0.00    +0.000 C 
ATOM      3  C   UNL     1       0.562   8.609  21.691  0.00  0.00    +0.000 C 
ATOM      4  N   UNL     1       1.403   8.498  20.511  0.00  0.00    +0.000 N 
ATOM      5  C   UNL     1       1.853   7.285  20.040  0.00  0.00    +0.000 A 
ATOM      6  C   UNL     1       2.721   7.214  18.965  0.00  0.00    +0.000 A 
ATOM      7  C   UNL     1       3.132   5.975  18.458  0.00  0.00    +0.000 A 
ATOM      8  C   UNL     1       2.647   4.780  19.025  0.00  0.00    +0.000 A 
ATOM      9  C   UNL     1       2.901   3.462  18.554  0.00  0.00    +0.000 A 
ATOM     10  C   UNL     1       2.391   2.342  19.209  0.00  0.00    +0.000 A 
ATOM     11  C   UNL     1       1.594   2.517  20.330  0.00  0.00    +0.000 A 
ATOM     12  C   UNL     1       1.306   3.808  20.776  0.00  0.00    +0.000 A 
ATOM     13  C   UNL     1       1.808   4.943  20.148  0.00  0.00    +0.000 A 
ATOM     14  N   UNL     1       1.445   6.146  20.635  0.00  0.00    +0.000 NA
ATOM     15  C   UNL     1       1.328   9.691  19.671  0.00  0.00    +0.000 C 
ENDROOT
BRANCH   1  20
ATOM     16  C   UNL     1       0.409  14.987  22.260  0.00  0.00    +0.000 C 
ATOM     17  C   UNL     1       0.706  13.805  21.429  0.00  0.00    +0.000 A 
ATOM     18  N   UNL     1       1.769  13.722  20.618  0.00  0.00    +0.000 NA
ATOM     19  O   UNL     1       1.653  12.443  20.062  0.00  0.00    +0.000 OA
ATOM     20  C   UNL     1       0.527  11.891  20.603  0.00  0.00    +0.000 A 
ATOM     21  N   UNL     1      -0.091  12.690  21.446  0.00  0.00    +0.000 NA
ENDBRANCH   1  20
BRANCH   7  22
ATOM     22  C   UNL     1       4.051   6.063  17.288  0.00  0.00    +0.000 C 
ATOM     23  O   UNL     1       4.122   7.121  16.664  0.00  0.00    +0.000 OA
ATOM     24  N   UNL     1       4.842   4.966  17.009  0.00  0.00    +0.000 N 
ATOM     25  H   UNL     1       4.870   4.193  17.665  0.00  0.00    +0.000 HD
BRANCH  24  26
ATOM     26  C   UNL     1       5.821   5.007  15.967  0.00  0.00    +0.000 C 
ATOM     27  C   UNL     1       5.471   4.575  14.568  0.00  0.00    +0.000 C 
ATOM     28  C   UNL     1       6.406   3.745  15.395  0.00  0.00    +0.000 C 
ENDBRANCH  24  26
ENDBRANCH   7  22
TORSDOF 3
ENDMDL
MODEL 9
REMARK VINA RESULT:      -7.4      1.754      7.827
REMARK  Name = 
REMARK  4 active torsions:
REMARK  status: ('A' for Active; 'I' for Inactive)
REMARK    1  A    between atoms: C_1  and  C_2
REMARK    2  A    between atoms: C_5  and  C_6
REMARK    3  A    between atoms: C_12  and  C_13
REMARK    4  A    between atoms: N_15  and  C_16
REMARK                            x       y       z     vdW  Elec       q    Type
REMARK                         _______ _______ _______ _____ _____    ______ ____
ROOT
ATOM      1  C   UNL     1       5.474   6.319  17.672  0.00  0.00    +0.000 C 
ATOM      2  C   UNL     1       4.912   5.324  18.685  0.00  0.00    +0.000 C 
ATOM      3  C   UNL     1       3.419   5.619  18.793  0.00  0.00    +0.000 C 
ATOM      4  N   UNL     1       3.277   6.987  18.323  0.00  0.00    +0.000 N 
ATOM      5  C   UNL     1       2.426   7.886  18.925  0.00  0.00    +0.000 A 
ATOM      6  C   UNL     1       2.247   9.157  18.406  0.00  0.00    +0.000 A 
ATOM      7  C   UNL     1       1.422  10.084  19.054  0.00  0.00    +0.000 A 
ATOM      8  C   UNL     1       0.778   9.742  20.260  0.00  0.00    +0.000 A 
ATOM      9  C   UNL     1      -0.004  10.609  21.072  0.00  0.00    +0.000 A 
ATOM     10  C   UNL     1      -0.621  10.158  22.237  0.00  0.00    +0.000 A 
ATOM     11  C   UNL     1      -0.444   8.840  22.632  0.00  0.00    +0.000 A 
ATOM     12  C   UNL     1       0.355   7.992  21.863  0.00  0.00    +0.000 A 
ATOM     13  C   UNL     1       0.976   8.412  20.691  0.00  0.00    +0.000 A 
ATOM     14  N   UNL     1       1.755   7.527  20.037  0.00  0.00    +0.000 NA
ATOM     15  C   UNL     1       4.408   7.402  17.497  0.00  0.00    +0.000 C 
ENDROOT
BRANCH   1  20
ATOM     16  C   UNL     1       5.751   3.831  13.424  0.00  0.00    +0.000 C 
ATOM     17  C   UNL     1       6.102   4.679  14.580  0.00  0.00    +0.000 A 
ATOM     18  N   UNL     1       7.283   5.296  14.710  0.00  0.00    +0.000 NA
ATOM     19  O   UNL     1       7.158   5.984  15.923  0.00  0.00    +0.000 OA
ATOM     20  C   UNL     1       5.907   5.704  16.394  0.00  0.00    +0.000 A 
ATOM     21  N   UNL     1       5.221   4.905  15.606  0.00  0.00    +0.000 NA
ENDBRANCH   1  20
BRANCH   7  22
ATOM     22  C   UNL     1       1.344  11.413  18.383  0.00  0.00    +0.000 C 
ATOM     23  O   UNL     1       0.259  11.800  17.952  0.00  0.00    +0.000 OA
ATOM     24  N   UNL     1       2.491  12.182  18.347  0.00  0.00    +0.000 N 
ATOM     25  H   UNL     1       3.305  11.887  18.875  0.00  0.00    +0.000 HD
BRANCH  24  26
ATOM     26  C   UNL     1       2.475  13.508  17.811  0.00  0.00    +0.000 C 
ATOM     27  C   UNL     1       3.561  14.490  18.160  0.00  0.00    +0.000 C 
ATOM     28  C   UNL     1       2.169  14.698  18.678  0.00  0.00    +0.000 C 
ENDBRANCH  24  26
ENDBRANCH   7  22
TORSDOF 3
ENDMDL
