MODEL 1
REMARK VINA RESULT:      -8.6      0.000      0.000
REMARK  Name = 
REMARK  3 active torsions:
REMARK  status: ('A' for Active; 'I' for Inactive)
REMARK    1  A    between atoms: C_1  and  C_2
REMARK    2  A    between atoms: C_7  and  C_9
REMARK    3  A    between atoms: C_14  and  C_16
REMARK                            x       y       z     vdW  Elec       q    Type
REMARK                         _______ _______ _______ _____ _____    ______ ____
ROOT
ATOM      1  C   UNL     1       3.032   2.278  19.231  0.00  0.00    +0.000 C 
ATOM      2  C   UNL     1       1.516   2.043  19.145  0.00  0.00    +0.000 C 
ATOM      3  C   UNL     1       0.689   3.329  19.069  0.00  0.00    +0.000 C 
ATOM      4  C   UNL     1       1.141   4.346  20.119  0.00  0.00    +0.000 C 
ATOM      5  N   UNL     1       2.588   4.575  19.990  0.00  0.00    +0.000 N 
ATOM      6  C   UNL     1       3.272   5.787  19.828  0.00  0.00    +0.000 C 
ATOM      7  O   UNL     1       4.495   5.881  19.958  0.00  0.00    +0.000 OA
ATOM      8  C   UNL     1       3.389   3.371  20.236  0.00  0.00    +0.000 C 
ENDROOT
BRANCH   1  15
ATOM      9  C   UNL     1       7.481   5.265  13.285  0.00  0.00    +0.000 C 
ATOM     10  C   UNL     1       6.813   4.756  14.521  0.00  0.00    +0.000 A 
ATOM     11  C   UNL     1       7.406   4.842  15.778  0.00  0.00    +0.000 A 
ATOM     12  C   UNL     1       6.727   4.354  16.894  0.00  0.00    +0.000 A 
ATOM     13  C   UNL     1       5.473   3.770  16.728  0.00  0.00    +0.000 A 
ATOM     14  N   UNL     1       4.810   3.292  17.865  0.00  0.00    +0.000 N 
ATOM     15  C   UNL     1       3.671   2.516  17.859  0.00  0.00    +0.000 C 
ATOM     16  O   UNL     1       3.141   2.012  16.871  0.00  0.00    +0.000 OA
ATOM     17  N   UNL     1       4.885   3.695  15.523  0.00  0.00    +0.000 NA
ATOM     18  C   UNL     1       5.555   4.175  14.455  0.00  0.00    +0.000 A 
ATOM     19  H   UNL     1       5.261   3.447  18.753  0.00  0.00    +0.000 HD
ENDBRANCH   1  15
BRANCH   6  20
ATOM     20  C   UNL     1       2.548   7.011  19.413  0.00  0.00    +0.000 A 
ATOM     21  C   UNL     1       2.574   7.385  18.060  0.00  0.00    +0.000 A 
ATOM     22  C   UNL     1       1.941   8.554  17.613  0.00  0.00    +0.000 A 
ATOM     23  C   UNL     1       1.310   9.328  18.587  0.00  0.00    +0.000 A 
ATOM     24  N   UNL     1       0.646  10.530  18.549  0.00  0.00    +0.000 N 
ATOM     25  C   UNL     1       0.231  10.820  19.819  0.00  0.00    +0.000 A 
ATOM     26  N   UNL     1       0.549   9.872  20.668  0.00  0.00    +0.000 NA
ATOM     27  C   UNL     1       1.222   8.947  19.920  0.00  0.00    +0.000 A 
ATOM     28  C   UNL     1       1.790   7.742  20.329  0.00  0.00    +0.000 A 
ATOM     29  H   UNL     1       0.506  11.106  17.732  0.00  0.00    +0.000 HD
ENDBRANCH   6  20
TORSDOF 2
ENDMDL
MODEL 2
REMARK VINA RESULT:      -7.8      3.556      6.508
REMARK  Name = 
REMARK  3 active torsions:
REMARK  status: ('A' for Active; 'I' for Inactive)
REMARK    1  A    between atoms: C_1  and  C_2
REMARK    2  A    between atoms: C_7  and  C_9
REMARK    3  A    between atoms: C_14  and  C_16
REMARK                            x       y       z     vdW  Elec       q    Type
REMARK                         _______ _______ _______ _____ _____    ______ ____
ROOT
ATOM      1  C   UNL     1       1.646   9.301  21.447  0.00  0.00    +0.000 C 
ATOM      2  C   UNL     1       0.717   8.936  22.615  0.00  0.00    +0.000 C 
ATOM      3  C   UNL     1      -0.765   9.203  22.340  0.00  0.00    +0.000 C 
ATOM      4  C   UNL     1      -0.979  10.593  21.736  0.00  0.00    +0.000 C 
ATOM      5  N   UNL     1      -0.127  10.749  20.547  0.00  0.00    +0.000 N 
ATOM      6  C   UNL     1      -0.498  11.114  19.247  0.00  0.00    +0.000 C 
ATOM      7  O   UNL     1       0.327  11.432  18.387  0.00  0.00    +0.000 OA
ATOM      8  C   UNL     1       1.306  10.663  20.845  0.00  0.00    +0.000 C 
ENDROOT
BRANCH   1  15
ATOM      9  C   UNL     1       2.505   2.202  17.852  0.00  0.00    +0.000 C 
ATOM     10  C   UNL     1       2.260   3.419  18.684  0.00  0.00    +0.000 A 
ATOM     11  C   UNL     1       1.724   3.349  19.967  0.00  0.00    +0.000 A 
ATOM     12  C   UNL     1       1.526   4.522  20.695  0.00  0.00    +0.000 A 
ATOM     13  C   UNL     1       1.852   5.747  20.116  0.00  0.00    +0.000 A 
ATOM     14  N   UNL     1       1.648   6.909  20.869  0.00  0.00    +0.000 N 
ATOM     15  C   UNL     1       1.723   8.198  20.387  0.00  0.00    +0.000 C 
ATOM     16  O   UNL     1       1.843   8.526  19.208  0.00  0.00    +0.000 OA
ATOM     17  N   UNL     1       2.384   5.825  18.885  0.00  0.00    +0.000 NA
ATOM     18  C   UNL     1       2.570   4.680  18.197  0.00  0.00    +0.000 A 
ATOM     19  H   UNL     1       1.324   6.787  21.816  0.00  0.00    +0.000 HD
ENDBRANCH   1  15
BRANCH   6  20
ATOM     20  C   UNL     1      -1.917  11.061  18.824  0.00  0.00    +0.000 A 
ATOM     21  C   UNL     1      -2.322  10.043  17.945  0.00  0.00    +0.000 A 
ATOM     22  C   UNL     1      -3.642   9.964  17.478  0.00  0.00    +0.000 A 
ATOM     23  C   UNL     1      -4.516  10.958  17.918  0.00  0.00    +0.000 A 
ATOM     24  N   UNL     1      -5.833  11.240  17.649  0.00  0.00    +0.000 N 
ATOM     25  C   UNL     1      -6.179  12.352  18.364  0.00  0.00    +0.000 A 
ATOM     26  N   UNL     1      -5.187  12.787  19.105  0.00  0.00    +0.000 NA
ATOM     27  C   UNL     1      -4.152  11.938  18.833  0.00  0.00    +0.000 A 
ATOM     28  C   UNL     1      -2.856  11.952  19.345  0.00  0.00    +0.000 A 
ATOM     29  H   UNL     1      -6.434  10.727  17.019  0.00  0.00    +0.000 HD
ENDBRANCH   6  20
TORSDOF 2
ENDMDL
MODEL 3
REMARK VINA RESULT:      -7.4      3.803      8.732
REMARK  Name = 
REMARK  3 active torsions:
REMARK  status: ('A' for Active; 'I' for Inactive)
REMARK    1  A    between atoms: C_1  and  C_2
REMARK    2  A    between atoms: C_7  and  C_9
REMARK    3  A    between atoms: C_14  and  C_16
REMARK                            x       y       z     vdW  Elec       q    Type
REMARK                         _______ _______ _______ _____ _____    ______ ____
ROOT
ATOM      1  C   UNL     1      -1.373  12.643  21.142  0.00  0.00    +0.000 C 
ATOM      2  C   UNL     1      -0.266  13.600  20.675  0.00  0.00    +0.000 C 
ATOM      3  C   UNL     1       0.936  12.899  20.037  0.00  0.00    +0.000 C 
ATOM      4  C   UNL     1       1.403  11.712  20.881  0.00  0.00    +0.000 C 
ATOM      5  N   UNL     1       0.268  10.811  21.132  0.00  0.00    +0.000 N 
ATOM      6  C   UNL     1       0.168   9.436  20.880  0.00  0.00    +0.000 C 
ATOM      7  O   UNL     1      -0.743   8.742  21.337  0.00  0.00    +0.000 OA
ATOM      8  C   UNL     1      -0.814  11.440  21.898  0.00  0.00    +0.000 C 
ENDROOT
BRANCH   1  15
ATOM      9  C   UNL     1      -4.200   9.959  14.151  0.00  0.00    +0.000 C 
ATOM     10  C   UNL     1      -3.521  10.315  15.433  0.00  0.00    +0.000 A 
ATOM     11  C   UNL     1      -2.346   9.695  15.851  0.00  0.00    +0.000 A 
ATOM     12  C   UNL     1      -1.757  10.077  17.056  0.00  0.00    +0.000 A 
ATOM     13  C   UNL     1      -2.366  11.062  17.830  0.00  0.00    +0.000 A 
ATOM     14  N   UNL     1      -1.752  11.432  19.033  0.00  0.00    +0.000 N 
ATOM     15  C   UNL     1      -2.315  12.230  20.005  0.00  0.00    +0.000 C 
ATOM     16  O   UNL     1      -3.478  12.628  20.036  0.00  0.00    +0.000 OA
ATOM     17  N   UNL     1      -3.491  11.678  17.430  0.00  0.00    +0.000 NA
ATOM     18  C   UNL     1      -4.045  11.297  16.261  0.00  0.00    +0.000 A 
ATOM     19  H   UNL     1      -0.869  10.996  19.245  0.00  0.00    +0.000 HD
ENDBRANCH   1  15
BRANCH   6  20
ATOM     20  C   UNL     1       1.131   8.764  19.975  0.00  0.00    +0.000 A 
ATOM     21  C   UNL     1       1.363   9.317  18.706  0.00  0.00    +0.000 A 
ATOM     22  C   UNL     1       2.232   8.705  17.790  0.00  0.00    +0.000 A 
ATOM     23  C   UNL     1       2.831   7.515  18.205  0.00  0.00    +0.000 A 
ATOM     24  N   UNL     1       3.676   6.624  17.591  0.00  0.00    +0.000 N 
ATOM     25  C   UNL     1       3.942   5.618  18.478  0.00  0.00    +0.000 A 
ATOM     26  N   UNL     1       3.356   5.818  19.635  0.00  0.00    +0.000 NA
ATOM     27  C   UNL     1       2.661   6.983  19.477  0.00  0.00    +0.000 A 
ATOM     28  C   UNL     1       1.855   7.648  20.398  0.00  0.00    +0.000 A 
ATOM     29  H   UNL     1       4.024   6.689  16.645  0.00  0.00    +0.000 HD
ENDBRANCH   6  20
TORSDOF 2
ENDMDL
MODEL 4
REMARK VINA RESULT:      -7.4      0.714      1.347
REMARK  Name = 
REMARK  3 active torsions:
REMARK  status: ('A' for Active; 'I' for Inactive)
REMARK    1  A    between atoms: C_1  and  C_2
REMARK    2  A    between atoms: C_7  and  C_9
REMARK    3  A    between atoms: C_14  and  C_16
REMARK                            x       y       z     vdW  Elec       q    Type
REMARK                         _______ _______ _______ _____ _____    ______ ____
ROOT
ATOM      1  C   UNL     1       2.650   2.037  19.025  0.00  0.00    +0.000 C 
ATOM      2  C   UNL     1       1.123   1.916  18.912  0.00  0.00    +0.000 C 
ATOM      3  C   UNL     1       0.380   3.248  19.041  0.00  0.00    +0.000 C 
ATOM      4  C   UNL     1       0.892   4.059  20.234  0.00  0.00    +0.000 C 
ATOM      5  N   UNL     1       2.351   4.211  20.135  0.00  0.00    +0.000 N 
ATOM      6  C   UNL     1       3.112   5.387  20.160  0.00  0.00    +0.000 C 
ATOM      7  O   UNL     1       4.338   5.381  20.297  0.00  0.00    +0.000 OA
ATOM      8  C   UNL     1       3.072   2.936  20.186  0.00  0.00    +0.000 C 
ENDROOT
BRANCH   1  15
ATOM      9  C   UNL     1       7.405   5.521  13.610  0.00  0.00    +0.000 C 
ATOM     10  C   UNL     1       6.685   4.877  14.750  0.00  0.00    +0.000 A 
ATOM     11  C   UNL     1       7.286   4.666  15.987  0.00  0.00    +0.000 A 
ATOM     12  C   UNL     1       6.557   4.065  17.013  0.00  0.00    +0.000 A 
ATOM     13  C   UNL     1       5.244   3.668  16.775  0.00  0.00    +0.000 A 
ATOM     14  N   UNL     1       4.531   3.071  17.822  0.00  0.00    +0.000 N 
ATOM     15  C   UNL     1       3.310   2.444  17.703  0.00  0.00    +0.000 C 
ATOM     16  O   UNL     1       2.723   2.191  16.653  0.00  0.00    +0.000 OA
ATOM     17  N   UNL     1       4.648   3.880  15.589  0.00  0.00    +0.000 NA
ATOM     18  C   UNL     1       5.368   4.465  14.609  0.00  0.00    +0.000 A 
ATOM     19  H   UNL     1       4.999   3.011  18.713  0.00  0.00    +0.000 HD
ENDBRANCH   1  15
BRANCH   6  20
ATOM     20  C   UNL     1       2.470   6.706  19.945  0.00  0.00    +0.000 A 
ATOM     21  C   UNL     1       1.722   7.271  20.990  0.00  0.00    +0.000 A 
ATOM     22  C   UNL     1       1.058   8.496  20.833  0.00  0.00    +0.000 A 
ATOM     23  C   UNL     1       1.167   9.105  19.582  0.00  0.00    +0.000 A 
ATOM     24  N   UNL     1       0.634  10.250  19.044  0.00  0.00    +0.000 N 
ATOM     25  C   UNL     1       1.080  10.355  17.756  0.00  0.00    +0.000 A 
ATOM     26  N   UNL     1       1.894   9.376  17.437  0.00  0.00    +0.000 NA
ATOM     27  C   UNL     1       1.950   8.593  18.555  0.00  0.00    +0.000 A 
ATOM     28  C   UNL     1       2.665   7.414  18.758  0.00  0.00    +0.000 A 
ATOM     29  H   UNL     1       0.008  10.891  19.510  0.00  0.00    +0.000 HD
ENDBRANCH   6  20
TORSDOF 2
ENDMDL
MODEL 5
REMARK VINA RESULT:      -7.2      4.646      8.878
REMARK  Name = 
REMARK  3 active torsions:
REMARK  status: ('A' for Active; 'I' for Inactive)
REMARK    1  A    between atoms: C_1  and  C_2
REMARK    2  A    between atoms: C_7  and  C_9
REMARK    3  A    between atoms: C_14  and  C_16
REMARK                            x       y       z     vdW  Elec       q    Type
REMARK                         _______ _______ _______ _____ _____    ______ ____
ROOT
ATOM      1  C   UNL     1       0.818  13.028  18.548  0.00  0.00    +0.000 C 
ATOM      2  C   UNL     1       1.296  14.261  19.330  0.00  0.00    +0.000 C 
ATOM      3  C   UNL     1       0.386  14.649  20.499  0.00  0.00    +0.000 C 
ATOM      4  C   UNL     1      -1.086  14.663  20.079  0.00  0.00    +0.000 C 
ATOM      5  N   UNL     1      -1.436  13.370  19.471  0.00  0.00    +0.000 N 
ATOM      6  C   UNL     1      -2.474  12.494  19.814  0.00  0.00    +0.000 C 
ATOM      7  O   UNL     1      -2.811  11.552  19.094  0.00  0.00    +0.000 OA
ATOM      8  C   UNL     1      -0.679  13.080  18.249  0.00  0.00    +0.000 C 
ENDROOT
BRANCH   1  15
ATOM      9  C   UNL     1       2.563   5.316  19.790  0.00  0.00    +0.000 C 
ATOM     10  C   UNL     1       2.317   6.727  19.364  0.00  0.00    +0.000 A 
ATOM     11  C   UNL     1       2.605   7.178  18.079  0.00  0.00    +0.000 A 
ATOM     12  C   UNL     1       2.345   8.507  17.742  0.00  0.00    +0.000 A 
ATOM     13  C   UNL     1       1.817   9.364  18.705  0.00  0.00    +0.000 A 
ATOM     14  N   UNL     1       1.561  10.691  18.341  0.00  0.00    +0.000 N 
ATOM     15  C   UNL     1       1.235  11.710  19.210  0.00  0.00    +0.000 C 
ATOM     16  O   UNL     1       1.252  11.651  20.437  0.00  0.00    +0.000 OA
ATOM     17  N   UNL     1       1.521   8.935  19.943  0.00  0.00    +0.000 NA
ATOM     18  C   UNL     1       1.777   7.647  20.251  0.00  0.00    +0.000 A 
ATOM     19  H   UNL     1       1.725  10.938  17.378  0.00  0.00    +0.000 HD
ENDBRANCH   1  15
BRANCH   6  20
ATOM     20  C   UNL     1      -3.172  12.625  21.114  0.00  0.00    +0.000 A 
ATOM     21  C   UNL     1      -2.452  12.380  22.295  0.00  0.00    +0.000 A 
ATOM     22  C   UNL     1      -3.067  12.448  23.554  0.00  0.00    +0.000 A 
ATOM     23  C   UNL     1      -4.429  12.750  23.562  0.00  0.00    +0.000 A 
ATOM     24  N   UNL     1      -5.363  12.854  24.563  0.00  0.00    +0.000 N 
ATOM     25  C   UNL     1      -6.562  13.173  23.987  0.00  0.00    +0.000 A 
ATOM     26  N   UNL     1      -6.458  13.319  22.688  0.00  0.00    +0.000 NA
ATOM     27  C   UNL     1      -5.146  13.053  22.412  0.00  0.00    +0.000 A 
ATOM     28  C   UNL     1      -4.498  13.057  21.178  0.00  0.00    +0.000 A 
ATOM     29  H   UNL     1      -5.199  12.702  25.548  0.00  0.00    +0.000 HD
ENDBRANCH   6  20
TORSDOF 2
ENDMDL
MODEL 6
REMARK VINA RESULT:      -7.0      8.668     10.897
REMARK  Name = 
REMARK  3 active torsions:
REMARK  status: ('A' for Active; 'I' for Inactive)
REMARK    1  A    between atoms: C_1  and  C_2
REMARK    2  A    between atoms: C_7  and  C_9
REMARK    3  A    between atoms: C_14  and  C_16
REMARK                            x       y       z     vdW  Elec       q    Type
REMARK                         _______ _______ _______ _____ _____    ______ ____
ROOT
ATOM      1  C   UNL     1       9.642  12.732  17.985  0.00  0.00    +0.000 C 
ATOM      2  C   UNL     1       9.694  11.212  18.205  0.00  0.00    +0.000 C 
ATOM      3  C   UNL     1       9.310  10.774  19.620  0.00  0.00    +0.000 C 
ATOM      4  C   UNL     1      10.023  11.619  20.678  0.00  0.00    +0.000 C 
ATOM      5  N   UNL     1       9.771  13.045  20.420  0.00  0.00    +0.000 N 
ATOM      6  C   UNL     1       9.255  14.014  21.291  0.00  0.00    +0.000 C 
ATOM      7  O   UNL     1       9.298  15.221  21.040  0.00  0.00    +0.000 OA
ATOM      8  C   UNL     1      10.296  13.502  19.130  0.00  0.00    +0.000 C 
ENDROOT
BRANCH   1  15
ATOM      9  C   UNL     1       2.724  16.748  18.275  0.00  0.00    +0.000 C 
ATOM     10  C   UNL     1       4.105  16.177  18.289  0.00  0.00    +0.000 A 
ATOM     11  C   UNL     1       5.209  16.908  18.718  0.00  0.00    +0.000 A 
ATOM     12  C   UNL     1       6.472  16.315  18.713  0.00  0.00    +0.000 A 
ATOM     13  C   UNL     1       6.608  15.005  18.260  0.00  0.00    +0.000 A 
ATOM     14  N   UNL     1       7.885  14.431  18.268  0.00  0.00    +0.000 N 
ATOM     15  C   UNL     1       8.229  13.236  17.674  0.00  0.00    +0.000 C 
ATOM     16  O   UNL     1       7.515  12.560  16.936  0.00  0.00    +0.000 OA
ATOM     17  N   UNL     1       5.548  14.285  17.857  0.00  0.00    +0.000 NA
ATOM     18  C   UNL     1       4.334  14.874  17.871  0.00  0.00    +0.000 A 
ATOM     19  H   UNL     1       8.630  14.987  18.656  0.00  0.00    +0.000 HD
ENDBRANCH   1  15
BRANCH   6  20
ATOM     20  C   UNL     1       8.559  13.615  22.536  0.00  0.00    +0.000 A 
ATOM     21  C   UNL     1       9.008  14.139  23.759  0.00  0.00    +0.000 A 
ATOM     22  C   UNL     1       8.416  13.768  24.975  0.00  0.00    +0.000 A 
ATOM     23  C   UNL     1       7.376  12.840  24.900  0.00  0.00    +0.000 A 
ATOM     24  N   UNL     1       6.605  12.213  25.847  0.00  0.00    +0.000 N 
ATOM     25  C   UNL     1       5.731  11.387  25.197  0.00  0.00    +0.000 A 
ATOM     26  N   UNL     1       5.859  11.466  23.894  0.00  0.00    +0.000 NA
ATOM     27  C   UNL     1       6.877  12.355  23.698  0.00  0.00    +0.000 A 
ATOM     28  C   UNL     1       7.429  12.796  22.497  0.00  0.00    +0.000 A 
ATOM     29  H   UNL     1       6.683  12.326  26.848  0.00  0.00    +0.000 HD
ENDBRANCH   6  20
TORSDOF 2
ENDMDL
MODEL 7
REMARK VINA RESULT:      -6.8      3.645      6.874
REMARK  Name = 
REMARK  3 active torsions:
REMARK  status: ('A' for Active; 'I' for Inactive)
REMARK    1  A    between atoms: C_1  and  C_2
REMARK    2  A    between atoms: C_7  and  C_9
REMARK    3  A    between atoms: C_14  and  C_16
REMARK                            x       y       z     vdW  Elec       q    Type
REMARK                         _______ _______ _______ _____ _____    ______ ____
ROOT
ATOM      1  C   UNL     1       1.566   9.617  21.967  0.00  0.00    +0.000 C 
ATOM      2  C   UNL     1       0.642   9.216  23.127  0.00  0.00    +0.000 C 
ATOM      3  C   UNL     1      -0.814   9.652  22.944  0.00  0.00    +0.000 C 
ATOM      4  C   UNL     1      -0.907  11.114  22.501  0.00  0.00    +0.000 C 
ATOM      5  N   UNL     1      -0.082  11.317  21.301  0.00  0.00    +0.000 N 
ATOM      6  C   UNL     1      -0.454  11.857  20.063  0.00  0.00    +0.000 C 
ATOM      7  O   UNL     1       0.370  12.188  19.208  0.00  0.00    +0.000 OA
ATOM      8  C   UNL     1       1.345  11.063  21.528  0.00  0.00    +0.000 C 
ENDROOT
BRANCH   1  15
ATOM      9  C   UNL     1       2.379   3.088  17.409  0.00  0.00    +0.000 C 
ATOM     10  C   UNL     1       2.206   4.173  18.422  0.00  0.00    +0.000 A 
ATOM     11  C   UNL     1       2.061   3.907  19.780  0.00  0.00    +0.000 A 
ATOM     12  C   UNL     1       1.910   4.965  20.676  0.00  0.00    +0.000 A 
ATOM     13  C   UNL     1       1.889   6.271  20.192  0.00  0.00    +0.000 A 
ATOM     14  N   UNL     1       1.741   7.316  21.112  0.00  0.00    +0.000 N 
ATOM     15  C   UNL     1       1.500   8.635  20.792  0.00  0.00    +0.000 C 
ATOM     16  O   UNL     1       1.242   9.075  19.674  0.00  0.00    +0.000 OA
ATOM     17  N   UNL     1       2.044   6.540  18.885  0.00  0.00    +0.000 NA
ATOM     18  C   UNL     1       2.190   5.504  18.033  0.00  0.00    +0.000 A 
ATOM     19  H   UNL     1       1.712   7.062  22.087  0.00  0.00    +0.000 HD
ENDBRANCH   1  15
BRANCH   6  20
ATOM     20  C   UNL     1      -1.885  11.986  19.697  0.00  0.00    +0.000 A 
ATOM     21  C   UNL     1      -2.724  12.758  20.516  0.00  0.00    +0.000 A 
ATOM     22  C   UNL     1      -4.094  12.885  20.244  0.00  0.00    +0.000 A 
ATOM     23  C   UNL     1      -4.573  12.189  19.134  0.00  0.00    +0.000 A 
ATOM     24  N   UNL     1      -5.824  12.029  18.591  0.00  0.00    +0.000 N 
ATOM     25  C   UNL     1      -5.706  11.225  17.492  0.00  0.00    +0.000 A 
ATOM     26  N   UNL     1      -4.459  10.885  17.265  0.00  0.00    +0.000 NA
ATOM     27  C   UNL     1      -3.750  11.468  18.277  0.00  0.00    +0.000 A 
ATOM     28  C   UNL     1      -2.379  11.419  18.521  0.00  0.00    +0.000 A 
ATOM     29  H   UNL     1      -6.683  12.420  18.951  0.00  0.00    +0.000 HD
ENDBRANCH   6  20
TORSDOF 2
ENDMDL
MODEL 8
REMARK VINA RESULT:      -6.8      1.667      6.423
REMARK  Name = 
REMARK  3 active torsions:
REMARK  status: ('A' for Active; 'I' for Inactive)
REMARK    1  A    between atoms: C_1  and  C_2
REMARK    2  A    between atoms: C_7  and  C_9
REMARK    3  A    between atoms: C_14  and  C_16
REMARK                            x       y       z     vdW  Elec       q    Type
REMARK                         _______ _______ _______ _____ _____    ______ ____
ROOT
ATOM      1  C   UNL     1       1.865   2.799  20.307  0.00  0.00    +0.000 C 
ATOM      2  C   UNL     1       3.095   2.506  21.179  0.00  0.00    +0.000 C 
ATOM      3  C   UNL     1       4.432   2.774  20.482  0.00  0.00    +0.000 C 
ATOM      4  C   UNL     1       4.458   2.168  19.076  0.00  0.00    +0.000 C 
ATOM      5  N   UNL     1       3.296   2.646  18.313  0.00  0.00    +0.000 N 
ATOM      6  C   UNL     1       3.268   3.278  17.063  0.00  0.00    +0.000 C 
ATOM      7  O   UNL     1       2.228   3.430  16.419  0.00  0.00    +0.000 OA
ATOM      8  C   UNL     1       2.013   2.238  18.895  0.00  0.00    +0.000 C 
ENDROOT
BRANCH   1  15
ATOM      9  C   UNL     1       1.726  10.661  18.811  0.00  0.00    +0.000 C 
ATOM     10  C   UNL     1       1.817   9.171  18.890  0.00  0.00    +0.000 A 
ATOM     11  C   UNL     1       2.262   8.394  17.824  0.00  0.00    +0.000 A 
ATOM     12  C   UNL     1       2.329   7.008  17.964  0.00  0.00    +0.000 A 
ATOM     13  C   UNL     1       1.932   6.424  19.165  0.00  0.00    +0.000 A 
ATOM     14  N   UNL     1       2.014   5.031  19.282  0.00  0.00    +0.000 N 
ATOM     15  C   UNL     1       1.480   4.282  20.308  0.00  0.00    +0.000 C 
ATOM     16  O   UNL     1       0.740   4.694  21.199  0.00  0.00    +0.000 OA
ATOM     17  N   UNL     1       1.515   7.165  20.205  0.00  0.00    +0.000 NA
ATOM     18  C   UNL     1       1.458   8.504  20.052  0.00  0.00    +0.000 A 
ATOM     19  H   UNL     1       2.409   4.532  18.501  0.00  0.00    +0.000 HD
ENDBRANCH   1  15
BRANCH   6  20
ATOM     20  C   UNL     1       4.501   3.867  16.489  0.00  0.00    +0.000 A 
ATOM     21  C   UNL     1       5.244   4.770  17.267  0.00  0.00    +0.000 A 
ATOM     22  C   UNL     1       6.397   5.390  16.765  0.00  0.00    +0.000 A 
ATOM     23  C   UNL     1       6.748   5.076  15.452  0.00  0.00    +0.000 A 
ATOM     24  N   UNL     1       7.750   5.506  14.617  0.00  0.00    +0.000 N 
ATOM     25  C   UNL     1       7.608   4.858  13.422  0.00  0.00    +0.000 A 
ATOM     26  N   UNL     1       6.606   4.011  13.439  0.00  0.00    +0.000 NA
ATOM     27  C   UNL     1       6.062   4.142  14.686  0.00  0.00    +0.000 A 
ATOM     28  C   UNL     1       4.965   3.479  15.231  0.00  0.00    +0.000 A 
ATOM     29  H   UNL     1       8.455   6.193  14.840  0.00  0.00    +0.000 HD
ENDBRANCH   6  20
TORSDOF 2
ENDMDL
MODEL 9
REMARK VINA RESULT:      -6.8      6.894      8.450
REMARK  Name = 
REMARK  3 active torsions:
REMARK  status: ('A' for Active; 'I' for Inactive)
REMARK    1  A    between atoms: C_1  and  C_2
REMARK    2  A    between atoms: C_7  and  C_9
REMARK    3  A    between atoms: C_14  and  C_16
REMARK                            x       y       z     vdW  Elec       q    Type
REMARK                         _______ _______ _______ _____ _____    ______ ____
ROOT
ATOM      1  C   UNL     1       9.997  10.807  19.675  0.00  0.00    +0.000 C 
ATOM      2  C   UNL     1       9.560  10.982  21.137  0.00  0.00    +0.000 C 
ATOM      3  C   UNL     1       8.574  12.132  21.360  0.00  0.00    +0.000 C 
ATOM      4  C   UNL     1       9.036  13.407  20.651  0.00  0.00    +0.000 C 
ATOM      5  N   UNL     1       9.284  13.118  19.231  0.00  0.00    +0.000 N 
ATOM      6  C   UNL     1       8.757  13.758  18.102  0.00  0.00    +0.000 C 
ATOM      7  O   UNL     1       9.207  13.581  16.968  0.00  0.00    +0.000 OA
ATOM      8  C   UNL     1      10.354  12.138  19.017  0.00  0.00    +0.000 C 
ENDROOT
BRANCH   1  15
ATOM      9  C   UNL     1       6.019   4.766  16.245  0.00  0.00    +0.000 C 
ATOM     10  C   UNL     1       6.789   5.763  17.049  0.00  0.00    +0.000 A 
ATOM     11  C   UNL     1       7.324   5.459  18.298  0.00  0.00    +0.000 A 
ATOM     12  C   UNL     1       8.039   6.433  18.996  0.00  0.00    +0.000 A 
ATOM     13  C   UNL     1       8.190   7.700  18.437  0.00  0.00    +0.000 A 
ATOM     14  N   UNL     1       8.916   8.658  19.155  0.00  0.00    +0.000 N 
ATOM     15  C   UNL     1       8.989  10.000  18.849  0.00  0.00    +0.000 C 
ATOM     16  O   UNL     1       8.329  10.587  17.994  0.00  0.00    +0.000 OA
ATOM     17  N   UNL     1       7.691   8.000  17.226  0.00  0.00    +0.000 NA
ATOM     18  C   UNL     1       7.004   7.045  16.565  0.00  0.00    +0.000 A 
ATOM     19  H   UNL     1       9.337   8.356  20.019  0.00  0.00    +0.000 HD
ENDBRANCH   1  15
BRANCH   6  20
ATOM     20  C   UNL     1       7.566  14.633  18.219  0.00  0.00    +0.000 A 
ATOM     21  C   UNL     1       7.743  15.959  18.649  0.00  0.00    +0.000 A 
ATOM     22  C   UNL     1       6.651  16.823  18.818  0.00  0.00    +0.000 A 
ATOM     23  C   UNL     1       5.390  16.287  18.556  0.00  0.00    +0.000 A 
ATOM     24  N   UNL     1       4.116  16.789  18.652  0.00  0.00    +0.000 N 
ATOM     25  C   UNL     1       3.246  15.807  18.267  0.00  0.00    +0.000 A 
ATOM     26  N   UNL     1       3.873  14.717  17.893  0.00  0.00    +0.000 NA
ATOM     27  C   UNL     1       5.198  14.998  18.073  0.00  0.00    +0.000 A 
ATOM     28  C   UNL     1       6.302  14.182  17.838  0.00  0.00    +0.000 A 
ATOM     29  H   UNL     1       3.863  17.714  18.970  0.00  0.00    +0.000 HD
ENDBRANCH   6  20
TORSDOF 2
ENDMDL
