MODEL 1
REMARK VINA RESULT:      -8.3      0.000      0.000
REMARK  Name = 
REMARK  7 active torsions:
REMARK  status: ('A' for Active; 'I' for Inactive)
REMARK    1  A    between atoms: C_1  and  C_2
REMARK    2  A    between atoms: C_4  and  C_5
REMARK    3  A    between atoms: N_6  and  C_7
REMARK    4  A    between atoms: C_11  and  C_12
REMARK    5  A    between atoms: C_12  and  N_13
REMARK    6  A    between atoms: C_14  and  C_16
REMARK    7  A    between atoms: C_18  and  C_19
REMARK                            x       y       z     vdW  Elec       q    Type
REMARK                         _______ _______ _______ _____ _____    ______ ____
ROOT
ATOM      1  N   UNL     1       5.655   4.100  18.953  0.00  0.00    +0.000 N 
ATOM      2  C   UNL     1       5.846   4.405  17.624  0.00  0.00    +0.000 C 
ATOM      3  O   UNL     1       5.375   3.746  16.703  0.00  0.00    +0.000 OA
ATOM      4  H   UNL     1       5.973   4.794  19.623  0.00  0.00    +0.000 HD
ENDROOT
BRANCH   2   5
ATOM      5  C   UNL     1       6.671   5.603  17.395  0.00  0.00    +0.000 A 
ATOM      6  C   UNL     1       6.956   6.620  18.347  0.00  0.00    +0.000 A 
ATOM      7  C   UNL     1       7.729   7.543  17.683  0.00  0.00    +0.000 A 
ATOM      8  N   UNL     1       7.871   7.055  16.415  0.00  0.00    +0.000 N 
ATOM      9  N   UNL     1       7.257   5.870  16.210  0.00  0.00    +0.000 NA
ATOM     10  H   UNL     1       8.374   7.488  15.648  0.00  0.00    +0.000 HD
BRANCH   7  11
ATOM     11  C   UNL     1       8.308   8.775  18.106  0.00  0.00    +0.000 A 
ATOM     12  C   UNL     1       8.295  10.007  17.473  0.00  0.00    +0.000 A 
ATOM     13  C   UNL     1       9.008  10.912  18.298  0.00  0.00    +0.000 A 
ATOM     14  C   UNL     1       9.420  10.181  19.390  0.00  0.00    +0.000 A 
ATOM     15  O   UNL     1       9.000   8.897  19.284  0.00  0.00    +0.000 OA
ENDBRANCH   7  11
ENDBRANCH   2   5
BRANCH   1  16
ATOM     16  C   UNL     1       4.804   3.011  19.355  0.00  0.00    +0.000 C 
BRANCH  16  21
ATOM     17  C   UNL     1       1.908   5.297  20.328  0.00  0.00    +0.000 A 
ATOM     18  C   UNL     1       0.867   4.372  20.482  0.00  0.00    +0.000 A 
ATOM     19  C   UNL     1       1.103   3.011  20.272  0.00  0.00    +0.000 A 
ATOM     20  C   UNL     1       2.378   2.564  19.917  0.00  0.00    +0.000 A 
ATOM     21  C   UNL     1       3.437   3.469  19.791  0.00  0.00    +0.000 A 
ATOM     22  C   UNL     1       3.197   4.829  20.040  0.00  0.00    +0.000 A 
BRANCH  17  28
ATOM     23  C   UNL     1       0.172   9.360  22.299  0.00  0.00    +0.000 C 
ATOM     24  C   UNL     1       0.854   8.491  21.308  0.00  0.00    +0.000 A 
ATOM     25  C   UNL     1       1.476   8.884  20.112  0.00  0.00    +0.000 A 
ATOM     26  C   UNL     1       1.932   7.718  19.533  0.00  0.00    +0.000 A 
ATOM     27  C   UNL     1       2.519   7.547  18.179  0.00  0.00    +0.000 C 
ATOM     28  N   UNL     1       1.626   6.693  20.425  0.00  0.00    +0.000 N 
ATOM     29  N   UNL     1       0.899   7.168  21.477  0.00  0.00    +0.000 NA
ENDBRANCH  17  28
ENDBRANCH  16  21
ENDBRANCH   1  16
TORSDOF 5
ENDMDL
MODEL 2
REMARK VINA RESULT:      -8.3      5.298      9.571
REMARK  Name = 
REMARK  7 active torsions:
REMARK  status: ('A' for Active; 'I' for Inactive)
REMARK    1  A    between atoms: C_1  and  C_2
REMARK    2  A    between atoms: C_4  and  C_5
REMARK    3  A    between atoms: N_6  and  C_7
REMARK    4  A    between atoms: C_11  and  C_12
REMARK    5  A    between atoms: C_12  and  N_13
REMARK    6  A    between atoms: C_14  and  C_16
REMARK    7  A    between atoms: C_18  and  C_19
REMARK                            x       y       z     vdW  Elec       q    Type
REMARK                         _______ _______ _______ _____ _____    ______ ____
ROOT
ATOM      1  N   UNL     1       0.698   9.516  17.724  0.00  0.00    +0.000 N 
ATOM      2  C   UNL     1      -0.075  10.487  18.321  0.00  0.00    +0.000 C 
ATOM      3  O   UNL     1       0.359  11.289  19.140  0.00  0.00    +0.000 OA
ATOM      4  H   UNL     1       0.265   9.003  16.962  0.00  0.00    +0.000 HD
ENDROOT
BRANCH   2   5
ATOM      5  C   UNL     1      -1.483  10.485  17.888  0.00  0.00    +0.000 A 
ATOM      6  C   UNL     1      -2.535  11.255  18.455  0.00  0.00    +0.000 A 
ATOM      7  C   UNL     1      -3.667  10.906  17.757  0.00  0.00    +0.000 A 
ATOM      8  N   UNL     1      -3.258   9.983  16.837  0.00  0.00    +0.000 N 
ATOM      9  N   UNL     1      -1.934   9.717  16.876  0.00  0.00    +0.000 NA
ATOM     10  H   UNL     1      -3.837   9.500  16.157  0.00  0.00    +0.000 HD
BRANCH   7  11
ATOM     11  C   UNL     1      -5.022  11.332  17.873  0.00  0.00    +0.000 A 
ATOM     12  C   UNL     1      -5.683  12.335  17.184  0.00  0.00    +0.000 A 
ATOM     13  C   UNL     1      -7.017  12.366  17.661  0.00  0.00    +0.000 A 
ATOM     14  C   UNL     1      -7.097  11.380  18.619  0.00  0.00    +0.000 A 
ATOM     15  O   UNL     1      -5.903  10.751  18.750  0.00  0.00    +0.000 OA
ENDBRANCH   7  11
ENDBRANCH   2   5
BRANCH   1  16
ATOM     16  C   UNL     1       2.113   9.432  17.971  0.00  0.00    +0.000 C 
BRANCH  16  21
ATOM     17  C   UNL     1       4.031   6.133  17.994  0.00  0.00    +0.000 A 
ATOM     18  C   UNL     1       3.494   5.510  19.128  0.00  0.00    +0.000 A 
ATOM     19  C   UNL     1       2.513   6.158  19.884  0.00  0.00    +0.000 A 
ATOM     20  C   UNL     1       2.055   7.423  19.508  0.00  0.00    +0.000 A 
ATOM     21  C   UNL     1       2.556   8.045  18.359  0.00  0.00    +0.000 A 
ATOM     22  C   UNL     1       3.514   7.370  17.587  0.00  0.00    +0.000 A 
BRANCH  17  28
ATOM     23  C   UNL     1       6.283   3.879  14.353  0.00  0.00    +0.000 C 
ATOM     24  C   UNL     1       6.107   4.516  15.681  0.00  0.00    +0.000 A 
ATOM     25  C   UNL     1       7.084   4.708  16.672  0.00  0.00    +0.000 A 
ATOM     26  C   UNL     1       6.428   5.313  17.724  0.00  0.00    +0.000 A 
ATOM     27  C   UNL     1       6.957   5.587  19.085  0.00  0.00    +0.000 C 
ATOM     28  N   UNL     1       5.116   5.515  17.302  0.00  0.00    +0.000 N 
ATOM     29  N   UNL     1       4.911   4.956  16.075  0.00  0.00    +0.000 NA
ENDBRANCH  17  28
ENDBRANCH  16  21
ENDBRANCH   1  16
TORSDOF 5
ENDMDL
MODEL 3
REMARK VINA RESULT:      -8.2      2.676      3.904
REMARK  Name = 
REMARK  7 active torsions:
REMARK  status: ('A' for Active; 'I' for Inactive)
REMARK    1  A    between atoms: C_1  and  C_2
REMARK    2  A    between atoms: C_4  and  C_5
REMARK    3  A    between atoms: N_6  and  C_7
REMARK    4  A    between atoms: C_11  and  C_12
REMARK    5  A    between atoms: C_12  and  N_13
REMARK    6  A    between atoms: C_14  and  C_16
REMARK    7  A    between atoms: C_18  and  C_19
REMARK                            x       y       z     vdW  Elec       q    Type
REMARK                         _______ _______ _______ _____ _____    ______ ____
ROOT
ATOM      1  N   UNL     1       5.142   3.335  18.632  0.00  0.00    +0.000 N 
ATOM      2  C   UNL     1       5.977   4.429  18.593  0.00  0.00    +0.000 C 
ATOM      3  O   UNL     1       6.276   5.089  19.582  0.00  0.00    +0.000 OA
ATOM      4  H   UNL     1       5.080   2.786  17.780  0.00  0.00    +0.000 HD
ENDROOT
BRANCH   2   5
ATOM      5  C   UNL     1       6.489   4.746  17.249  0.00  0.00    +0.000 A 
ATOM      6  C   UNL     1       6.147   4.077  16.042  0.00  0.00    +0.000 A 
ATOM      7  C   UNL     1       6.885   4.690  15.057  0.00  0.00    +0.000 A 
ATOM      8  N   UNL     1       7.605   5.662  15.692  0.00  0.00    +0.000 N 
ATOM      9  N   UNL     1       7.375   5.737  17.020  0.00  0.00    +0.000 NA
ATOM     10  H   UNL     1       8.268   6.304  15.270  0.00  0.00    +0.000 HD
BRANCH   7  11
ATOM     11  C   UNL     1       6.976   4.454  13.654  0.00  0.00    +0.000 A 
ATOM     12  C   UNL     1       7.696   5.150  12.698  0.00  0.00    +0.000 A 
ATOM     13  C   UNL     1       7.457   4.523  11.451  0.00  0.00    +0.000 A 
ATOM     14  C   UNL     1       6.600   3.477  11.713  0.00  0.00    +0.000 A 
ATOM     15  O   UNL     1       6.309   3.428  13.036  0.00  0.00    +0.000 OA
ENDBRANCH   7  11
ENDBRANCH   2   5
BRANCH   1  16
ATOM     16  C   UNL     1       4.621   2.837  19.878  0.00  0.00    +0.000 C 
BRANCH  16  21
ATOM     17  C   UNL     1       1.785   5.308  20.521  0.00  0.00    +0.000 A 
ATOM     18  C   UNL     1       0.693   4.442  20.667  0.00  0.00    +0.000 A 
ATOM     19  C   UNL     1       0.876   3.061  20.557  0.00  0.00    +0.000 A 
ATOM     20  C   UNL     1       2.147   2.536  20.312  0.00  0.00    +0.000 A 
ATOM     21  C   UNL     1       3.254   3.383  20.197  0.00  0.00    +0.000 A 
ATOM     22  C   UNL     1       3.065   4.766  20.345  0.00  0.00    +0.000 A 
BRANCH  17  28
ATOM     23  C   UNL     1       0.181   9.571  22.150  0.00  0.00    +0.000 C 
ATOM     24  C   UNL     1       0.851   8.606  21.244  0.00  0.00    +0.000 A 
ATOM     25  C   UNL     1       1.525   8.886  20.045  0.00  0.00    +0.000 A 
ATOM     26  C   UNL     1       1.943   7.663  19.562  0.00  0.00    +0.000 A 
ATOM     27  C   UNL     1       2.561   7.372  18.243  0.00  0.00    +0.000 C 
ATOM     28  N   UNL     1       1.565   6.718  20.513  0.00  0.00    +0.000 N 
ATOM     29  N   UNL     1       0.830   7.297  21.505  0.00  0.00    +0.000 NA
ENDBRANCH  17  28
ENDBRANCH  16  21
ENDBRANCH   1  16
TORSDOF 5
ENDMDL
MODEL 4
REMARK VINA RESULT:      -8.0      1.726      2.331
REMARK  Name = 
REMARK  7 active torsions:
REMARK  status: ('A' for Active; 'I' for Inactive)
REMARK    1  A    between atoms: C_1  and  C_2
REMARK    2  A    between atoms: C_4  and  C_5
REMARK    3  A    between atoms: N_6  and  C_7
REMARK    4  A    between atoms: C_11  and  C_12
REMARK    5  A    between atoms: C_12  and  N_13
REMARK    6  A    between atoms: C_14  and  C_16
REMARK    7  A    between atoms: C_18  and  C_19
REMARK                            x       y       z     vdW  Elec       q    Type
REMARK                         _______ _______ _______ _____ _____    ______ ____
ROOT
ATOM      1  N   UNL     1       6.810   6.054  18.596  0.00  0.00    +0.000 N 
ATOM      2  C   UNL     1       7.361   6.702  17.513  0.00  0.00    +0.000 C 
ATOM      3  O   UNL     1       7.460   6.198  16.400  0.00  0.00    +0.000 OA
ATOM      4  H   UNL     1       6.654   6.619  19.425  0.00  0.00    +0.000 HD
ENDROOT
BRANCH   2   5
ATOM      5  C   UNL     1       7.829   8.068  17.804  0.00  0.00    +0.000 A 
ATOM      6  C   UNL     1       8.780   8.435  18.794  0.00  0.00    +0.000 A 
ATOM      7  C   UNL     1       8.878   9.805  18.724  0.00  0.00    +0.000 A 
ATOM      8  N   UNL     1       8.018  10.181  17.732  0.00  0.00    +0.000 N 
ATOM      9  N   UNL     1       7.378   9.151  17.139  0.00  0.00    +0.000 NA
ATOM     10  H   UNL     1       7.826  11.127  17.417  0.00  0.00    +0.000 HD
BRANCH   7  11
ATOM     11  C   UNL     1       9.656  10.740  19.467  0.00  0.00    +0.000 A 
ATOM     12  C   UNL     1      10.881  11.303  19.149  0.00  0.00    +0.000 A 
ATOM     13  C   UNL     1      11.234  12.171  20.211  0.00  0.00    +0.000 A 
ATOM     14  C   UNL     1      10.206  12.089  21.123  0.00  0.00    +0.000 A 
ATOM     15  O   UNL     1       9.252  11.233  20.682  0.00  0.00    +0.000 OA
ENDBRANCH   7  11
ENDBRANCH   2   5
BRANCH   1  16
ATOM     16  C   UNL     1       6.227   4.745  18.465  0.00  0.00    +0.000 C 
BRANCH  16  21
ATOM     17  C   UNL     1       2.712   5.942  19.345  0.00  0.00    +0.000 A 
ATOM     18  C   UNL     1       1.943   4.828  18.983  0.00  0.00    +0.000 A 
ATOM     19  C   UNL     1       2.563   3.692  18.455  0.00  0.00    +0.000 A 
ATOM     20  C   UNL     1       3.950   3.656  18.295  0.00  0.00    +0.000 A 
ATOM     21  C   UNL     1       4.736   4.746  18.683  0.00  0.00    +0.000 A 
ATOM     22  C   UNL     1       4.108   5.867  19.245  0.00  0.00    +0.000 A 
BRANCH  17  28
ATOM     23  C   UNL     1       0.252   8.856  22.321  0.00  0.00    +0.000 C 
ATOM     24  C   UNL     1       0.967   8.424  21.095  0.00  0.00    +0.000 A 
ATOM     25  C   UNL     1       1.222   9.185  19.943  0.00  0.00    +0.000 A 
ATOM     26  C   UNL     1       1.886   8.338  19.081  0.00  0.00    +0.000 A 
ATOM     27  C   UNL     1       2.244   8.587  17.661  0.00  0.00    +0.000 C 
ATOM     28  N   UNL     1       2.058   7.138  19.768  0.00  0.00    +0.000 N 
ATOM     29  N   UNL     1       1.426   7.177  20.975  0.00  0.00    +0.000 NA
ENDBRANCH  17  28
ENDBRANCH  16  21
ENDBRANCH   1  16
TORSDOF 5
ENDMDL
MODEL 5
REMARK VINA RESULT:      -8.0      3.310      8.760
REMARK  Name = 
REMARK  7 active torsions:
REMARK  status: ('A' for Active; 'I' for Inactive)
REMARK    1  A    between atoms: C_1  and  C_2
REMARK    2  A    between atoms: C_4  and  C_5
REMARK    3  A    between atoms: N_6  and  C_7
REMARK    4  A    between atoms: C_11  and  C_12
REMARK    5  A    between atoms: C_12  and  N_13
REMARK    6  A    between atoms: C_14  and  C_16
REMARK    7  A    between atoms: C_18  and  C_19
REMARK                            x       y       z     vdW  Elec       q    Type
REMARK                         _______ _______ _______ _____ _____    ______ ____
ROOT
ATOM      1  N   UNL     1       7.411   8.180  17.942  0.00  0.00    +0.000 N 
ATOM      2  C   UNL     1       7.204   6.951  17.359  0.00  0.00    +0.000 C 
ATOM      3  O   UNL     1       7.672   6.628  16.272  0.00  0.00    +0.000 OA
ATOM      4  H   UNL     1       7.092   8.282  18.901  0.00  0.00    +0.000 HD
ENDROOT
BRANCH   2   5
ATOM      5  C   UNL     1       6.363   6.041  18.156  0.00  0.00    +0.000 A 
ATOM      6  C   UNL     1       4.943   6.056  18.224  0.00  0.00    +0.000 A 
ATOM      7  C   UNL     1       4.605   5.058  19.108  0.00  0.00    +0.000 A 
ATOM      8  N   UNL     1       5.789   4.509  19.510  0.00  0.00    +0.000 N 
ATOM      9  N   UNL     1       6.876   5.069  18.937  0.00  0.00    +0.000 NA
ATOM     10  H   UNL     1       5.917   3.751  20.172  0.00  0.00    +0.000 HD
BRANCH   7  11
ATOM     11  C   UNL     1       3.341   4.604  19.587  0.00  0.00    +0.000 A 
ATOM     12  C   UNL     1       2.396   5.285  20.335  0.00  0.00    +0.000 A 
ATOM     13  C   UNL     1       1.313   4.398  20.554  0.00  0.00    +0.000 A 
ATOM     14  C   UNL     1       1.658   3.221  19.929  0.00  0.00    +0.000 A 
ATOM     15  O   UNL     1       2.875   3.337  19.343  0.00  0.00    +0.000 OA
ENDBRANCH   7  11
ENDBRANCH   2   5
BRANCH   1  16
ATOM     16  C   UNL     1       8.278   9.157  17.337  0.00  0.00    +0.000 C 
BRANCH  16  21
ATOM     17  C   UNL     1       9.287  12.516  18.841  0.00  0.00    +0.000 A 
ATOM     18  C   UNL     1       9.575  12.150  20.163  0.00  0.00    +0.000 A 
ATOM     19  C   UNL     1       9.442  10.818  20.565  0.00  0.00    +0.000 A 
ATOM     20  C   UNL     1       9.032   9.844  19.652  0.00  0.00    +0.000 A 
ATOM     21  C   UNL     1       8.773  10.185  18.320  0.00  0.00    +0.000 A 
ATOM     22  C   UNL     1       8.945  11.518  17.918  0.00  0.00    +0.000 A 
BRANCH  17  28
ATOM     23  C   UNL     1      11.084  16.592  16.955  0.00  0.00    +0.000 C 
ATOM     24  C   UNL     1      10.113  15.699  17.634  0.00  0.00    +0.000 A 
ATOM     25  C   UNL     1       8.833  16.030  18.105  0.00  0.00    +0.000 A 
ATOM     26  C   UNL     1       8.342  14.876  18.680  0.00  0.00    +0.000 A 
ATOM     27  C   UNL     1       7.095  14.717  19.473  0.00  0.00    +0.000 C 
ATOM     28  N   UNL     1       9.309  13.895  18.475  0.00  0.00    +0.000 N 
ATOM     29  N   UNL     1      10.423  14.428  17.898  0.00  0.00    +0.000 NA
ENDBRANCH  17  28
ENDBRANCH  16  21
ENDBRANCH   1  16
TORSDOF 5
ENDMDL
MODEL 6
REMARK VINA RESULT:      -7.9      5.549      9.697
REMARK  Name = 
REMARK  7 active torsions:
REMARK  status: ('A' for Active; 'I' for Inactive)
REMARK    1  A    between atoms: C_1  and  C_2
REMARK    2  A    between atoms: C_4  and  C_5
REMARK    3  A    between atoms: N_6  and  C_7
REMARK    4  A    between atoms: C_11  and  C_12
REMARK    5  A    between atoms: C_12  and  N_13
REMARK    6  A    between atoms: C_14  and  C_16
REMARK    7  A    between atoms: C_18  and  C_19
REMARK                            x       y       z     vdW  Elec       q    Type
REMARK                         _______ _______ _______ _____ _____    ______ ____
ROOT
ATOM      1  N   UNL     1       0.408   9.901  17.733  0.00  0.00    +0.000 N 
ATOM      2  C   UNL     1      -0.461  10.556  18.575  0.00  0.00    +0.000 C 
ATOM      3  O   UNL     1      -0.142  10.987  19.677  0.00  0.00    +0.000 OA
ATOM      4  H   UNL     1       0.069   9.714  16.794  0.00  0.00    +0.000 HD
ENDROOT
BRANCH   2   5
ATOM      5  C   UNL     1      -1.825  10.699  18.038  0.00  0.00    +0.000 A 
ATOM      6  C   UNL     1      -2.838  11.560  18.542  0.00  0.00    +0.000 A 
ATOM      7  C   UNL     1      -3.942  11.335  17.753  0.00  0.00    +0.000 A 
ATOM      8  N   UNL     1      -3.555  10.390  16.845  0.00  0.00    +0.000 N 
ATOM      9  N   UNL     1      -2.270   9.995  16.978  0.00  0.00    +0.000 NA
ATOM     10  H   UNL     1      -4.124   9.977  16.114  0.00  0.00    +0.000 HD
BRANCH   7  11
ATOM     11  C   UNL     1      -5.254  11.890  17.776  0.00  0.00    +0.000 A 
ATOM     12  C   UNL     1      -6.266  11.698  18.702  0.00  0.00    +0.000 A 
ATOM     13  C   UNL     1      -7.376  12.471  18.281  0.00  0.00    +0.000 A 
ATOM     14  C   UNL     1      -6.982  13.092  17.117  0.00  0.00    +0.000 A 
ATOM     15  O   UNL     1      -5.707  12.751  16.809  0.00  0.00    +0.000 OA
ENDBRANCH   7  11
ENDBRANCH   2   5
BRANCH   1  16
ATOM     16  C   UNL     1       1.800   9.750  18.067  0.00  0.00    +0.000 C 
BRANCH  16  21
ATOM     17  C   UNL     1       3.232   6.216  18.217  0.00  0.00    +0.000 A 
ATOM     18  C   UNL     1       2.878   5.830  19.517  0.00  0.00    +0.000 A 
ATOM     19  C   UNL     1       2.177   6.714  20.342  0.00  0.00    +0.000 A 
ATOM     20  C   UNL     1       1.817   7.979  19.874  0.00  0.00    +0.000 A 
ATOM     21  C   UNL     1       2.132   8.368  18.568  0.00  0.00    +0.000 A 
ATOM     22  C   UNL     1       2.804   7.461  17.736  0.00  0.00    +0.000 A 
BRANCH  17  28
ATOM     23  C   UNL     1       7.030   4.938  15.506  0.00  0.00    +0.000 C 
ATOM     24  C   UNL     1       5.741   4.795  16.228  0.00  0.00    +0.000 A 
ATOM     25  C   UNL     1       4.949   3.642  16.341  0.00  0.00    +0.000 A 
ATOM     26  C   UNL     1       3.847   4.021  17.078  0.00  0.00    +0.000 A 
ATOM     27  C   UNL     1       2.621   3.228  17.350  0.00  0.00    +0.000 C 
ATOM     28  N   UNL     1       4.052   5.354  17.429  0.00  0.00    +0.000 N 
ATOM     29  N   UNL     1       5.181   5.841  16.840  0.00  0.00    +0.000 NA
ENDBRANCH  17  28
ENDBRANCH  16  21
ENDBRANCH   1  16
TORSDOF 5
ENDMDL
MODEL 7
REMARK VINA RESULT:      -7.9      5.102      9.836
REMARK  Name = 
REMARK  7 active torsions:
REMARK  status: ('A' for Active; 'I' for Inactive)
REMARK    1  A    between atoms: C_1  and  C_2
REMARK    2  A    between atoms: C_4  and  C_5
REMARK    3  A    between atoms: N_6  and  C_7
REMARK    4  A    between atoms: C_11  and  C_12
REMARK    5  A    between atoms: C_12  and  N_13
REMARK    6  A    between atoms: C_14  and  C_16
REMARK    7  A    between atoms: C_18  and  C_19
REMARK                            x       y       z     vdW  Elec       q    Type
REMARK                         _______ _______ _______ _____ _____    ______ ____
ROOT
ATOM      1  N   UNL     1      -0.063   9.589  21.590  0.00  0.00    +0.000 N 
ATOM      2  C   UNL     1      -0.191  10.158  22.837  0.00  0.00    +0.000 C 
ATOM      3  O   UNL     1       0.262   9.657  23.861  0.00  0.00    +0.000 OA
ATOM      4  H   UNL     1      -0.354  10.161  20.803  0.00  0.00    +0.000 HD
ENDROOT
BRANCH   2   5
ATOM      5  C   UNL     1      -0.925  11.435  22.842  0.00  0.00    +0.000 A 
ATOM      6  C   UNL     1      -2.256  11.635  23.300  0.00  0.00    +0.000 A 
ATOM      7  C   UNL     1      -2.525  12.966  23.085  0.00  0.00    +0.000 A 
ATOM      8  N   UNL     1      -1.388  13.484  22.534  0.00  0.00    +0.000 N 
ATOM      9  N   UNL     1      -0.389  12.587  22.390  0.00  0.00    +0.000 NA
ATOM     10  H   UNL     1      -1.236  14.442  22.236  0.00  0.00    +0.000 HD
BRANCH   7  11
ATOM     11  C   UNL     1      -3.690  13.750  23.329  0.00  0.00    +0.000 A 
ATOM     12  C   UNL     1      -3.787  15.027  23.856  0.00  0.00    +0.000 A 
ATOM     13  C   UNL     1      -5.163  15.363  23.897  0.00  0.00    +0.000 A 
ATOM     14  C   UNL     1      -5.832  14.269  23.396  0.00  0.00    +0.000 A 
ATOM     15  O   UNL     1      -4.954  13.296  23.049  0.00  0.00    +0.000 OA
ENDBRANCH   7  11
ENDBRANCH   2   5
BRANCH   1  16
ATOM     16  C   UNL     1       0.698   8.383  21.394  0.00  0.00    +0.000 C 
BRANCH  16  21
ATOM     17  C   UNL     1       2.841   7.171  18.479  0.00  0.00    +0.000 A 
ATOM     18  C   UNL     1       2.657   8.206  17.553  0.00  0.00    +0.000 A 
ATOM     19  C   UNL     1       1.840   9.294  17.873  0.00  0.00    +0.000 A 
ATOM     20  C   UNL     1       1.212   9.361  19.119  0.00  0.00    +0.000 A 
ATOM     21  C   UNL     1       1.412   8.353  20.068  0.00  0.00    +0.000 A 
ATOM     22  C   UNL     1       2.262   7.284  19.750  0.00  0.00    +0.000 A 
BRANCH  17  28
ATOM     23  C   UNL     1       6.745   4.549  17.345  0.00  0.00    +0.000 C 
ATOM     24  C   UNL     1       5.315   4.853  17.595  0.00  0.00    +0.000 A 
ATOM     25  C   UNL     1       4.229   3.965  17.533  0.00  0.00    +0.000 A 
ATOM     26  C   UNL     1       3.114   4.726  17.815  0.00  0.00    +0.000 A 
ATOM     27  C   UNL     1       1.688   4.315  17.722  0.00  0.00    +0.000 C 
ATOM     28  N   UNL     1       3.577   6.009  18.096  0.00  0.00    +0.000 N 
ATOM     29  N   UNL     1       4.921   6.095  17.886  0.00  0.00    +0.000 NA
ENDBRANCH  17  28
ENDBRANCH  16  21
ENDBRANCH   1  16
TORSDOF 5
ENDMDL
MODEL 8
REMARK VINA RESULT:      -7.9      3.369      8.713
REMARK  Name = 
REMARK  7 active torsions:
REMARK  status: ('A' for Active; 'I' for Inactive)
REMARK    1  A    between atoms: C_1  and  C_2
REMARK    2  A    between atoms: C_4  and  C_5
REMARK    3  A    between atoms: N_6  and  C_7
REMARK    4  A    between atoms: C_11  and  C_12
REMARK    5  A    between atoms: C_12  and  N_13
REMARK    6  A    between atoms: C_14  and  C_16
REMARK    7  A    between atoms: C_18  and  C_19
REMARK                            x       y       z     vdW  Elec       q    Type
REMARK                         _______ _______ _______ _____ _____    ______ ____
ROOT
ATOM      1  N   UNL     1       7.623   8.242  18.058  0.00  0.00    +0.000 N 
ATOM      2  C   UNL     1       7.292   7.080  17.399  0.00  0.00    +0.000 C 
ATOM      3  O   UNL     1       7.638   6.831  16.249  0.00  0.00    +0.000 OA
ATOM      4  H   UNL     1       7.400   8.275  19.049  0.00  0.00    +0.000 HD
ENDROOT
BRANCH   2   5
ATOM      5  C   UNL     1       6.478   6.147  18.197  0.00  0.00    +0.000 A 
ATOM      6  C   UNL     1       5.069   5.980  18.111  0.00  0.00    +0.000 A 
ATOM      7  C   UNL     1       4.750   5.034  19.058  0.00  0.00    +0.000 A 
ATOM      8  N   UNL     1       5.935   4.688  19.640  0.00  0.00    +0.000 N 
ATOM      9  N   UNL     1       7.008   5.330  19.130  0.00  0.00    +0.000 NA
ATOM     10  H   UNL     1       6.074   4.019  20.392  0.00  0.00    +0.000 HD
BRANCH   7  11
ATOM     11  C   UNL     1       3.503   4.464  19.446  0.00  0.00    +0.000 A 
ATOM     12  C   UNL     1       2.590   4.919  20.383  0.00  0.00    +0.000 A 
ATOM     13  C   UNL     1       1.511   4.001  20.400  0.00  0.00    +0.000 A 
ATOM     14  C   UNL     1       1.825   3.033  19.473  0.00  0.00    +0.000 A 
ATOM     15  O   UNL     1       3.019   3.305  18.893  0.00  0.00    +0.000 OA
ENDBRANCH   7  11
ENDBRANCH   2   5
BRANCH   1  16
ATOM     16  C   UNL     1       8.484   9.224  17.454  0.00  0.00    +0.000 C 
BRANCH  16  21
ATOM     17  C   UNL     1       9.283  12.667  18.892  0.00  0.00    +0.000 A 
ATOM     18  C   UNL     1       9.571  12.349  20.225  0.00  0.00    +0.000 A 
ATOM     19  C   UNL     1       9.506  11.021  20.658  0.00  0.00    +0.000 A 
ATOM     20  C   UNL     1       9.165  10.005  19.762  0.00  0.00    +0.000 A 
ATOM     21  C   UNL     1       8.907  10.301  18.419  0.00  0.00    +0.000 A 
ATOM     22  C   UNL     1       9.010  11.631  17.988  0.00  0.00    +0.000 A 
BRANCH  17  28
ATOM     23  C   UNL     1       7.421  17.111  18.453  0.00  0.00    +0.000 C 
ATOM     24  C   UNL     1       8.400  16.006  18.304  0.00  0.00    +0.000 A 
ATOM     25  C   UNL     1       9.662  16.060  17.691  0.00  0.00    +0.000 A 
ATOM     26  C   UNL     1      10.171  14.781  17.780  0.00  0.00    +0.000 A 
ATOM     27  C   UNL     1      11.405  14.250  17.146  0.00  0.00    +0.000 C 
ATOM     28  N   UNL     1       9.234  14.037  18.493  0.00  0.00    +0.000 N 
ATOM     29  N   UNL     1       8.118  14.779  18.745  0.00  0.00    +0.000 NA
ENDBRANCH  17  28
ENDBRANCH  16  21
ENDBRANCH   1  16
TORSDOF 5
ENDMDL
MODEL 9
REMARK VINA RESULT:      -7.9      1.254      1.644
REMARK  Name = 
REMARK  7 active torsions:
REMARK  status: ('A' for Active; 'I' for Inactive)
REMARK    1  A    between atoms: C_1  and  C_2
REMARK    2  A    between atoms: C_4  and  C_5
REMARK    3  A    between atoms: N_6  and  C_7
REMARK    4  A    between atoms: C_11  and  C_12
REMARK    5  A    between atoms: C_12  and  N_13
REMARK    6  A    between atoms: C_14  and  C_16
REMARK    7  A    between atoms: C_18  and  C_19
REMARK                            x       y       z     vdW  Elec       q    Type
REMARK                         _______ _______ _______ _____ _____    ______ ____
ROOT
ATOM      1  N   UNL     1       5.980   5.565  18.724  0.00  0.00    +0.000 N 
ATOM      2  C   UNL     1       7.197   5.667  18.090  0.00  0.00    +0.000 C 
ATOM      3  O   UNL     1       7.817   4.703  17.655  0.00  0.00    +0.000 OA
ATOM      4  H   UNL     1       5.499   6.439  18.915  0.00  0.00    +0.000 HD
ENDROOT
BRANCH   2   5
ATOM      5  C   UNL     1       7.702   7.046  17.975  0.00  0.00    +0.000 A 
ATOM      6  C   UNL     1       8.479   7.738  18.943  0.00  0.00    +0.000 A 
ATOM      7  C   UNL     1       8.688   8.993  18.423  0.00  0.00    +0.000 A 
ATOM      8  N   UNL     1       8.055   8.995  17.212  0.00  0.00    +0.000 N 
ATOM      9  N   UNL     1       7.462   7.823  16.899  0.00  0.00    +0.000 NA
ATOM     10  H   UNL     1       7.995   9.768  16.556  0.00  0.00    +0.000 HD
BRANCH   7  11
ATOM     11  C   UNL     1       9.382  10.129  18.933  0.00  0.00    +0.000 A 
ATOM     12  C   UNL     1       9.362  10.661  20.211  0.00  0.00    +0.000 A 
ATOM     13  C   UNL     1      10.221  11.788  20.212  0.00  0.00    +0.000 A 
ATOM     14  C   UNL     1      10.717  11.884  18.931  0.00  0.00    +0.000 A 
ATOM     15  O   UNL     1      10.220  10.888  18.157  0.00  0.00    +0.000 OA
ENDBRANCH   7  11
ENDBRANCH   2   5
BRANCH   1  16
ATOM     16  C   UNL     1       5.304   4.300  18.846  0.00  0.00    +0.000 C 
BRANCH  16  21
ATOM     17  C   UNL     1       2.108   5.854  20.236  0.00  0.00    +0.000 A 
ATOM     18  C   UNL     1       1.316   4.718  20.441  0.00  0.00    +0.000 A 
ATOM     19  C   UNL     1       1.816   3.450  20.129  0.00  0.00    +0.000 A 
ATOM     20  C   UNL     1       3.110   3.309  19.623  0.00  0.00    +0.000 A 
ATOM     21  C   UNL     1       3.928   4.430  19.443  0.00  0.00    +0.000 A 
ATOM     22  C   UNL     1       3.428   5.693  19.793  0.00  0.00    +0.000 A 
BRANCH  17  28
ATOM     23  C   UNL     1      -0.335   9.327  22.554  0.00  0.00    +0.000 C 
ATOM     24  C   UNL     1       0.459   8.684  21.478  0.00  0.00    +0.000 A 
ATOM     25  C   UNL     1       0.918   9.271  20.288  0.00  0.00    +0.000 A 
ATOM     26  C   UNL     1       1.577   8.267  19.611  0.00  0.00    +0.000 A 
ATOM     27  C   UNL     1       2.112   8.306  18.225  0.00  0.00    +0.000 C 
ATOM     28  N   UNL     1       1.544   7.149  20.442  0.00  0.00    +0.000 N 
ATOM     29  N   UNL     1       0.792   7.394  21.552  0.00  0.00    +0.000 NA
ENDBRANCH  17  28
ENDBRANCH  16  21
ENDBRANCH   1  16
TORSDOF 5
ENDMDL
