MODEL 1
REMARK VINA RESULT:      -8.7      0.000      0.000
REMARK  Name = 
REMARK  3 active torsions:
REMARK  status: ('A' for Active; 'I' for Inactive)
REMARK    1  A    between atoms: C_1  and  C_2
REMARK    2  A    between atoms: N_7  and  C_8
REMARK    3  A    between atoms: C_8  and  C_9
REMARK                            x       y       z     vdW  Elec       q    Type
REMARK                         _______ _______ _______ _____ _____    ______ ____
ROOT
ATOM      1  C   UNL     1       7.115   4.835  15.775  0.00  0.00    +0.000 C 
ATOM      2  C   UNL     1       5.997   5.162  16.691  0.00  0.00    +0.000 A 
ATOM      3  C   UNL     1       5.252   6.361  16.750  0.00  0.00    +0.000 A 
ATOM      4  C   UNL     1       4.337   6.174  17.761  0.00  0.00    +0.000 A 
ATOM      5  N   UNL     1       3.372   6.982  18.266  0.00  0.00    +0.000 NA
ATOM      6  C   UNL     1       2.617   6.536  19.237  0.00  0.00    +0.000 A 
ATOM      7  N   UNL     1       1.646   7.354  19.765  0.00  0.00    +0.000 N 
ATOM      8  C   UNL     1       2.813   5.155  19.819  0.00  0.00    +0.000 A 
ATOM      9  C   UNL     1       2.034   4.648  20.865  0.00  0.00    +0.000 A 
ATOM     10  C   UNL     1       2.280   3.364  21.362  0.00  0.00    +0.000 A 
ATOM     11  C   UNL     1       3.296   2.577  20.818  0.00  0.00    +0.000 A 
ATOM     12  C   UNL     1       4.078   3.064  19.772  0.00  0.00    +0.000 A 
ATOM     13  C   UNL     1       3.826   4.349  19.283  0.00  0.00    +0.000 A 
ATOM     14  N   UNL     1       4.573   4.904  18.238  0.00  0.00    +0.000 N 
ATOM     15  N   UNL     1       5.586   4.270  17.602  0.00  0.00    +0.000 NA
ATOM     16  H   UNL     1       1.189   7.083  20.625  0.00  0.00    +0.000 HD
ENDROOT
BRANCH   7  17
ATOM     17  C   UNL     1       1.650   8.785  19.568  0.00  0.00    +0.000 C 
BRANCH  17  18
ATOM     18  C   UNL     1       0.766   9.443  20.601  0.00  0.00    +0.000 A 
ATOM     19  C   UNL     1       0.502   8.807  21.840  0.00  0.00    +0.000 A 
ATOM     20  C   UNL     1      -0.218   9.462  22.846  0.00  0.00    +0.000 A 
ATOM     21  C   UNL     1      -0.633  10.749  22.591  0.00  0.00    +0.000 A 
ATOM     22  C   UNL     1      -0.424  11.350  21.369  0.00  0.00    +0.000 A 
ATOM     23  C   UNL     1       0.245  10.719  20.348  0.00  0.00    +0.000 A 
ATOM     24  O   UNL     1      -0.879  12.632  21.339  0.00  0.00    +0.000 OA
ATOM     25  C   UNL     1      -1.096  12.838  22.749  0.00  0.00    +0.000 C 
ATOM     26  O   UNL     1      -1.224  11.598  23.477  0.00  0.00    +0.000 OA
ENDBRANCH  17  18
ENDBRANCH   7  17
TORSDOF 2
ENDMDL
MODEL 2
REMARK VINA RESULT:      -8.6      1.067      1.067
REMARK  Name = 
REMARK  3 active torsions:
REMARK  status: ('A' for Active; 'I' for Inactive)
REMARK    1  A    between atoms: C_1  and  C_2
REMARK    2  A    between atoms: N_7  and  C_8
REMARK    3  A    between atoms: C_8  and  C_9
REMARK                            x       y       z     vdW  Elec       q    Type
REMARK                         _______ _______ _______ _____ _____    ______ ____
ROOT
ATOM      1  C   UNL     1       6.341   4.569  15.009  0.00  0.00    +0.000 C 
ATOM      2  C   UNL     1       5.318   4.882  16.035  0.00  0.00    +0.000 A 
ATOM      3  C   UNL     1       4.933   6.156  16.509  0.00  0.00    +0.000 A 
ATOM      4  C   UNL     1       3.958   5.916  17.451  0.00  0.00    +0.000 A 
ATOM      5  N   UNL     1       3.233   6.754  18.233  0.00  0.00    +0.000 NA
ATOM      6  C   UNL     1       2.343   6.248  19.046  0.00  0.00    +0.000 A 
ATOM      7  N   UNL     1       1.614   7.090  19.855  0.00  0.00    +0.000 N 
ATOM      8  C   UNL     1       2.122   4.757  19.147  0.00  0.00    +0.000 A 
ATOM      9  C   UNL     1       1.187   4.178  20.014  0.00  0.00    +0.000 A 
ATOM     10  C   UNL     1       1.045   2.787  20.063  0.00  0.00    +0.000 A 
ATOM     11  C   UNL     1       1.827   1.968  19.247  0.00  0.00    +0.000 A 
ATOM     12  C   UNL     1       2.758   2.527  18.374  0.00  0.00    +0.000 A 
ATOM     13  C   UNL     1       2.894   3.917  18.333  0.00  0.00    +0.000 A 
ATOM     14  N   UNL     1       3.812   4.547  17.485  0.00  0.00    +0.000 N 
ATOM     15  N   UNL     1       4.636   3.897  16.632  0.00  0.00    +0.000 NA
ATOM     16  H   UNL     1       1.062   6.695  20.604  0.00  0.00    +0.000 HD
ENDROOT
BRANCH   7  17
ATOM     17  C   UNL     1       2.023   8.448  20.124  0.00  0.00    +0.000 C 
BRANCH  17  18
ATOM     18  C   UNL     1       0.977   9.136  20.969  0.00  0.00    +0.000 A 
ATOM     19  C   UNL     1       0.881   8.874  22.359  0.00  0.00    +0.000 A 
ATOM     20  C   UNL     1      -0.006   9.594  23.168  0.00  0.00    +0.000 A 
ATOM     21  C   UNL     1      -0.757  10.576  22.563  0.00  0.00    +0.000 A 
ATOM     22  C   UNL     1      -0.705  10.797  21.204  0.00  0.00    +0.000 A 
ATOM     23  C   UNL     1       0.127  10.081  20.378  0.00  0.00    +0.000 A 
ATOM     24  O   UNL     1      -1.496  11.835  20.818  0.00  0.00    +0.000 OA
ATOM     25  C   UNL     1      -1.782  12.407  22.110  0.00  0.00    +0.000 C 
ATOM     26  O   UNL     1      -1.572  11.471  23.189  0.00  0.00    +0.000 OA
ENDBRANCH  17  18
ENDBRANCH   7  17
TORSDOF 2
ENDMDL
MODEL 3
REMARK VINA RESULT:      -8.5      1.359      1.585
REMARK  Name = 
REMARK  3 active torsions:
REMARK  status: ('A' for Active; 'I' for Inactive)
REMARK    1  A    between atoms: C_1  and  C_2
REMARK    2  A    between atoms: N_7  and  C_8
REMARK    3  A    between atoms: C_8  and  C_9
REMARK                            x       y       z     vdW  Elec       q    Type
REMARK                         _______ _______ _______ _____ _____    ______ ____
ROOT
ATOM      1  C   UNL     1       5.878   5.379  15.279  0.00  0.00    +0.000 C 
ATOM      2  C   UNL     1       4.939   5.517  16.417  0.00  0.00    +0.000 A 
ATOM      3  C   UNL     1       4.581   6.700  17.102  0.00  0.00    +0.000 A 
ATOM      4  C   UNL     1       3.687   6.306  18.071  0.00  0.00    +0.000 A 
ATOM      5  N   UNL     1       3.020   7.005  19.022  0.00  0.00    +0.000 NA
ATOM      6  C   UNL     1       2.203   6.368  19.820  0.00  0.00    +0.000 A 
ATOM      7  N   UNL     1       1.533   7.068  20.797  0.00  0.00    +0.000 N 
ATOM      8  C   UNL     1       2.004   4.873  19.717  0.00  0.00    +0.000 A 
ATOM      9  C   UNL     1       1.147   4.156  20.560  0.00  0.00    +0.000 A 
ATOM     10  C   UNL     1       1.022   2.770  20.415  0.00  0.00    +0.000 A 
ATOM     11  C   UNL     1       1.743   2.094  19.428  0.00  0.00    +0.000 A 
ATOM     12  C   UNL     1       2.596   2.794  18.577  0.00  0.00    +0.000 A 
ATOM     13  C   UNL     1       2.716   4.178  18.731  0.00  0.00    +0.000 A 
ATOM     14  N   UNL     1       3.556   4.943  17.915  0.00  0.00    +0.000 N 
ATOM     15  N   UNL     1       4.315   4.441  16.914  0.00  0.00    +0.000 NA
ATOM     16  H   UNL     1       1.047   6.557  21.521  0.00  0.00    +0.000 HD
ENDROOT
BRANCH   7  17
ATOM     17  C   UNL     1       1.951   8.380  21.231  0.00  0.00    +0.000 C 
BRANCH  17  18
ATOM     18  C   UNL     1       0.765   9.315  21.237  0.00  0.00    +0.000 A 
ATOM     19  C   UNL     1       0.233   9.805  22.456  0.00  0.00    +0.000 A 
ATOM     20  C   UNL     1      -0.789  10.762  22.463  0.00  0.00    +0.000 A 
ATOM     21  C   UNL     1      -1.233  11.220  21.244  0.00  0.00    +0.000 A 
ATOM     22  C   UNL     1      -0.756  10.708  20.058  0.00  0.00    +0.000 A 
ATOM     23  C   UNL     1       0.219   9.740  20.017  0.00  0.00    +0.000 A 
ATOM     24  O   UNL     1      -1.300  11.324  18.972  0.00  0.00    +0.000 OA
ATOM     25  C   UNL     1      -1.908  12.456  19.625  0.00  0.00    +0.000 C 
ATOM     26  O   UNL     1      -2.117  12.237  21.036  0.00  0.00    +0.000 OA
ENDBRANCH  17  18
ENDBRANCH   7  17
TORSDOF 2
ENDMDL
MODEL 4
REMARK VINA RESULT:      -8.5      1.794      4.035
REMARK  Name = 
REMARK  3 active torsions:
REMARK  status: ('A' for Active; 'I' for Inactive)
REMARK    1  A    between atoms: C_1  and  C_2
REMARK    2  A    between atoms: N_7  and  C_8
REMARK    3  A    between atoms: C_8  and  C_9
REMARK                            x       y       z     vdW  Elec       q    Type
REMARK                         _______ _______ _______ _____ _____    ______ ____
ROOT
ATOM      1  C   UNL     1       2.104   2.522  21.703  0.00  0.00    +0.000 C 
ATOM      2  C   UNL     1       2.365   3.649  20.777  0.00  0.00    +0.000 A 
ATOM      3  C   UNL     1       1.679   4.882  20.701  0.00  0.00    +0.000 A 
ATOM      4  C   UNL     1       2.293   5.582  19.688  0.00  0.00    +0.000 A 
ATOM      5  N   UNL     1       2.058   6.812  19.169  0.00  0.00    +0.000 NA
ATOM      6  C   UNL     1       2.820   7.246  18.199  0.00  0.00    +0.000 A 
ATOM      7  N   UNL     1       2.579   8.488  17.657  0.00  0.00    +0.000 N 
ATOM      8  C   UNL     1       3.936   6.399  17.632  0.00  0.00    +0.000 A 
ATOM      9  C   UNL     1       4.763   6.824  16.586  0.00  0.00    +0.000 A 
ATOM     10  C   UNL     1       5.770   5.982  16.103  0.00  0.00    +0.000 A 
ATOM     11  C   UNL     1       5.961   4.716  16.662  0.00  0.00    +0.000 A 
ATOM     12  C   UNL     1       5.150   4.279  17.707  0.00  0.00    +0.000 A 
ATOM     13  C   UNL     1       4.146   5.128  18.182  0.00  0.00    +0.000 A 
ATOM     14  N   UNL     1       3.292   4.754  19.225  0.00  0.00    +0.000 N 
ATOM     15  N   UNL     1       3.350   3.567  19.873  0.00  0.00    +0.000 NA
ATOM     16  H   UNL     1       3.043   8.747  16.797  0.00  0.00    +0.000 HD
ENDROOT
BRANCH   7  17
ATOM     17  C   UNL     1       1.324   9.180  17.839  0.00  0.00    +0.000 C 
BRANCH  17  18
ATOM     18  C   UNL     1       1.562  10.474  18.580  0.00  0.00    +0.000 A 
ATOM     19  C   UNL     1       2.269  11.540  17.969  0.00  0.00    +0.000 A 
ATOM     20  C   UNL     1       2.390  12.782  18.604  0.00  0.00    +0.000 A 
ATOM     21  C   UNL     1       1.775  12.929  19.826  0.00  0.00    +0.000 A 
ATOM     22  C   UNL     1       1.132  11.880  20.446  0.00  0.00    +0.000 A 
ATOM     23  C   UNL     1       1.030  10.638  19.867  0.00  0.00    +0.000 A 
ATOM     24  O   UNL     1       0.563  12.248  21.627  0.00  0.00    +0.000 OA
ATOM     25  C   UNL     1       0.661  13.680  21.499  0.00  0.00    +0.000 C 
ATOM     26  O   UNL     1       1.660  14.084  20.539  0.00  0.00    +0.000 OA
ENDBRANCH  17  18
ENDBRANCH   7  17
TORSDOF 2
ENDMDL
MODEL 5
REMARK VINA RESULT:      -8.4      0.973      1.543
REMARK  Name = 
REMARK  3 active torsions:
REMARK  status: ('A' for Active; 'I' for Inactive)
REMARK    1  A    between atoms: C_1  and  C_2
REMARK    2  A    between atoms: N_7  and  C_8
REMARK    3  A    between atoms: C_8  and  C_9
REMARK                            x       y       z     vdW  Elec       q    Type
REMARK                         _______ _______ _______ _____ _____    ______ ____
ROOT
ATOM      1  C   UNL     1       6.869   4.439  15.239  0.00  0.00    +0.000 C 
ATOM      2  C   UNL     1       5.818   4.981  16.131  0.00  0.00    +0.000 A 
ATOM      3  C   UNL     1       5.163   6.230  16.036  0.00  0.00    +0.000 A 
ATOM      4  C   UNL     1       4.280   6.262  17.091  0.00  0.00    +0.000 A 
ATOM      5  N   UNL     1       3.398   7.207  17.501  0.00  0.00    +0.000 NA
ATOM      6  C   UNL     1       2.656   6.966  18.550  0.00  0.00    +0.000 A 
ATOM      7  N   UNL     1       1.768   7.924  18.982  0.00  0.00    +0.000 N 
ATOM      8  C   UNL     1       2.777   5.673  19.324  0.00  0.00    +0.000 A 
ATOM      9  C   UNL     1       2.009   5.385  20.458  0.00  0.00    +0.000 A 
ATOM     10  C   UNL     1       2.183   4.172  21.132  0.00  0.00    +0.000 A 
ATOM     11  C   UNL     1       3.117   3.239  20.678  0.00  0.00    +0.000 A 
ATOM     12  C   UNL     1       3.886   3.507  19.547  0.00  0.00    +0.000 A 
ATOM     13  C   UNL     1       3.706   4.722  18.882  0.00  0.00    +0.000 A 
ATOM     14  N   UNL     1       4.446   5.060  17.743  0.00  0.00    +0.000 N 
ATOM     15  N   UNL     1       5.383   4.265  17.177  0.00  0.00    +0.000 NA
ATOM     16  H   UNL     1       1.330   7.817  19.886  0.00  0.00    +0.000 HD
ENDROOT
BRANCH   7  17
ATOM     17  C   UNL     1       1.866   9.307  18.575  0.00  0.00    +0.000 C 
BRANCH  17  18
ATOM     18  C   UNL     1       1.033  10.167  19.495  0.00  0.00    +0.000 A 
ATOM     19  C   UNL     1       0.215  11.203  18.977  0.00  0.00    +0.000 A 
ATOM     20  C   UNL     1      -0.648  11.925  19.810  0.00  0.00    +0.000 A 
ATOM     21  C   UNL     1      -0.685  11.570  21.139  0.00  0.00    +0.000 A 
ATOM     22  C   UNL     1       0.147  10.601  21.656  0.00  0.00    +0.000 A 
ATOM     23  C   UNL     1       1.032   9.902  20.872  0.00  0.00    +0.000 A 
ATOM     24  O   UNL     1      -0.077  10.381  22.981  0.00  0.00    +0.000 OA
ATOM     25  C   UNL     1      -1.325  11.086  23.129  0.00  0.00    +0.000 C 
ATOM     26  O   UNL     1      -1.544  12.053  22.081  0.00  0.00    +0.000 OA
ENDBRANCH  17  18
ENDBRANCH   7  17
TORSDOF 2
ENDMDL
MODEL 6
REMARK VINA RESULT:      -8.3      1.849      3.868
REMARK  Name = 
REMARK  3 active torsions:
REMARK  status: ('A' for Active; 'I' for Inactive)
REMARK    1  A    between atoms: C_1  and  C_2
REMARK    2  A    between atoms: N_7  and  C_8
REMARK    3  A    between atoms: C_8  and  C_9
REMARK                            x       y       z     vdW  Elec       q    Type
REMARK                         _______ _______ _______ _____ _____    ______ ____
ROOT
ATOM      1  C   UNL     1       1.876   2.392  21.636  0.00  0.00    +0.000 C 
ATOM      2  C   UNL     1       2.239   3.545  20.779  0.00  0.00    +0.000 A 
ATOM      3  C   UNL     1       1.491   4.723  20.554  0.00  0.00    +0.000 A 
ATOM      4  C   UNL     1       2.249   5.477  19.687  0.00  0.00    +0.000 A 
ATOM      5  N   UNL     1       2.033   6.692  19.124  0.00  0.00    +0.000 NA
ATOM      6  C   UNL     1       2.946   7.192  18.332  0.00  0.00    +0.000 A 
ATOM      7  N   UNL     1       2.729   8.417  17.744  0.00  0.00    +0.000 N 
ATOM      8  C   UNL     1       4.217   6.439  18.016  0.00  0.00    +0.000 A 
ATOM      9  C   UNL     1       5.210   6.936  17.165  0.00  0.00    +0.000 A 
ATOM     10  C   UNL     1       6.357   6.178  16.908  0.00  0.00    +0.000 A 
ATOM     11  C   UNL     1       6.524   4.925  17.502  0.00  0.00    +0.000 A 
ATOM     12  C   UNL     1       5.548   4.417  18.357  0.00  0.00    +0.000 A 
ATOM     13  C   UNL     1       4.405   5.181  18.605  0.00  0.00    +0.000 A 
ATOM     14  N   UNL     1       3.382   4.732  19.449  0.00  0.00    +0.000 N 
ATOM     15  N   UNL     1       3.395   3.548  20.102  0.00  0.00    +0.000 NA
ATOM     16  H   UNL     1       3.342   8.720  17.000  0.00  0.00    +0.000 HD
ENDROOT
BRANCH   7  17
ATOM     17  C   UNL     1       1.416   9.011  17.656  0.00  0.00    +0.000 C 
BRANCH  17  18
ATOM     18  C   UNL     1       1.292  10.123  18.669  0.00  0.00    +0.000 A 
ATOM     19  C   UNL     1       0.693   9.891  19.933  0.00  0.00    +0.000 A 
ATOM     20  C   UNL     1       0.681  10.885  20.918  0.00  0.00    +0.000 A 
ATOM     21  C   UNL     1       1.294  12.079  20.617  0.00  0.00    +0.000 A 
ATOM     22  C   UNL     1       1.829  12.328  19.373  0.00  0.00    +0.000 A 
ATOM     23  C   UNL     1       1.822  11.387  18.372  0.00  0.00    +0.000 A 
ATOM     24  O   UNL     1       2.417  13.553  19.298  0.00  0.00    +0.000 OA
ATOM     25  C   UNL     1       2.454  13.883  20.700  0.00  0.00    +0.000 C 
ATOM     26  O   UNL     1       1.507  13.117  21.475  0.00  0.00    +0.000 OA
ENDBRANCH  17  18
ENDBRANCH   7  17
TORSDOF 2
ENDMDL
MODEL 7
REMARK VINA RESULT:      -8.2      1.811      2.159
REMARK  Name = 
REMARK  3 active torsions:
REMARK  status: ('A' for Active; 'I' for Inactive)
REMARK    1  A    between atoms: C_1  and  C_2
REMARK    2  A    between atoms: N_7  and  C_8
REMARK    3  A    between atoms: C_8  and  C_9
REMARK                            x       y       z     vdW  Elec       q    Type
REMARK                         _______ _______ _______ _____ _____    ______ ____
ROOT
ATOM      1  C   UNL     1       6.719   4.392  15.083  0.00  0.00    +0.000 C 
ATOM      2  C   UNL     1       5.697   4.957  15.995  0.00  0.00    +0.000 A 
ATOM      3  C   UNL     1       5.141   6.256  15.970  0.00  0.00    +0.000 A 
ATOM      4  C   UNL     1       4.246   6.292  17.014  0.00  0.00    +0.000 A 
ATOM      5  N   UNL     1       3.431   7.275  17.472  0.00  0.00    +0.000 NA
ATOM      6  C   UNL     1       2.655   7.028  18.495  0.00  0.00    +0.000 A 
ATOM      7  N   UNL     1       1.836   8.024  18.975  0.00  0.00    +0.000 N 
ATOM      8  C   UNL     1       2.664   5.685  19.188  0.00  0.00    +0.000 A 
ATOM      9  C   UNL     1       1.857   5.388  20.292  0.00  0.00    +0.000 A 
ATOM     10  C   UNL     1       1.927   4.125  20.891  0.00  0.00    +0.000 A 
ATOM     11  C   UNL     1       2.795   3.153  20.391  0.00  0.00    +0.000 A 
ATOM     12  C   UNL     1       3.601   3.429  19.288  0.00  0.00    +0.000 A 
ATOM     13  C   UNL     1       3.525   4.694  18.698  0.00  0.00    +0.000 A 
ATOM     14  N   UNL     1       4.308   5.043  17.592  0.00  0.00    +0.000 N 
ATOM     15  N   UNL     1       5.191   4.214  16.988  0.00  0.00    +0.000 NA
ATOM     16  H   UNL     1       1.376   7.895  19.865  0.00  0.00    +0.000 HD
ENDROOT
BRANCH   7  17
ATOM     17  C   UNL     1       2.046   9.417  18.657  0.00  0.00    +0.000 C 
BRANCH  17  18
ATOM     18  C   UNL     1       0.717  10.133  18.610  0.00  0.00    +0.000 A 
ATOM     19  C   UNL     1      -0.349   9.633  17.821  0.00  0.00    +0.000 A 
ATOM     20  C   UNL     1      -1.617  10.225  17.866  0.00  0.00    +0.000 A 
ATOM     21  C   UNL     1      -1.787  11.289  18.722  0.00  0.00    +0.000 A 
ATOM     22  C   UNL     1      -0.740  11.811  19.449  0.00  0.00    +0.000 A 
ATOM     23  C   UNL     1       0.525  11.277  19.398  0.00  0.00    +0.000 A 
ATOM     24  O   UNL     1      -1.131  12.834  20.257  0.00  0.00    +0.000 OA
ATOM     25  C   UNL     1      -2.560  12.668  20.174  0.00  0.00    +0.000 C 
ATOM     26  O   UNL     1      -2.963  11.914  19.010  0.00  0.00    +0.000 OA
ENDBRANCH  17  18
ENDBRANCH   7  17
TORSDOF 2
ENDMDL
MODEL 8
REMARK VINA RESULT:      -8.2      1.448      2.032
REMARK  Name = 
REMARK  3 active torsions:
REMARK  status: ('A' for Active; 'I' for Inactive)
REMARK    1  A    between atoms: C_1  and  C_2
REMARK    2  A    between atoms: N_7  and  C_8
REMARK    3  A    between atoms: C_8  and  C_9
REMARK                            x       y       z     vdW  Elec       q    Type
REMARK                         _______ _______ _______ _____ _____    ______ ____
ROOT
ATOM      1  C   UNL     1       6.192   5.149  15.248  0.00  0.00    +0.000 C 
ATOM      2  C   UNL     1       5.178   5.361  16.307  0.00  0.00    +0.000 A 
ATOM      3  C   UNL     1       4.772   6.586  16.882  0.00  0.00    +0.000 A 
ATOM      4  C   UNL     1       3.815   6.255  17.814  0.00  0.00    +0.000 A 
ATOM      5  N   UNL     1       3.084   7.015  18.666  0.00  0.00    +0.000 NA
ATOM      6  C   UNL     1       2.215   6.429  19.449  0.00  0.00    +0.000 A 
ATOM      7  N   UNL     1       1.480   7.192  20.328  0.00  0.00    +0.000 N 
ATOM      8  C   UNL     1       2.027   4.930  19.439  0.00  0.00    +0.000 A 
ATOM      9  C   UNL     1       1.116   4.268  20.270  0.00  0.00    +0.000 A 
ATOM     10  C   UNL     1       1.003   2.874  20.215  0.00  0.00    +0.000 A 
ATOM     11  C   UNL     1       1.791   2.136  19.330  0.00  0.00    +0.000 A 
ATOM     12  C   UNL     1       2.698   2.780  18.491  0.00  0.00    +0.000 A 
ATOM     13  C   UNL     1       2.805   4.172  18.555  0.00  0.00    +0.000 A 
ATOM     14  N   UNL     1       3.698   4.884  17.746  0.00  0.00    +0.000 N 
ATOM     15  N   UNL     1       4.523   4.318  16.836  0.00  0.00    +0.000 NA
ATOM     16  H   UNL     1       0.946   6.730  21.051  0.00  0.00    +0.000 HD
ENDROOT
BRANCH   7  17
ATOM     17  C   UNL     1       1.865   8.534  20.695  0.00  0.00    +0.000 C 
BRANCH  17  18
ATOM     18  C   UNL     1       0.884   9.522  20.109  0.00  0.00    +0.000 A 
ATOM     19  C   UNL     1       0.576   9.505  18.726  0.00  0.00    +0.000 A 
ATOM     20  C   UNL     1      -0.417  10.338  18.198  0.00  0.00    +0.000 A 
ATOM     21  C   UNL     1      -1.094  11.150  19.080  0.00  0.00    +0.000 A 
ATOM     22  C   UNL     1      -0.761  11.208  20.415  0.00  0.00    +0.000 A 
ATOM     23  C   UNL     1       0.235  10.432  20.956  0.00  0.00    +0.000 A 
ATOM     24  O   UNL     1      -1.576  12.044  21.115  0.00  0.00    +0.000 OA
ATOM     25  C   UNL     1      -2.614  12.237  20.134  0.00  0.00    +0.000 C 
ATOM     26  O   UNL     1      -2.175  11.929  18.794  0.00  0.00    +0.000 OA
ENDBRANCH  17  18
ENDBRANCH   7  17
TORSDOF 2
ENDMDL
MODEL 9
REMARK VINA RESULT:      -8.2      1.234      1.810
REMARK  Name = 
REMARK  3 active torsions:
REMARK  status: ('A' for Active; 'I' for Inactive)
REMARK    1  A    between atoms: C_1  and  C_2
REMARK    2  A    between atoms: N_7  and  C_8
REMARK    3  A    between atoms: C_8  and  C_9
REMARK                            x       y       z     vdW  Elec       q    Type
REMARK                         _______ _______ _______ _____ _____    ______ ____
ROOT
ATOM      1  C   UNL     1       8.168   4.395  17.828  0.00  0.00    +0.000 C 
ATOM      2  C   UNL     1       6.771   4.833  18.058  0.00  0.00    +0.000 A 
ATOM      3  C   UNL     1       6.152   6.020  17.607  0.00  0.00    +0.000 A 
ATOM      4  C   UNL     1       4.861   5.963  18.080  0.00  0.00    +0.000 A 
ATOM      5  N   UNL     1       3.818   6.822  17.963  0.00  0.00    +0.000 NA
ATOM      6  C   UNL     1       2.673   6.505  18.509  0.00  0.00    +0.000 A 
ATOM      7  N   UNL     1       1.614   7.378  18.408  0.00  0.00    +0.000 N 
ATOM      8  C   UNL     1       2.496   5.219  19.282  0.00  0.00    +0.000 A 
ATOM      9  C   UNL     1       1.290   4.852  19.891  0.00  0.00    +0.000 A 
ATOM     10  C   UNL     1       1.202   3.650  20.602  0.00  0.00    +0.000 A 
ATOM     11  C   UNL     1       2.311   2.807  20.706  0.00  0.00    +0.000 A 
ATOM     12  C   UNL     1       3.517   3.155  20.101  0.00  0.00    +0.000 A 
ATOM     13  C   UNL     1       3.596   4.358  19.395  0.00  0.00    +0.000 A 
ATOM     14  N   UNL     1       4.776   4.773  18.767  0.00  0.00    +0.000 N 
ATOM     15  N   UNL     1       5.931   4.069  18.770  0.00  0.00    +0.000 NA
ATOM     16  H   UNL     1       0.793   7.221  18.976  0.00  0.00    +0.000 HD
ENDROOT
BRANCH   7  17
ATOM     17  C   UNL     1       1.789   8.768  18.059  0.00  0.00    +0.000 C 
BRANCH  17  18
ATOM     18  C   UNL     1       1.354   9.640  19.212  0.00  0.00    +0.000 A 
ATOM     19  C   UNL     1       1.205  11.040  19.047  0.00  0.00    +0.000 A 
ATOM     20  C   UNL     1       0.689  11.836  20.076  0.00  0.00    +0.000 A 
ATOM     21  C   UNL     1       0.313  11.201  21.237  0.00  0.00    +0.000 A 
ATOM     22  C   UNL     1       0.506   9.850  21.421  0.00  0.00    +0.000 A 
ATOM     23  C   UNL     1       1.046   9.048  20.445  0.00  0.00    +0.000 A 
ATOM     24  O   UNL     1       0.033   9.419  22.622  0.00  0.00    +0.000 OA
ATOM     25  C   UNL     1      -0.736  10.577  23.002  0.00  0.00    +0.000 C 
ATOM     26  O   UNL     1      -0.327  11.769  22.298  0.00  0.00    +0.000 OA
ENDBRANCH  17  18
ENDBRANCH   7  17
TORSDOF 2
ENDMDL
