MODEL 1
REMARK VINA RESULT:      -8.8      0.000      0.000
REMARK  Name = 
REMARK  5 active torsions:
REMARK  status: ('A' for Active; 'I' for Inactive)
REMARK    1  A    between atoms: C_1  and  C_2
REMARK    2  A    between atoms: C_2  and  C_3
REMARK    3  A    between atoms: C_6  and  C_7
REMARK    4  A    between atoms: C_11  and  N_12
REMARK    5  A    between atoms: C_20  and  C_21
REMARK                            x       y       z     vdW  Elec       q    Type
REMARK                         _______ _______ _______ _____ _____    ______ ____
ROOT
ATOM      1  C   UNL     1       2.253   5.861  20.074  0.00  0.00    +0.000 A 
ATOM      2  C   UNL     1       1.275   5.183  20.814  0.00  0.00    +0.000 A 
ATOM      3  C   UNL     1       1.463   3.851  21.168  0.00  0.00    +0.000 A 
ATOM      4  C   UNL     1       2.578   3.163  20.702  0.00  0.00    +0.000 A 
ATOM      5  C   UNL     1       3.449   3.776  19.783  0.00  0.00    +0.000 A 
ATOM      6  C   UNL     1       3.357   5.155  19.580  0.00  0.00    +0.000 A 
ENDROOT
BRANCH   5   7
ATOM      7  N   UNL     1       4.116   2.979  18.769  0.00  0.00    +0.000 N 
ATOM      8  C   UNL     1       5.580   3.230  18.794  0.00  0.00    +0.000 C 
ATOM      9  C   UNL     1       5.714   4.350  17.807  0.00  0.00    +0.000 A 
ATOM     10  C   UNL     1       4.656   4.228  16.896  0.00  0.00    +0.000 A 
ATOM     11  C   UNL     1       4.361   5.187  15.947  0.00  0.00    +0.000 A 
ATOM     12  C   UNL     1       5.167   6.316  15.940  0.00  0.00    +0.000 A 
ATOM     13  F   UNL     1       4.875   7.322  15.107  0.00  0.00    +0.000 F 
ATOM     14  C   UNL     1       6.226   6.472  16.848  0.00  0.00    +0.000 A 
ATOM     15  C   UNL     1       6.524   5.482  17.808  0.00  0.00    +0.000 A 
ATOM     16  C   UNL     1       3.707   3.228  17.439  0.00  0.00    +0.000 C 
ATOM     17  O   UNL     1       2.681   2.891  16.873  0.00  0.00    +0.000 OA
BRANCH  15  18
ATOM     18  C   UNL     1       7.593   5.752  18.836  0.00  0.00    +0.000 C 
ATOM     19  F   UNL     1       8.597   4.836  18.848  0.00  0.00    +0.000 F 
ATOM     20  F   UNL     1       8.195   6.957  18.641  0.00  0.00    +0.000 F 
ATOM     21  F   UNL     1       7.093   5.781  20.102  0.00  0.00    +0.000 F 
ENDBRANCH  15  18
ENDBRANCH   5   7
BRANCH   1  25
ATOM     22  C   UNL     1       0.964   9.921  19.101  0.00  0.00    +0.000 C 
ATOM     23  N   UNL     1       1.228   9.446  20.276  0.00  0.00    +0.000 NA
ATOM     24  N   UNL     1       1.436   8.097  20.465  0.00  0.00    +0.000 NA
ATOM     25  C   UNL     1       2.115   7.297  19.715  0.00  0.00    +0.000 C 
ATOM     26  O   UNL     1       2.759   7.506  18.543  0.00  0.00    +0.000 OA
ATOM     27  C   UNL     1       2.574   8.704  17.796  0.00  0.00    +0.000 C 
ATOM     28  C   UNL     1       1.136   9.167  17.819  0.00  0.00    +0.000 C 
BRANCH  22  30
ATOM     29  C   UNL     1      -1.105  11.152  18.627  0.00  0.00    +0.000 C 
ATOM     30  C   UNL     1       0.350  11.302  19.045  0.00  0.00    +0.000 C 
ENDBRANCH  22  30
ENDBRANCH   1  25
TORSDOF 4
ENDMDL
MODEL 2
REMARK VINA RESULT:      -8.5      4.220      6.249
REMARK  Name = 
REMARK  5 active torsions:
REMARK  status: ('A' for Active; 'I' for Inactive)
REMARK    1  A    between atoms: C_1  and  C_2
REMARK    2  A    between atoms: C_2  and  C_3
REMARK    3  A    between atoms: C_6  and  C_7
REMARK    4  A    between atoms: C_11  and  N_12
REMARK    5  A    between atoms: C_20  and  C_21
REMARK                            x       y       z     vdW  Elec       q    Type
REMARK                         _______ _______ _______ _____ _____    ______ ____
ROOT
ATOM      1  C   UNL     1       7.995   7.663  18.119  0.00  0.00    +0.000 A 
ATOM      2  C   UNL     1       8.055   6.748  19.179  0.00  0.00    +0.000 A 
ATOM      3  C   UNL     1       7.840   5.393  18.945  0.00  0.00    +0.000 A 
ATOM      4  C   UNL     1       7.469   4.960  17.678  0.00  0.00    +0.000 A 
ATOM      5  C   UNL     1       7.197   5.899  16.666  0.00  0.00    +0.000 A 
ATOM      6  C   UNL     1       7.589   7.227  16.852  0.00  0.00    +0.000 A 
ENDROOT
BRANCH   5   7
ATOM      7  N   UNL     1       6.180   5.620  15.668  0.00  0.00    +0.000 N 
ATOM      8  C   UNL     1       4.976   6.457  15.909  0.00  0.00    +0.000 C 
ATOM      9  C   UNL     1       4.158   5.566  16.794  0.00  0.00    +0.000 A 
ATOM     10  C   UNL     1       4.510   4.243  16.488  0.00  0.00    +0.000 A 
ATOM     11  C   UNL     1       4.081   3.158  17.226  0.00  0.00    +0.000 A 
ATOM     12  C   UNL     1       3.278   3.435  18.323  0.00  0.00    +0.000 A 
ATOM     13  F   UNL     1       2.908   2.435  19.132  0.00  0.00    +0.000 F 
ATOM     14  C   UNL     1       2.919   4.750  18.660  0.00  0.00    +0.000 A 
ATOM     15  C   UNL     1       3.356   5.852  17.895  0.00  0.00    +0.000 A 
ATOM     16  C   UNL     1       5.718   4.285  15.632  0.00  0.00    +0.000 C 
ATOM     17  O   UNL     1       6.269   3.290  15.189  0.00  0.00    +0.000 OA
BRANCH  15  18
ATOM     18  C   UNL     1       3.043   7.248  18.369  0.00  0.00    +0.000 C 
ATOM     19  F   UNL     1       1.947   7.800  17.787  0.00  0.00    +0.000 F 
ATOM     20  F   UNL     1       2.812   7.291  19.709  0.00  0.00    +0.000 F 
ATOM     21  F   UNL     1       4.070   8.111  18.135  0.00  0.00    +0.000 F 
ENDBRANCH  15  18
ENDBRANCH   5   7
BRANCH   1  25
ATOM     22  C   UNL     1       9.128  11.875  17.857  0.00  0.00    +0.000 C 
ATOM     23  N   UNL     1       8.002  11.346  17.501  0.00  0.00    +0.000 NA
ATOM     24  N   UNL     1       7.845   9.977  17.454  0.00  0.00    +0.000 NA
ATOM     25  C   UNL     1       8.265   9.112  18.314  0.00  0.00    +0.000 C 
ATOM     26  O   UNL     1       8.998   9.261  19.442  0.00  0.00    +0.000 OA
ATOM     27  C   UNL     1       9.652  10.488  19.748  0.00  0.00    +0.000 C 
ATOM     28  C   UNL     1      10.247  11.132  18.519  0.00  0.00    +0.000 C 
BRANCH  22  30
ATOM     29  C   UNL     1      10.739  13.723  17.958  0.00  0.00    +0.000 C 
ATOM     30  C   UNL     1       9.349  13.324  17.487  0.00  0.00    +0.000 C 
ENDBRANCH  22  30
ENDBRANCH   1  25
TORSDOF 4
ENDMDL
MODEL 3
REMARK VINA RESULT:      -8.4      2.175      3.107
REMARK  Name = 
REMARK  5 active torsions:
REMARK  status: ('A' for Active; 'I' for Inactive)
REMARK    1  A    between atoms: C_1  and  C_2
REMARK    2  A    between atoms: C_2  and  C_3
REMARK    3  A    between atoms: C_6  and  C_7
REMARK    4  A    between atoms: C_11  and  N_12
REMARK    5  A    between atoms: C_20  and  C_21
REMARK                            x       y       z     vdW  Elec       q    Type
REMARK                         _______ _______ _______ _____ _____    ______ ____
ROOT
ATOM      1  C   UNL     1       1.954   8.236  19.342  0.00  0.00    +0.000 A 
ATOM      2  C   UNL     1       2.306   8.669  18.057  0.00  0.00    +0.000 A 
ATOM      3  C   UNL     1       2.823   7.768  17.131  0.00  0.00    +0.000 A 
ATOM      4  C   UNL     1       3.083   6.457  17.514  0.00  0.00    +0.000 A 
ATOM      5  C   UNL     1       2.935   6.075  18.860  0.00  0.00    +0.000 A 
ATOM      6  C   UNL     1       2.249   6.923  19.732  0.00  0.00    +0.000 A 
ENDROOT
BRANCH   5   7
ATOM      7  N   UNL     1       3.814   5.071  19.433  0.00  0.00    +0.000 N 
ATOM      8  C   UNL     1       5.207   5.584  19.503  0.00  0.00    +0.000 C 
ATOM      9  C   UNL     1       5.766   5.126  18.190  0.00  0.00    +0.000 A 
ATOM     10  C   UNL     1       5.056   3.976  17.816  0.00  0.00    +0.000 A 
ATOM     11  C   UNL     1       5.184   3.380  16.577  0.00  0.00    +0.000 A 
ATOM     12  C   UNL     1       6.056   3.987  15.686  0.00  0.00    +0.000 A 
ATOM     13  F   UNL     1       6.153   3.511  14.438  0.00  0.00    +0.000 F 
ATOM     14  C   UNL     1       6.771   5.146  16.028  0.00  0.00    +0.000 A 
ATOM     15  C   UNL     1       6.639   5.744  17.299  0.00  0.00    +0.000 A 
ATOM     16  C   UNL     1       3.888   3.854  18.719  0.00  0.00    +0.000 C 
ATOM     17  O   UNL     1       3.075   2.947  18.654  0.00  0.00    +0.000 OA
BRANCH  15  18
ATOM     18  C   UNL     1       7.335   7.052  17.573  0.00  0.00    +0.000 C 
ATOM     19  F   UNL     1       6.493   8.105  17.745  0.00  0.00    +0.000 F 
ATOM     20  F   UNL     1       8.097   6.999  18.698  0.00  0.00    +0.000 F 
ATOM     21  F   UNL     1       8.178   7.406  16.563  0.00  0.00    +0.000 F 
ENDBRANCH  15  18
ENDBRANCH   5   7
BRANCH   1  25
ATOM     22  C   UNL     1      -0.527  10.388  22.223  0.00  0.00    +0.000 C 
ATOM     23  N   UNL     1       0.279   9.406  22.468  0.00  0.00    +0.000 NA
ATOM     24  N   UNL     1       0.855   8.688  21.441  0.00  0.00    +0.000 NA
ATOM     25  C   UNL     1       1.354   9.153  20.346  0.00  0.00    +0.000 C 
ATOM     26  O   UNL     1       1.420  10.415  19.862  0.00  0.00    +0.000 OA
ATOM     27  C   UNL     1       0.682  11.479  20.455  0.00  0.00    +0.000 C 
ATOM     28  C   UNL     1      -0.697  11.038  20.885  0.00  0.00    +0.000 C 
BRANCH  22  30
ATOM     29  C   UNL     1      -2.291  11.975  22.848  0.00  0.00    +0.000 C 
ATOM     30  C   UNL     1      -1.419  10.838  23.358  0.00  0.00    +0.000 C 
ENDBRANCH  22  30
ENDBRANCH   1  25
TORSDOF 4
ENDMDL
MODEL 4
REMARK VINA RESULT:      -8.3      2.710      4.269
REMARK  Name = 
REMARK  5 active torsions:
REMARK  status: ('A' for Active; 'I' for Inactive)
REMARK    1  A    between atoms: C_1  and  C_2
REMARK    2  A    between atoms: C_2  and  C_3
REMARK    3  A    between atoms: C_6  and  C_7
REMARK    4  A    between atoms: C_11  and  N_12
REMARK    5  A    between atoms: C_20  and  C_21
REMARK                            x       y       z     vdW  Elec       q    Type
REMARK                         _______ _______ _______ _____ _____    ______ ____
ROOT
ATOM      1  C   UNL     1       1.291   9.214  19.719  0.00  0.00    +0.000 A 
ATOM      2  C   UNL     1       1.602   9.482  18.379  0.00  0.00    +0.000 A 
ATOM      3  C   UNL     1       2.134   8.482  17.571  0.00  0.00    +0.000 A 
ATOM      4  C   UNL     1       2.448   7.244  18.119  0.00  0.00    +0.000 A 
ATOM      5  C   UNL     1       2.340   7.042  19.507  0.00  0.00    +0.000 A 
ATOM      6  C   UNL     1       1.640   7.976  20.274  0.00  0.00    +0.000 A 
ENDROOT
BRANCH   5   7
ATOM      7  N   UNL     1       3.266   6.155  20.189  0.00  0.00    +0.000 N 
ATOM      8  C   UNL     1       4.462   5.908  19.343  0.00  0.00    +0.000 C 
ATOM      9  C   UNL     1       4.054   4.679  18.589  0.00  0.00    +0.000 A 
ATOM     10  C   UNL     1       3.138   3.985  19.392  0.00  0.00    +0.000 A 
ATOM     11  C   UNL     1       2.420   2.892  18.948  0.00  0.00    +0.000 A 
ATOM     12  C   UNL     1       2.634   2.506  17.633  0.00  0.00    +0.000 A 
ATOM     13  F   UNL     1       1.900   1.513  17.116  0.00  0.00    +0.000 F 
ATOM     14  C   UNL     1       3.535   3.189  16.801  0.00  0.00    +0.000 A 
ATOM     15  C   UNL     1       4.271   4.299  17.267  0.00  0.00    +0.000 A 
ATOM     16  C   UNL     1       2.753   4.877  20.510  0.00  0.00    +0.000 C 
ATOM     17  O   UNL     1       1.971   4.560  21.392  0.00  0.00    +0.000 OA
BRANCH  15  18
ATOM     18  C   UNL     1       5.132   5.069  16.300  0.00  0.00    +0.000 C 
ATOM     19  F   UNL     1       5.220   4.508  15.065  0.00  0.00    +0.000 F 
ATOM     20  F   UNL     1       4.671   6.333  16.101  0.00  0.00    +0.000 F 
ATOM     21  F   UNL     1       6.413   5.200  16.745  0.00  0.00    +0.000 F 
ENDBRANCH  15  18
ENDBRANCH   5   7
BRANCH   1  25
ATOM     22  C   UNL     1      -1.171  11.611  22.418  0.00  0.00    +0.000 C 
ATOM     23  N   UNL     1      -0.245  10.768  22.747  0.00  0.00    +0.000 NA
ATOM     24  N   UNL     1       0.320   9.934  21.807  0.00  0.00    +0.000 NA
ATOM     25  C   UNL     1       0.677  10.237  20.605  0.00  0.00    +0.000 C 
ATOM     26  O   UNL     1       0.566  11.392  19.908  0.00  0.00    +0.000 OA
ATOM     27  C   UNL     1      -0.234  12.472  20.379  0.00  0.00    +0.000 C 
ATOM     28  C   UNL     1      -1.518  11.989  21.012  0.00  0.00    +0.000 C 
BRANCH  22  30
ATOM     29  C   UNL     1      -3.393  12.483  22.983  0.00  0.00    +0.000 C 
ATOM     30  C   UNL     1      -2.013  12.173  23.542  0.00  0.00    +0.000 C 
ENDBRANCH  22  30
ENDBRANCH   1  25
TORSDOF 4
ENDMDL
MODEL 5
REMARK VINA RESULT:      -8.2      2.298      3.326
REMARK  Name = 
REMARK  5 active torsions:
REMARK  status: ('A' for Active; 'I' for Inactive)
REMARK    1  A    between atoms: C_1  and  C_2
REMARK    2  A    between atoms: C_2  and  C_3
REMARK    3  A    between atoms: C_6  and  C_7
REMARK    4  A    between atoms: C_11  and  N_12
REMARK    5  A    between atoms: C_20  and  C_21
REMARK                            x       y       z     vdW  Elec       q    Type
REMARK                         _______ _______ _______ _____ _____    ______ ____
ROOT
ATOM      1  C   UNL     1       1.596   8.431  19.338  0.00  0.00    +0.000 A 
ATOM      2  C   UNL     1       2.246   9.139  18.318  0.00  0.00    +0.000 A 
ATOM      3  C   UNL     1       3.092   8.475  17.435  0.00  0.00    +0.000 A 
ATOM      4  C   UNL     1       3.370   7.126  17.626  0.00  0.00    +0.000 A 
ATOM      5  C   UNL     1       2.892   6.466  18.772  0.00  0.00    +0.000 A 
ATOM      6  C   UNL     1       1.905   7.081  19.546  0.00  0.00    +0.000 A 
ENDROOT
BRANCH   5   7
ATOM      7  N   UNL     1       3.675   5.405  19.382  0.00  0.00    +0.000 N 
ATOM      8  C   UNL     1       5.102   5.807  19.478  0.00  0.00    +0.000 C 
ATOM      9  C   UNL     1       5.653   5.285  18.186  0.00  0.00    +0.000 A 
ATOM     10  C   UNL     1       4.864   4.188  17.812  0.00  0.00    +0.000 A 
ATOM     11  C   UNL     1       4.973   3.563  16.586  0.00  0.00    +0.000 A 
ATOM     12  C   UNL     1       5.911   4.085  15.707  0.00  0.00    +0.000 A 
ATOM     13  F   UNL     1       5.999   3.582  14.470  0.00  0.00    +0.000 F 
ATOM     14  C   UNL     1       6.707   5.190  16.049  0.00  0.00    +0.000 A 
ATOM     15  C   UNL     1       6.594   5.817  17.308  0.00  0.00    +0.000 A 
ATOM     16  C   UNL     1       3.669   4.174  18.688  0.00  0.00    +0.000 C 
ATOM     17  O   UNL     1       2.788   3.334  18.617  0.00  0.00    +0.000 OA
BRANCH  15  18
ATOM     18  C   UNL     1       7.385   7.071  17.579  0.00  0.00    +0.000 C 
ATOM     19  F   UNL     1       6.621   8.172  17.806  0.00  0.00    +0.000 F 
ATOM     20  F   UNL     1       8.184   6.943  18.672  0.00  0.00    +0.000 F 
ATOM     21  F   UNL     1       8.209   7.391  16.544  0.00  0.00    +0.000 F 
ENDBRANCH  15  18
ENDBRANCH   5   7
BRANCH   1  25
ATOM     22  C   UNL     1      -0.522  10.962  22.202  0.00  0.00    +0.000 C 
ATOM     23  N   UNL     1      -0.503  11.087  20.914  0.00  0.00    +0.000 NA
ATOM     24  N   UNL     1       0.361  10.342  20.141  0.00  0.00    +0.000 NA
ATOM     25  C   UNL     1       0.647   9.091  20.273  0.00  0.00    +0.000 C 
ATOM     26  O   UNL     1       0.253   8.179  21.192  0.00  0.00    +0.000 OA
ATOM     27  C   UNL     1      -0.428   8.567  22.381  0.00  0.00    +0.000 C 
ATOM     28  C   UNL     1       0.129   9.846  22.958  0.00  0.00    +0.000 C 
BRANCH  22  30
ATOM     29  C   UNL     1      -2.514  12.387  22.342  0.00  0.00    +0.000 C 
ATOM     30  C   UNL     1      -1.171  12.079  22.987  0.00  0.00    +0.000 C 
ENDBRANCH  22  30
ENDBRANCH   1  25
TORSDOF 4
ENDMDL
MODEL 6
REMARK VINA RESULT:      -8.1      2.856      4.352
REMARK  Name = 
REMARK  5 active torsions:
REMARK  status: ('A' for Active; 'I' for Inactive)
REMARK    1  A    between atoms: C_1  and  C_2
REMARK    2  A    between atoms: C_2  and  C_3
REMARK    3  A    between atoms: C_6  and  C_7
REMARK    4  A    between atoms: C_11  and  N_12
REMARK    5  A    between atoms: C_20  and  C_21
REMARK                            x       y       z     vdW  Elec       q    Type
REMARK                         _______ _______ _______ _____ _____    ______ ____
ROOT
ATOM      1  C   UNL     1       1.054   8.943  19.631  0.00  0.00    +0.000 A 
ATOM      2  C   UNL     1       1.562   9.561  18.480  0.00  0.00    +0.000 A 
ATOM      3  C   UNL     1       2.438   8.873  17.646  0.00  0.00    +0.000 A 
ATOM      4  C   UNL     1       2.886   7.607  18.007  0.00  0.00    +0.000 A 
ATOM      5  C   UNL     1       2.549   7.074  19.264  0.00  0.00    +0.000 A 
ATOM      6  C   UNL     1       1.534   7.682  20.007  0.00  0.00    +0.000 A 
ENDROOT
BRANCH   5   7
ATOM      7  N   UNL     1       3.484   6.211  19.964  0.00  0.00    +0.000 N 
ATOM      8  C   UNL     1       4.652   5.905  19.098  0.00  0.00    +0.000 C 
ATOM      9  C   UNL     1       4.207   4.645  18.420  0.00  0.00    +0.000 A 
ATOM     10  C   UNL     1       3.308   4.005  19.285  0.00  0.00    +0.000 A 
ATOM     11  C   UNL     1       2.564   2.901  18.918  0.00  0.00    +0.000 A 
ATOM     12  C   UNL     1       2.735   2.444  17.620  0.00  0.00    +0.000 A 
ATOM     13  F   UNL     1       1.974   1.436  17.175  0.00  0.00    +0.000 F 
ATOM     14  C   UNL     1       3.619   3.071  16.728  0.00  0.00    +0.000 A 
ATOM     15  C   UNL     1       4.381   4.195  17.114  0.00  0.00    +0.000 A 
ATOM     16  C   UNL     1       2.966   4.958  20.366  0.00  0.00    +0.000 C 
ATOM     17  O   UNL     1       2.207   4.697  21.284  0.00  0.00    +0.000 OA
BRANCH  15  18
ATOM     18  C   UNL     1       5.223   4.903  16.084  0.00  0.00    +0.000 C 
ATOM     19  F   UNL     1       5.317   4.247  14.897  0.00  0.00    +0.000 F 
ATOM     20  F   UNL     1       4.734   6.137  15.787  0.00  0.00    +0.000 F 
ATOM     21  F   UNL     1       6.501   5.095  16.510  0.00  0.00    +0.000 F 
ENDBRANCH  15  18
ENDBRANCH   5   7
BRANCH   1  25
ATOM     22  C   UNL     1      -1.206  11.613  22.249  0.00  0.00    +0.000 C 
ATOM     23  N   UNL     1      -1.263  11.554  20.957  0.00  0.00    +0.000 NA
ATOM     24  N   UNL     1      -0.355  10.803  20.241  0.00  0.00    +0.000 NA
ATOM     25  C   UNL     1       0.080   9.623  20.525  0.00  0.00    +0.000 C 
ATOM     26  O   UNL     1      -0.162   8.815  21.583  0.00  0.00    +0.000 OA
ATOM     27  C   UNL     1      -0.826   9.293  22.749  0.00  0.00    +0.000 C 
ATOM     28  C   UNL     1      -0.395  10.695  23.109  0.00  0.00    +0.000 C 
BRANCH  22  30
ATOM     29  C   UNL     1      -3.163  12.178  23.617  0.00  0.00    +0.000 C 
ATOM     30  C   UNL     1      -1.944  12.754  22.913  0.00  0.00    +0.000 C 
ENDBRANCH  22  30
ENDBRANCH   1  25
TORSDOF 4
ENDMDL
MODEL 7
REMARK VINA RESULT:      -8.0      3.205      4.896
REMARK  Name = 
REMARK  5 active torsions:
REMARK  status: ('A' for Active; 'I' for Inactive)
REMARK    1  A    between atoms: C_1  and  C_2
REMARK    2  A    between atoms: C_2  and  C_3
REMARK    3  A    between atoms: C_6  and  C_7
REMARK    4  A    between atoms: C_11  and  N_12
REMARK    5  A    between atoms: C_20  and  C_21
REMARK                            x       y       z     vdW  Elec       q    Type
REMARK                         _______ _______ _______ _____ _____    ______ ____
ROOT
ATOM      1  C   UNL     1       1.415   9.176  19.175  0.00  0.00    +0.000 A 
ATOM      2  C   UNL     1       1.172   8.647  20.450  0.00  0.00    +0.000 A 
ATOM      3  C   UNL     1       1.758   7.444  20.831  0.00  0.00    +0.000 A 
ATOM      4  C   UNL     1       2.507   6.717  19.912  0.00  0.00    +0.000 A 
ATOM      5  C   UNL     1       2.572   7.137  18.571  0.00  0.00    +0.000 A 
ATOM      6  C   UNL     1       2.141   8.424  18.242  0.00  0.00    +0.000 A 
ENDROOT
BRANCH   5   7
ATOM      7  N   UNL     1       2.666   6.155  17.505  0.00  0.00    +0.000 N 
ATOM      8  C   UNL     1       1.699   5.051  17.732  0.00  0.00    +0.000 C 
ATOM      9  C   UNL     1       2.527   4.077  18.515  0.00  0.00    +0.000 A 
ATOM     10  C   UNL     1       3.865   4.282  18.149  0.00  0.00    +0.000 A 
ATOM     11  C   UNL     1       4.926   3.680  18.796  0.00  0.00    +0.000 A 
ATOM     12  C   UNL     1       4.609   2.852  19.862  0.00  0.00    +0.000 A 
ATOM     13  F   UNL     1       5.597   2.314  20.588  0.00  0.00    +0.000 F 
ATOM     14  C   UNL     1       3.280   2.637  20.260  0.00  0.00    +0.000 A 
ATOM     15  C   UNL     1       2.202   3.251  19.588  0.00  0.00    +0.000 A 
ATOM     16  C   UNL     1       3.929   5.536  17.362  0.00  0.00    +0.000 C 
ATOM     17  O   UNL     1       4.959   5.987  16.890  0.00  0.00    +0.000 OA
BRANCH  15  18
ATOM     18  C   UNL     1       0.806   3.084  20.129  0.00  0.00    +0.000 C 
ATOM     19  F   UNL     1       0.151   4.254  20.350  0.00  0.00    +0.000 F 
ATOM     20  F   UNL     1       0.014   2.369  19.285  0.00  0.00    +0.000 F 
ATOM     21  F   UNL     1       0.792   2.415  21.315  0.00  0.00    +0.000 F 
ENDBRANCH  15  18
ENDBRANCH   5   7
BRANCH   1  25
ATOM     22  C   UNL     1      -0.011  13.282  18.729  0.00  0.00    +0.000 C 
ATOM     23  N   UNL     1       1.172  12.832  18.458  0.00  0.00    +0.000 NA
ATOM     24  N   UNL     1       1.549  11.559  18.828  0.00  0.00    +0.000 NA
ATOM     25  C   UNL     1       0.848  10.480  18.742  0.00  0.00    +0.000 C 
ATOM     26  O   UNL     1      -0.427  10.276  18.335  0.00  0.00    +0.000 OA
ATOM     27  C   UNL     1      -1.326  11.361  18.131  0.00  0.00    +0.000 C 
ATOM     28  C   UNL     1      -1.161  12.436  19.179  0.00  0.00    +0.000 C 
BRANCH  22  30
ATOM     29  C   UNL     1       1.160  15.434  18.853  0.00  0.00    +0.000 C 
ATOM     30  C   UNL     1      -0.201  14.781  18.673  0.00  0.00    +0.000 C 
ENDBRANCH  22  30
ENDBRANCH   1  25
TORSDOF 4
ENDMDL
MODEL 8
REMARK VINA RESULT:      -7.8      4.226      8.436
REMARK  Name = 
REMARK  5 active torsions:
REMARK  status: ('A' for Active; 'I' for Inactive)
REMARK    1  A    between atoms: C_1  and  C_2
REMARK    2  A    between atoms: C_2  and  C_3
REMARK    3  A    between atoms: C_6  and  C_7
REMARK    4  A    between atoms: C_11  and  N_12
REMARK    5  A    between atoms: C_20  and  C_21
REMARK                            x       y       z     vdW  Elec       q    Type
REMARK                         _______ _______ _______ _____ _____    ______ ____
ROOT
ATOM      1  C   UNL     1       2.322   7.204  19.479  0.00  0.00    +0.000 A 
ATOM      2  C   UNL     1       2.424   7.671  18.162  0.00  0.00    +0.000 A 
ATOM      3  C   UNL     1       2.003   8.957  17.840  0.00  0.00    +0.000 A 
ATOM      4  C   UNL     1       1.388   9.745  18.807  0.00  0.00    +0.000 A 
ATOM      5  C   UNL     1       1.088   9.202  20.070  0.00  0.00    +0.000 A 
ATOM      6  C   UNL     1       1.672   7.988  20.441  0.00  0.00    +0.000 A 
ENDROOT
BRANCH   5   7
ATOM      7  N   UNL     1      -0.098   9.636  20.786  0.00  0.00    +0.000 N 
ATOM      8  C   UNL     1      -1.291   9.558  19.905  0.00  0.00    +0.000 C 
ATOM      9  C   UNL     1      -1.318  10.932  19.305  0.00  0.00    +0.000 A 
ATOM     10  C   UNL     1      -0.711  11.797  20.226  0.00  0.00    +0.000 A 
ATOM     11  C   UNL     1      -0.404  13.112  19.937  0.00  0.00    +0.000 A 
ATOM     12  C   UNL     1      -0.716  13.553  18.660  0.00  0.00    +0.000 A 
ATOM     13  F   UNL     1      -0.359  14.789  18.289  0.00  0.00    +0.000 F 
ATOM     14  C   UNL     1      -1.313  12.706  17.713  0.00  0.00    +0.000 A 
ATOM     15  C   UNL     1      -1.629  11.366  18.020  0.00  0.00    +0.000 A 
ATOM     16  C   UNL     1      -0.062  10.966  21.266  0.00  0.00    +0.000 C 
ATOM     17  O   UNL     1       0.548  11.425  22.217  0.00  0.00    +0.000 OA
BRANCH  15  18
ATOM     18  C   UNL     1      -2.157  10.466  16.932  0.00  0.00    +0.000 C 
ATOM     19  F   UNL     1      -2.357  11.092  15.742  0.00  0.00    +0.000 F 
ATOM     20  F   UNL     1      -1.312   9.433  16.669  0.00  0.00    +0.000 F 
ATOM     21  F   UNL     1      -3.350   9.902  17.266  0.00  0.00    +0.000 F 
ENDBRANCH  15  18
ENDBRANCH   5   7
BRANCH   1  25
ATOM     22  C   UNL     1       3.648   3.051  19.769  0.00  0.00    +0.000 C 
ATOM     23  N   UNL     1       4.384   4.091  19.542  0.00  0.00    +0.000 NA
ATOM     24  N   UNL     1       3.814   5.319  19.281  0.00  0.00    +0.000 NA
ATOM     25  C   UNL     1       2.803   5.855  19.876  0.00  0.00    +0.000 C 
ATOM     26  O   UNL     1       1.994   5.385  20.854  0.00  0.00    +0.000 OA
ATOM     27  C   UNL     1       2.017   4.017  21.247  0.00  0.00    +0.000 C 
ATOM     28  C   UNL     1       2.181   3.093  20.063  0.00  0.00    +0.000 C 
BRANCH  22  30
ATOM     29  C   UNL     1       3.856   1.083  18.318  0.00  0.00    +0.000 C 
ATOM     30  C   UNL     1       4.314   1.700  19.630  0.00  0.00    +0.000 C 
ENDBRANCH  22  30
ENDBRANCH   1  25
TORSDOF 4
ENDMDL
MODEL 9
REMARK VINA RESULT:      -7.7      6.196     10.205
REMARK  Name = 
REMARK  5 active torsions:
REMARK  status: ('A' for Active; 'I' for Inactive)
REMARK    1  A    between atoms: C_1  and  C_2
REMARK    2  A    between atoms: C_2  and  C_3
REMARK    3  A    between atoms: C_6  and  C_7
REMARK    4  A    between atoms: C_11  and  N_12
REMARK    5  A    between atoms: C_20  and  C_21
REMARK                            x       y       z     vdW  Elec       q    Type
REMARK                         _______ _______ _______ _____ _____    ______ ____
ROOT
ATOM      1  C   UNL     1       0.396   9.307  21.012  0.00  0.00    +0.000 A 
ATOM      2  C   UNL     1       0.611   9.061  22.375  0.00  0.00    +0.000 A 
ATOM      3  C   UNL     1      -0.078   9.795  23.335  0.00  0.00    +0.000 A 
ATOM      4  C   UNL     1      -0.906  10.841  22.944  0.00  0.00    +0.000 A 
ATOM      5  C   UNL     1      -0.956  11.230  21.593  0.00  0.00    +0.000 A 
ATOM      6  C   UNL     1      -0.413  10.382  20.624  0.00  0.00    +0.000 A 
ENDROOT
BRANCH   5   7
ATOM      7  N   UNL     1      -1.159  12.625  21.243  0.00  0.00    +0.000 N 
ATOM      8  C   UNL     1      -1.924  13.319  22.312  0.00  0.00    +0.000 C 
ATOM      9  C   UNL     1      -3.336  13.137  21.842  0.00  0.00    +0.000 A 
ATOM     10  C   UNL     1      -3.296  13.020  20.445  0.00  0.00    +0.000 A 
ATOM     11  C   UNL     1      -4.394  12.670  19.685  0.00  0.00    +0.000 A 
ATOM     12  C   UNL     1      -5.570  12.418  20.378  0.00  0.00    +0.000 A 
ATOM     13  F   UNL     1      -6.644  11.985  19.707  0.00  0.00    +0.000 F 
ATOM     14  C   UNL     1      -5.637  12.516  21.777  0.00  0.00    +0.000 A 
ATOM     15  C   UNL     1      -4.510  12.882  22.544  0.00  0.00    +0.000 A 
ATOM     16  C   UNL     1      -1.879  12.850  20.048  0.00  0.00    +0.000 C 
ATOM     17  O   UNL     1      -1.510  12.727  18.892  0.00  0.00    +0.000 OA
BRANCH  15  18
ATOM     18  C   UNL     1      -4.604  12.854  24.048  0.00  0.00    +0.000 C 
ATOM     19  F   UNL     1      -3.881  11.863  24.632  0.00  0.00    +0.000 F 
ATOM     20  F   UNL     1      -4.163  14.013  24.607  0.00  0.00    +0.000 F 
ATOM     21  F   UNL     1      -5.885  12.691  24.479  0.00  0.00    +0.000 F 
ENDBRANCH  15  18
ENDBRANCH   5   7
BRANCH   1  25
ATOM     22  C   UNL     1       3.124   7.106  18.403  0.00  0.00    +0.000 C 
ATOM     23  N   UNL     1       2.441   6.633  19.395  0.00  0.00    +0.000 NA
ATOM     24  N   UNL     1       1.769   7.472  20.258  0.00  0.00    +0.000 NA
ATOM     25  C   UNL     1       1.073   8.514  19.952  0.00  0.00    +0.000 C 
ATOM     26  O   UNL     1       0.840   9.111  18.760  0.00  0.00    +0.000 OA
ATOM     27  C   UNL     1       1.579   8.761  17.595  0.00  0.00    +0.000 C 
ATOM     28  C   UNL     1       3.037   8.515  17.904  0.00  0.00    +0.000 C 
BRANCH  22  30
ATOM     29  C   UNL     1       3.495   4.821  17.590  0.00  0.00    +0.000 C 
ATOM     30  C   UNL     1       4.145   6.184  17.775  0.00  0.00    +0.000 C 
ENDBRANCH  22  30
ENDBRANCH   1  25
TORSDOF 4
ENDMDL
