MODEL 1
REMARK VINA RESULT:      -8.3      0.000      0.000
REMARK  Name = 
REMARK  7 active torsions:
REMARK  status: ('A' for Active; 'I' for Inactive)
REMARK    1  A    between atoms: C_1  and  C_2
REMARK    2  A    between atoms: C_2  and  N_3
REMARK    3  A    between atoms: C_2  and  C_10
REMARK    4  A    between atoms: N_8  and  C_9
REMARK    5  A    between atoms: C_14  and  N_15
REMARK    6  A    between atoms: C_16  and  C_18
REMARK    7  A    between atoms: C_23  and  S_24
REMARK                            x       y       z     vdW  Elec       q    Type
REMARK                         _______ _______ _______ _____ _____    ______ ____
ROOT
ATOM      1  C   UNL     1       1.134   9.551  19.393  0.00  0.00    +0.000 A 
ATOM      2  C   UNL     1       0.831   9.078  20.677  0.00  0.00    +0.000 A 
ATOM      3  C   UNL     1       1.261   7.818  21.086  0.00  0.00    +0.000 A 
ATOM      4  C   UNL     1       1.978   7.002  20.210  0.00  0.00    +0.000 A 
ATOM      5  C   UNL     1       2.291   7.443  18.924  0.00  0.00    +0.000 A 
ATOM      6  C   UNL     1       1.891   8.731  18.533  0.00  0.00    +0.000 A 
ENDROOT
BRANCH   5   7
ATOM      7  N   UNL     1       2.993   6.658  17.982  0.00  0.00    +0.000 N 
ATOM      8  C   UNL     1       4.255   6.105  18.151  0.00  0.00    +0.000 C 
ATOM      9  O   UNL     1       4.946   6.160  19.158  0.00  0.00    +0.000 OA
ATOM     10  H   UNL     1       2.501   6.469  17.119  0.00  0.00    +0.000 HD
BRANCH   8  11
ATOM     11  C   UNL     1       4.779   5.331  16.998  0.00  0.00    +0.000 A 
ATOM     12  C   UNL     1       5.417   6.026  15.954  0.00  0.00    +0.000 A 
ATOM     13  C   UNL     1       5.998   5.338  14.885  0.00  0.00    +0.000 A 
ATOM     14  C   UNL     1       5.948   3.949  14.843  0.00  0.00    +0.000 A 
ATOM     15  C   UNL     1       5.271   3.250  15.840  0.00  0.00    +0.000 A 
ATOM     16  C   UNL     1       4.658   3.937  16.903  0.00  0.00    +0.000 A 
BRANCH  16  17
ATOM     17  S   UNL     1       3.767   2.964  18.089  0.00  0.00    +0.000 S 
ATOM     18  O   UNL     1       4.574   2.920  19.294  0.00  0.00    +0.000 OA
ATOM     19  O   UNL     1       2.408   3.467  18.124  0.00  0.00    +0.000 OA
ATOM     20  F   UNL     1       3.701   1.455  17.621  0.00  0.00    +0.000 F 
ENDBRANCH  16  17
ENDBRANCH   8  11
ENDBRANCH   5   7
BRANCH   1  22
ATOM     21  C   UNL     1       1.733  11.840  18.513  0.00  0.00    +0.000 C 
ATOM     22  C   UNL     1       0.601  10.910  18.957  0.00  0.00    +0.000 C 
BRANCH  22  23
ATOM     23  N   UNL     1      -0.363  10.716  17.864  0.00  0.00    +0.000 N 
ATOM     24  C   UNL     1      -1.643  11.105  18.082  0.00  0.00    +0.000 A 
ATOM     25  N   UNL     1      -2.151  11.756  19.108  0.00  0.00    +0.000 NA
ATOM     26  N   UNL     1      -3.505  11.895  18.915  0.00  0.00    +0.000 NA
ATOM     27  C   UNL     1      -3.792  11.352  17.758  0.00  0.00    +0.000 A 
ATOM     28  N   UNL     1      -2.657  10.855  17.192  0.00  0.00    +0.000 N 
ATOM     29  C   UNL     1      -2.577  10.259  15.888  0.00  0.00    +0.000 C 
ATOM     30  H   UNL     1      -0.229   9.829  17.387  0.00  0.00    +0.000 HD
ENDBRANCH  22  23
ENDBRANCH   1  22
TORSDOF 5
ENDMDL
MODEL 2
REMARK VINA RESULT:      -8.2      1.655      1.829
REMARK  Name = 
REMARK  7 active torsions:
REMARK  status: ('A' for Active; 'I' for Inactive)
REMARK    1  A    between atoms: C_1  and  C_2
REMARK    2  A    between atoms: C_2  and  N_3
REMARK    3  A    between atoms: C_2  and  C_10
REMARK    4  A    between atoms: N_8  and  C_9
REMARK    5  A    between atoms: C_14  and  N_15
REMARK    6  A    between atoms: C_16  and  C_18
REMARK    7  A    between atoms: C_23  and  S_24
REMARK                            x       y       z     vdW  Elec       q    Type
REMARK                         _______ _______ _______ _____ _____    ______ ____
ROOT
ATOM      1  C   UNL     1       0.311  10.225  19.848  0.00  0.00    +0.000 A 
ATOM      2  C   UNL     1      -0.300   9.872  21.059  0.00  0.00    +0.000 A 
ATOM      3  C   UNL     1       0.047   8.689  21.707  0.00  0.00    +0.000 A 
ATOM      4  C   UNL     1       0.990   7.830  21.143  0.00  0.00    +0.000 A 
ATOM      5  C   UNL     1       1.611   8.152  19.935  0.00  0.00    +0.000 A 
ATOM      6  C   UNL     1       1.288   9.365  19.308  0.00  0.00    +0.000 A 
ENDROOT
BRANCH   5   7
ATOM      7  N   UNL     1       2.556   7.315  19.300  0.00  0.00    +0.000 N 
ATOM      8  C   UNL     1       2.956   7.385  17.972  0.00  0.00    +0.000 C 
ATOM      9  O   UNL     1       2.598   8.213  17.146  0.00  0.00    +0.000 OA
ATOM     10  H   UNL     1       2.993   6.621  19.892  0.00  0.00    +0.000 HD
BRANCH   8  11
ATOM     11  C   UNL     1       3.956   6.375  17.545  0.00  0.00    +0.000 A 
ATOM     12  C   UNL     1       5.222   6.819  17.119  0.00  0.00    +0.000 A 
ATOM     13  C   UNL     1       6.225   5.907  16.783  0.00  0.00    +0.000 A 
ATOM     14  C   UNL     1       5.978   4.541  16.864  0.00  0.00    +0.000 A 
ATOM     15  C   UNL     1       4.713   4.086  17.228  0.00  0.00    +0.000 A 
ATOM     16  C   UNL     1       3.689   4.999  17.541  0.00  0.00    +0.000 A 
BRANCH  16  17
ATOM     17  S   UNL     1       2.095   4.324  17.933  0.00  0.00    +0.000 S 
ATOM     18  O   UNL     1       2.015   3.026  17.290  0.00  0.00    +0.000 OA
ATOM     19  O   UNL     1       1.913   4.457  19.364  0.00  0.00    +0.000 OA
ATOM     20  F   UNL     1       0.955   5.167  17.231  0.00  0.00    +0.000 F 
ENDBRANCH  16  17
ENDBRANCH   8  11
ENDBRANCH   5   7
BRANCH   1  22
ATOM     21  C   UNL     1       1.064  12.383  18.775  0.00  0.00    +0.000 C 
ATOM     22  C   UNL     1      -0.131  11.498  19.136  0.00  0.00    +0.000 C 
BRANCH  22  23
ATOM     23  N   UNL     1      -0.883  11.131  17.926  0.00  0.00    +0.000 N 
ATOM     24  C   UNL     1      -2.227  11.305  17.948  0.00  0.00    +0.000 A 
ATOM     25  N   UNL     1      -2.977  11.876  18.868  0.00  0.00    +0.000 NA
ATOM     26  N   UNL     1      -4.294  11.786  18.481  0.00  0.00    +0.000 NA
ATOM     27  C   UNL     1      -4.318  11.187  17.316  0.00  0.00    +0.000 A 
ATOM     28  N   UNL     1      -3.048  10.878  16.934  0.00  0.00    +0.000 N 
ATOM     29  C   UNL     1      -2.684  10.286  15.677  0.00  0.00    +0.000 C 
ATOM     30  H   UNL     1      -0.539  10.272  17.506  0.00  0.00    +0.000 HD
ENDBRANCH  22  23
ENDBRANCH   1  22
TORSDOF 5
ENDMDL
MODEL 3
REMARK VINA RESULT:      -8.2      1.112      1.273
REMARK  Name = 
REMARK  7 active torsions:
REMARK  status: ('A' for Active; 'I' for Inactive)
REMARK    1  A    between atoms: C_1  and  C_2
REMARK    2  A    between atoms: C_2  and  N_3
REMARK    3  A    between atoms: C_2  and  C_10
REMARK    4  A    between atoms: N_8  and  C_9
REMARK    5  A    between atoms: C_14  and  N_15
REMARK    6  A    between atoms: C_16  and  C_18
REMARK    7  A    between atoms: C_23  and  S_24
REMARK                            x       y       z     vdW  Elec       q    Type
REMARK                         _______ _______ _______ _____ _____    ______ ____
ROOT
ATOM      1  C   UNL     1       0.225  10.328  19.453  0.00  0.00    +0.000 A 
ATOM      2  C   UNL     1      -0.007   9.971  20.788  0.00  0.00    +0.000 A 
ATOM      3  C   UNL     1       0.594   8.839  21.332  0.00  0.00    +0.000 A 
ATOM      4  C   UNL     1       1.415   8.032  20.544  0.00  0.00    +0.000 A 
ATOM      5  C   UNL     1       1.661   8.358  19.210  0.00  0.00    +0.000 A 
ATOM      6  C   UNL     1       1.087   9.524  18.679  0.00  0.00    +0.000 A 
ENDROOT
BRANCH   5   7
ATOM      7  N   UNL     1       2.463   7.571  18.353  0.00  0.00    +0.000 N 
ATOM      8  C   UNL     1       3.218   6.465  18.719  0.00  0.00    +0.000 C 
ATOM      9  O   UNL     1       3.274   5.956  19.829  0.00  0.00    +0.000 OA
ATOM     10  H   UNL     1       2.453   7.839  17.378  0.00  0.00    +0.000 HD
BRANCH   8  11
ATOM     11  C   UNL     1       3.989   5.820  17.627  0.00  0.00    +0.000 A 
ATOM     12  C   UNL     1       4.995   6.563  16.982  0.00  0.00    +0.000 A 
ATOM     13  C   UNL     1       5.802   5.978  16.004  0.00  0.00    +0.000 A 
ATOM     14  C   UNL     1       5.615   4.645  15.654  0.00  0.00    +0.000 A 
ATOM     15  C   UNL     1       4.587   3.912  16.242  0.00  0.00    +0.000 A 
ATOM     16  C   UNL     1       3.751   4.504  17.207  0.00  0.00    +0.000 A 
BRANCH  16  17
ATOM     17  S   UNL     1       2.431   3.509  17.852  0.00  0.00    +0.000 S 
ATOM     18  O   UNL     1       2.783   3.173  19.219  0.00  0.00    +0.000 OA
ATOM     19  O   UNL     1       1.190   4.195  17.552  0.00  0.00    +0.000 OA
ATOM     20  F   UNL     1       2.388   2.110  17.116  0.00  0.00    +0.000 F 
ENDBRANCH  16  17
ENDBRANCH   8  11
ENDBRANCH   5   7
BRANCH   1  22
ATOM     21  C   UNL     1       0.482  12.691  18.602  0.00  0.00    +0.000 C 
ATOM     22  C   UNL     1      -0.491  11.540  18.871  0.00  0.00    +0.000 C 
BRANCH  22  23
ATOM     23  N   UNL     1      -1.172  11.143  17.631  0.00  0.00    +0.000 N 
ATOM     24  C   UNL     1      -2.516  11.307  17.574  0.00  0.00    +0.000 A 
ATOM     25  N   UNL     1      -3.319  11.892  18.438  0.00  0.00    +0.000 NA
ATOM     26  N   UNL     1      -4.612  11.784  17.981  0.00  0.00    +0.000 NA
ATOM     27  C   UNL     1      -4.568  11.161  16.830  0.00  0.00    +0.000 A 
ATOM     28  N   UNL     1      -3.277  10.853  16.526  0.00  0.00    +0.000 N 
ATOM     29  C   UNL     1      -2.841  10.236  15.304  0.00  0.00    +0.000 C 
ATOM     30  H   UNL     1      -0.800  10.277  17.249  0.00  0.00    +0.000 HD
ENDBRANCH  22  23
ENDBRANCH   1  22
TORSDOF 5
ENDMDL
MODEL 4
REMARK VINA RESULT:      -7.9      1.458      1.688
REMARK  Name = 
REMARK  7 active torsions:
REMARK  status: ('A' for Active; 'I' for Inactive)
REMARK    1  A    between atoms: C_1  and  C_2
REMARK    2  A    between atoms: C_2  and  N_3
REMARK    3  A    between atoms: C_2  and  C_10
REMARK    4  A    between atoms: N_8  and  C_9
REMARK    5  A    between atoms: C_14  and  N_15
REMARK    6  A    between atoms: C_16  and  C_18
REMARK    7  A    between atoms: C_23  and  S_24
REMARK                            x       y       z     vdW  Elec       q    Type
REMARK                         _______ _______ _______ _____ _____    ______ ____
ROOT
ATOM      1  C   UNL     1       0.313  10.091  19.592  0.00  0.00    +0.000 A 
ATOM      2  C   UNL     1      -0.236   9.631  20.797  0.00  0.00    +0.000 A 
ATOM      3  C   UNL     1       0.264   8.484  21.409  0.00  0.00    +0.000 A 
ATOM      4  C   UNL     1       1.301   7.765  20.813  0.00  0.00    +0.000 A 
ATOM      5  C   UNL     1       1.864   8.195  19.611  0.00  0.00    +0.000 A 
ATOM      6  C   UNL     1       1.385   9.375  19.021  0.00  0.00    +0.000 A 
ENDROOT
BRANCH   5   7
ATOM      7  N   UNL     1       2.899   7.500  18.945  0.00  0.00    +0.000 N 
ATOM      8  C   UNL     1       2.750   6.382  18.136  0.00  0.00    +0.000 C 
ATOM      9  O   UNL     1       1.698   5.844  17.822  0.00  0.00    +0.000 OA
ATOM     10  H   UNL     1       3.826   7.886  19.059  0.00  0.00    +0.000 HD
BRANCH   8  11
ATOM     11  C   UNL     1       4.003   5.829  17.564  0.00  0.00    +0.000 A 
ATOM     12  C   UNL     1       4.613   6.509  16.494  0.00  0.00    +0.000 A 
ATOM     13  C   UNL     1       5.834   6.076  15.972  0.00  0.00    +0.000 A 
ATOM     14  C   UNL     1       6.461   4.957  16.509  0.00  0.00    +0.000 A 
ATOM     15  C   UNL     1       5.843   4.239  17.530  0.00  0.00    +0.000 A 
ATOM     16  C   UNL     1       4.599   4.653  18.041  0.00  0.00    +0.000 A 
BRANCH  16  17
ATOM     17  S   UNL     1       3.863   3.639  19.297  0.00  0.00    +0.000 S 
ATOM     18  O   UNL     1       2.748   2.944  18.681  0.00  0.00    +0.000 OA
ATOM     19  O   UNL     1       4.934   2.902  19.937  0.00  0.00    +0.000 OA
ATOM     20  F   UNL     1       3.183   4.542  20.403  0.00  0.00    +0.000 F 
ENDBRANCH  16  17
ENDBRANCH   8  11
ENDBRANCH   5   7
BRANCH   1  22
ATOM     21  C   UNL     1       0.774  12.369  18.606  0.00  0.00    +0.000 C 
ATOM     22  C   UNL     1      -0.292  11.317  18.920  0.00  0.00    +0.000 C 
BRANCH  22  23
ATOM     23  N   UNL     1      -0.977  10.897  17.688  0.00  0.00    +0.000 N 
ATOM     24  C   UNL     1      -2.308  11.136  17.599  0.00  0.00    +0.000 A 
ATOM     25  N   UNL     1      -3.088  11.810  18.419  0.00  0.00    +0.000 NA
ATOM     26  N   UNL     1      -4.378  11.753  17.945  0.00  0.00    +0.000 NA
ATOM     27  C   UNL     1      -4.354  11.070  16.827  0.00  0.00    +0.000 A 
ATOM     28  N   UNL     1      -3.078  10.673  16.562  0.00  0.00    +0.000 N 
ATOM     29  C   UNL     1      -2.661   9.971  15.381  0.00  0.00    +0.000 C 
ATOM     30  H   UNL     1      -0.651   9.993  17.357  0.00  0.00    +0.000 HD
ENDBRANCH  22  23
ENDBRANCH   1  22
TORSDOF 5
ENDMDL
MODEL 5
REMARK VINA RESULT:      -7.9      1.644      2.085
REMARK  Name = 
REMARK  7 active torsions:
REMARK  status: ('A' for Active; 'I' for Inactive)
REMARK    1  A    between atoms: C_1  and  C_2
REMARK    2  A    between atoms: C_2  and  N_3
REMARK    3  A    between atoms: C_2  and  C_10
REMARK    4  A    between atoms: N_8  and  C_9
REMARK    5  A    between atoms: C_14  and  N_15
REMARK    6  A    between atoms: C_16  and  C_18
REMARK    7  A    between atoms: C_23  and  S_24
REMARK                            x       y       z     vdW  Elec       q    Type
REMARK                         _______ _______ _______ _____ _____    ______ ____
ROOT
ATOM      1  C   UNL     1       1.530   9.040  19.119  0.00  0.00    +0.000 A 
ATOM      2  C   UNL     1       1.116   8.355  20.269  0.00  0.00    +0.000 A 
ATOM      3  C   UNL     1       1.627   7.093  20.561  0.00  0.00    +0.000 A 
ATOM      4  C   UNL     1       2.540   6.486  19.698  0.00  0.00    +0.000 A 
ATOM      5  C   UNL     1       2.967   7.142  18.542  0.00  0.00    +0.000 A 
ATOM      6  C   UNL     1       2.481   8.431  18.274  0.00  0.00    +0.000 A 
ENDROOT
BRANCH   5   7
ATOM      7  N   UNL     1       3.870   6.574  17.615  0.00  0.00    +0.000 N 
ATOM      8  C   UNL     1       4.005   5.224  17.320  0.00  0.00    +0.000 C 
ATOM      9  O   UNL     1       3.332   4.308  17.772  0.00  0.00    +0.000 OA
ATOM     10  H   UNL     1       4.446   7.232  17.108  0.00  0.00    +0.000 HD
BRANCH   8  11
ATOM     11  C   UNL     1       5.043   4.883  16.315  0.00  0.00    +0.000 A 
ATOM     12  C   UNL     1       4.631   4.481  15.031  0.00  0.00    +0.000 A 
ATOM     13  C   UNL     1       5.567   4.226  14.026  0.00  0.00    +0.000 A 
ATOM     14  C   UNL     1       6.925   4.368  14.289  0.00  0.00    +0.000 A 
ATOM     15  C   UNL     1       7.351   4.710  15.570  0.00  0.00    +0.000 A 
ATOM     16  C   UNL     1       6.415   4.939  16.596  0.00  0.00    +0.000 A 
BRANCH  16  17
ATOM     17  S   UNL     1       7.056   5.308  18.208  0.00  0.00    +0.000 S 
ATOM     18  O   UNL     1       8.214   4.456  18.410  0.00  0.00    +0.000 OA
ATOM     19  O   UNL     1       7.170   6.750  18.306  0.00  0.00    +0.000 OA
ATOM     20  F   UNL     1       6.039   4.837  19.324  0.00  0.00    +0.000 F 
ENDBRANCH  16  17
ENDBRANCH   8  11
ENDBRANCH   5   7
BRANCH   1  22
ATOM     21  C   UNL     1       1.958  11.380  18.272  0.00  0.00    +0.000 C 
ATOM     22  C   UNL     1       0.911  10.395  18.797  0.00  0.00    +0.000 C 
BRANCH  22  23
ATOM     23  N   UNL     1      -0.160  10.207  17.807  0.00  0.00    +0.000 N 
ATOM     24  C   UNL     1      -1.360  10.779  18.067  0.00  0.00    +0.000 A 
ATOM     25  N   UNL     1      -1.697  11.599  19.041  0.00  0.00    +0.000 NA
ATOM     26  N   UNL     1      -3.037  11.889  18.929  0.00  0.00    +0.000 NA
ATOM     27  C   UNL     1      -3.484  11.263  17.869  0.00  0.00    +0.000 A 
ATOM     28  N   UNL     1      -2.470  10.565  17.288  0.00  0.00    +0.000 N 
ATOM     29  C   UNL     1      -2.574   9.823  16.063  0.00  0.00    +0.000 C 
ATOM     30  H   UNL     1      -0.174   9.262  17.431  0.00  0.00    +0.000 HD
ENDBRANCH  22  23
ENDBRANCH   1  22
TORSDOF 5
ENDMDL
MODEL 6
REMARK VINA RESULT:      -7.8      1.802      2.054
REMARK  Name = 
REMARK  7 active torsions:
REMARK  status: ('A' for Active; 'I' for Inactive)
REMARK    1  A    between atoms: C_1  and  C_2
REMARK    2  A    between atoms: C_2  and  N_3
REMARK    3  A    between atoms: C_2  and  C_10
REMARK    4  A    between atoms: N_8  and  C_9
REMARK    5  A    between atoms: C_14  and  N_15
REMARK    6  A    between atoms: C_16  and  C_18
REMARK    7  A    between atoms: C_23  and  S_24
REMARK                            x       y       z     vdW  Elec       q    Type
REMARK                         _______ _______ _______ _____ _____    ______ ____
ROOT
ATOM      1  C   UNL     1       0.231  10.450  20.038  0.00  0.00    +0.000 A 
ATOM      2  C   UNL     1      -0.549  10.173  21.170  0.00  0.00    +0.000 A 
ATOM      3  C   UNL     1      -0.323   9.022  21.919  0.00  0.00    +0.000 A 
ATOM      4  C   UNL     1       0.667   8.117  21.536  0.00  0.00    +0.000 A 
ATOM      5  C   UNL     1       1.456   8.361  20.411  0.00  0.00    +0.000 A 
ATOM      6  C   UNL     1       1.252   9.544  19.684  0.00  0.00    +0.000 A 
ENDROOT
BRANCH   5   7
ATOM      7  N   UNL     1       2.458   7.475  19.957  0.00  0.00    +0.000 N 
ATOM      8  C   UNL     1       2.540   6.905  18.693  0.00  0.00    +0.000 C 
ATOM      9  O   UNL     1       1.793   7.116  17.749  0.00  0.00    +0.000 OA
ATOM     10  H   UNL     1       3.191   7.268  20.622  0.00  0.00    +0.000 HD
BRANCH   8  11
ATOM     11  C   UNL     1       3.688   5.990  18.472  0.00  0.00    +0.000 A 
ATOM     12  C   UNL     1       4.758   6.433  17.672  0.00  0.00    +0.000 A 
ATOM     13  C   UNL     1       5.896   5.642  17.497  0.00  0.00    +0.000 A 
ATOM     14  C   UNL     1       5.981   4.400  18.116  0.00  0.00    +0.000 A 
ATOM     15  C   UNL     1       4.907   3.923  18.864  0.00  0.00    +0.000 A 
ATOM     16  C   UNL     1       3.745   4.701  19.020  0.00  0.00    +0.000 A 
BRANCH  16  17
ATOM     17  S   UNL     1       2.407   3.982  19.938  0.00  0.00    +0.000 S 
ATOM     18  O   UNL     1       2.311   4.713  21.188  0.00  0.00    +0.000 OA
ATOM     19  O   UNL     1       1.272   3.891  19.041  0.00  0.00    +0.000 OA
ATOM     20  F   UNL     1       2.777   2.511  20.385  0.00  0.00    +0.000 F 
ENDBRANCH  16  17
ENDBRANCH   8  11
ENDBRANCH   5   7
BRANCH   1  22
ATOM     21  C   UNL     1       1.201  12.434  18.815  0.00  0.00    +0.000 C 
ATOM     22  C   UNL     1      -0.077  11.688  19.207  0.00  0.00    +0.000 C 
BRANCH  22  23
ATOM     23  N   UNL     1      -0.825  11.285  18.007  0.00  0.00    +0.000 N 
ATOM     24  C   UNL     1      -2.175  11.403  18.041  0.00  0.00    +0.000 A 
ATOM     25  N   UNL     1      -2.939  11.947  18.965  0.00  0.00    +0.000 NA
ATOM     26  N   UNL     1      -4.254  11.799  18.592  0.00  0.00    +0.000 NA
ATOM     27  C   UNL     1      -4.265  11.194  17.431  0.00  0.00    +0.000 A 
ATOM     28  N   UNL     1      -2.987  10.936  17.038  0.00  0.00    +0.000 N 
ATOM     29  C   UNL     1      -2.611  10.353  15.780  0.00  0.00    +0.000 C 
ATOM     30  H   UNL     1      -0.449  10.439  17.588  0.00  0.00    +0.000 HD
ENDBRANCH  22  23
ENDBRANCH   1  22
TORSDOF 5
ENDMDL
MODEL 7
REMARK VINA RESULT:      -7.8      1.769      3.104
REMARK  Name = 
REMARK  7 active torsions:
REMARK  status: ('A' for Active; 'I' for Inactive)
REMARK    1  A    between atoms: C_1  and  C_2
REMARK    2  A    between atoms: C_2  and  N_3
REMARK    3  A    between atoms: C_2  and  C_10
REMARK    4  A    between atoms: N_8  and  C_9
REMARK    5  A    between atoms: C_14  and  N_15
REMARK    6  A    between atoms: C_16  and  C_18
REMARK    7  A    between atoms: C_23  and  S_24
REMARK                            x       y       z     vdW  Elec       q    Type
REMARK                         _______ _______ _______ _____ _____    ______ ____
ROOT
ATOM      1  C   UNL     1       0.980   9.617  19.180  0.00  0.00    +0.000 A 
ATOM      2  C   UNL     1       0.778   9.238  20.514  0.00  0.00    +0.000 A 
ATOM      3  C   UNL     1       1.328   8.056  21.005  0.00  0.00    +0.000 A 
ATOM      4  C   UNL     1       2.067   7.223  20.164  0.00  0.00    +0.000 A 
ATOM      5  C   UNL     1       2.282   7.571  18.830  0.00  0.00    +0.000 A 
ATOM      6  C   UNL     1       1.760   8.784  18.353  0.00  0.00    +0.000 A 
ENDROOT
BRANCH   5   7
ATOM      7  N   UNL     1       3.000   6.762  17.921  0.00  0.00    +0.000 N 
ATOM      8  C   UNL     1       4.216   6.135  18.162  0.00  0.00    +0.000 C 
ATOM      9  O   UNL     1       4.840   6.136  19.213  0.00  0.00    +0.000 OA
ATOM     10  H   UNL     1       2.557   6.613  17.024  0.00  0.00    +0.000 HD
BRANCH   8  11
ATOM     11  C   UNL     1       4.772   5.350  17.032  0.00  0.00    +0.000 A 
ATOM     12  C   UNL     1       5.430   6.036  15.994  0.00  0.00    +0.000 A 
ATOM     13  C   UNL     1       6.040   5.339  14.949  0.00  0.00    +0.000 A 
ATOM     14  C   UNL     1       5.999   3.949  14.923  0.00  0.00    +0.000 A 
ATOM     15  C   UNL     1       5.303   3.258  15.912  0.00  0.00    +0.000 A 
ATOM     16  C   UNL     1       4.662   3.955  16.952  0.00  0.00    +0.000 A 
BRANCH  16  17
ATOM     17  S   UNL     1       3.748   2.990  18.129  0.00  0.00    +0.000 S 
ATOM     18  O   UNL     1       4.568   2.892  19.323  0.00  0.00    +0.000 OA
ATOM     19  O   UNL     1       2.410   3.543  18.191  0.00  0.00    +0.000 OA
ATOM     20  F   UNL     1       3.621   1.495  17.632  0.00  0.00    +0.000 F 
ENDBRANCH  16  17
ENDBRANCH   8  11
ENDBRANCH   5   7
BRANCH   1  22
ATOM     21  C   UNL     1      -1.196  10.713  18.520  0.00  0.00    +0.000 C 
ATOM     22  C   UNL     1       0.318  10.886  18.659  0.00  0.00    +0.000 C 
BRANCH  22  23
ATOM     23  N   UNL     1       0.627  11.996  19.573  0.00  0.00    +0.000 N 
ATOM     24  C   UNL     1       1.682  12.788  19.262  0.00  0.00    +0.000 A 
ATOM     25  N   UNL     1       2.427  12.792  18.177  0.00  0.00    +0.000 NA
ATOM     26  N   UNL     1       3.410  13.743  18.321  0.00  0.00    +0.000 NA
ATOM     27  C   UNL     1       3.225  14.323  19.481  0.00  0.00    +0.000 A 
ATOM     28  N   UNL     1       2.147  13.768  20.102  0.00  0.00    +0.000 N 
ATOM     29  C   UNL     1       1.602  14.205  21.357  0.00  0.00    +0.000 C 
ATOM     30  H   UNL     1       0.526  11.728  20.548  0.00  0.00    +0.000 HD
ENDBRANCH  22  23
ENDBRANCH   1  22
TORSDOF 5
ENDMDL
MODEL 8
REMARK VINA RESULT:      -7.8      1.989      2.506
REMARK  Name = 
REMARK  7 active torsions:
REMARK  status: ('A' for Active; 'I' for Inactive)
REMARK    1  A    between atoms: C_1  and  C_2
REMARK    2  A    between atoms: C_2  and  N_3
REMARK    3  A    between atoms: C_2  and  C_10
REMARK    4  A    between atoms: N_8  and  C_9
REMARK    5  A    between atoms: C_14  and  N_15
REMARK    6  A    between atoms: C_16  and  C_18
REMARK    7  A    between atoms: C_23  and  S_24
REMARK                            x       y       z     vdW  Elec       q    Type
REMARK                         _______ _______ _______ _____ _____    ______ ____
ROOT
ATOM      1  C   UNL     1       1.243   9.369  19.308  0.00  0.00    +0.000 A 
ATOM      2  C   UNL     1       0.837   8.819  20.532  0.00  0.00    +0.000 A 
ATOM      3  C   UNL     1       1.287   7.562  20.925  0.00  0.00    +0.000 A 
ATOM      4  C   UNL     1       2.127   6.823  20.092  0.00  0.00    +0.000 A 
ATOM      5  C   UNL     1       2.544   7.341  18.865  0.00  0.00    +0.000 A 
ATOM      6  C   UNL     1       2.121   8.627  18.493  0.00  0.00    +0.000 A 
ENDROOT
BRANCH   5   7
ATOM      7  N   UNL     1       3.374   6.636  17.965  0.00  0.00    +0.000 N 
ATOM      8  C   UNL     1       4.385   5.746  18.305  0.00  0.00    +0.000 C 
ATOM      9  O   UNL     1       4.691   5.386  19.432  0.00  0.00    +0.000 OA
ATOM     10  H   UNL     1       3.181   6.785  16.984  0.00  0.00    +0.000 HD
BRANCH   8  11
ATOM     11  C   UNL     1       5.125   5.146  17.166  0.00  0.00    +0.000 A 
ATOM     12  C   UNL     1       4.559   4.044  16.501  0.00  0.00    +0.000 A 
ATOM     13  C   UNL     1       5.175   3.492  15.375  0.00  0.00    +0.000 A 
ATOM     14  C   UNL     1       6.365   4.031  14.901  0.00  0.00    +0.000 A 
ATOM     15  C   UNL     1       6.969   5.086  15.581  0.00  0.00    +0.000 A 
ATOM     16  C   UNL     1       6.368   5.628  16.733  0.00  0.00    +0.000 A 
BRANCH  16  17
ATOM     17  S   UNL     1       7.244   6.927  17.566  0.00  0.00    +0.000 S 
ATOM     18  O   UNL     1       7.716   6.381  18.825  0.00  0.00    +0.000 OA
ATOM     19  O   UNL     1       8.171   7.501  16.611  0.00  0.00    +0.000 OA
ATOM     20  F   UNL     1       6.243   8.072  18.001  0.00  0.00    +0.000 F 
ENDBRANCH  16  17
ENDBRANCH   8  11
ENDBRANCH   5   7
BRANCH   1  22
ATOM     21  C   UNL     1       1.798  11.647  18.371  0.00  0.00    +0.000 C 
ATOM     22  C   UNL     1       0.689  10.722  18.880  0.00  0.00    +0.000 C 
BRANCH  22  23
ATOM     23  N   UNL     1      -0.326  10.515  17.837  0.00  0.00    +0.000 N 
ATOM     24  C   UNL     1      -1.572  10.995  18.072  0.00  0.00    +0.000 A 
ATOM     25  N   UNL     1      -2.001  11.741  19.068  0.00  0.00    +0.000 NA
ATOM     26  N   UNL     1      -3.352  11.949  18.913  0.00  0.00    +0.000 NA
ATOM     27  C   UNL     1      -3.714  11.349  17.806  0.00  0.00    +0.000 A 
ATOM     28  N   UNL     1      -2.632  10.748  17.237  0.00  0.00    +0.000 N 
ATOM     29  C   UNL     1      -2.638  10.063  15.974  0.00  0.00    +0.000 C 
ATOM     30  H   UNL     1      -0.262   9.592  17.417  0.00  0.00    +0.000 HD
ENDBRANCH  22  23
ENDBRANCH   1  22
TORSDOF 5
ENDMDL
MODEL 9
REMARK VINA RESULT:      -7.7      4.269      8.734
REMARK  Name = 
REMARK  7 active torsions:
REMARK  status: ('A' for Active; 'I' for Inactive)
REMARK    1  A    between atoms: C_1  and  C_2
REMARK    2  A    between atoms: C_2  and  N_3
REMARK    3  A    between atoms: C_2  and  C_10
REMARK    4  A    between atoms: N_8  and  C_9
REMARK    5  A    between atoms: C_14  and  N_15
REMARK    6  A    between atoms: C_16  and  C_18
REMARK    7  A    between atoms: C_23  and  S_24
REMARK                            x       y       z     vdW  Elec       q    Type
REMARK                         _______ _______ _______ _____ _____    ______ ____
ROOT
ATOM      1  C   UNL     1       4.536   5.662  17.209  0.00  0.00    +0.000 A 
ATOM      2  C   UNL     1       3.552   4.680  17.387  0.00  0.00    +0.000 A 
ATOM      3  C   UNL     1       2.300   5.018  17.895  0.00  0.00    +0.000 A 
ATOM      4  C   UNL     1       2.022   6.337  18.257  0.00  0.00    +0.000 A 
ATOM      5  C   UNL     1       2.983   7.335  18.097  0.00  0.00    +0.000 A 
ATOM      6  C   UNL     1       4.228   6.996  17.545  0.00  0.00    +0.000 A 
ENDROOT
BRANCH   5   7
ATOM      7  N   UNL     1       2.772   8.683  18.465  0.00  0.00    +0.000 N 
ATOM      8  C   UNL     1       1.666   9.459  18.146  0.00  0.00    +0.000 C 
ATOM      9  O   UNL     1       0.669   9.093  17.541  0.00  0.00    +0.000 OA
ATOM     10  H   UNL     1       3.495   9.097  19.038  0.00  0.00    +0.000 HD
BRANCH   8  11
ATOM     11  C   UNL     1       1.694  10.858  18.642  0.00  0.00    +0.000 A 
ATOM     12  C   UNL     1       2.292  11.846  17.838  0.00  0.00    +0.000 A 
ATOM     13  C   UNL     1       2.275  13.189  18.222  0.00  0.00    +0.000 A 
ATOM     14  C   UNL     1       1.664  13.563  19.413  0.00  0.00    +0.000 A 
ATOM     15  C   UNL     1       1.118  12.591  20.248  0.00  0.00    +0.000 A 
ATOM     16  C   UNL     1       1.157  11.233  19.882  0.00  0.00    +0.000 A 
BRANCH  16  17
ATOM     17  S   UNL     1       0.492  10.064  21.039  0.00  0.00    +0.000 S 
ATOM     18  O   UNL     1       1.463   8.993  21.164  0.00  0.00    +0.000 OA
ATOM     19  O   UNL     1       0.056  10.811  22.201  0.00  0.00    +0.000 OA
ATOM     20  F   UNL     1      -0.781   9.352  20.428  0.00  0.00    +0.000 F 
ENDBRANCH  16  17
ENDBRANCH   8  11
ENDBRANCH   5   7
BRANCH   1  22
ATOM     21  C   UNL     1       6.652   4.385  17.727  0.00  0.00    +0.000 C 
ATOM     22  C   UNL     1       5.914   5.252  16.704  0.00  0.00    +0.000 C 
BRANCH  22  23
ATOM     23  N   UNL     1       5.761   4.528  15.433  0.00  0.00    +0.000 N 
ATOM     24  C   UNL     1       6.656   4.792  14.450  0.00  0.00    +0.000 A 
ATOM     25  N   UNL     1       7.744   5.532  14.494  0.00  0.00    +0.000 NA
ATOM     26  N   UNL     1       8.319   5.545  13.244  0.00  0.00    +0.000 NA
ATOM     27  C   UNL     1       7.584   4.787  12.470  0.00  0.00    +0.000 A 
ATOM     28  N   UNL     1       6.538   4.283  13.182  0.00  0.00    +0.000 N 
ATOM     29  C   UNL     1       5.570   3.349  12.678  0.00  0.00    +0.000 C 
ATOM     30  H   UNL     1       4.787   4.444  15.155  0.00  0.00    +0.000 HD
ENDBRANCH  22  23
ENDBRANCH   1  22
TORSDOF 5
ENDMDL
