MODEL 1
REMARK VINA RESULT:      -9.5      0.000      0.000
REMARK  Name = 
REMARK  2 active torsions:
REMARK  status: ('A' for Active; 'I' for Inactive)
REMARK    1  A    between atoms: C_2  and  C_3
REMARK    2  A    between atoms: C_23  and  C_24
REMARK                            x       y       z     vdW  Elec       q    Type
REMARK                         _______ _______ _______ _____ _____    ______ ____
ROOT
ATOM      1  O   UNL     1       1.890   9.564  17.111  0.00  0.00    +0.000 OA
ATOM      2  C   UNL     1       1.860   9.069  18.237  0.00  0.00    +0.000 C 
ATOM      3  N   UNL     1       2.711   8.017  18.589  0.00  0.00    +0.000 N 
ATOM      4  C   UNL     1       2.882   7.329  19.900  0.00  0.00    +0.000 C 
ATOM      5  C   UNL     1       2.418   5.893  19.711  0.00  0.00    +0.000 A 
ATOM      6  C   UNL     1       1.521   5.252  20.562  0.00  0.00    +0.000 A 
ATOM      7  C   UNL     1       0.790   4.170  20.073  0.00  0.00    +0.000 A 
ATOM      8  C   UNL     1       0.929   3.775  18.739  0.00  0.00    +0.000 A 
ATOM      9  C   UNL     1       1.932   4.328  17.942  0.00  0.00    +0.000 A 
ATOM     10  C   UNL     1       2.773   5.301  18.477  0.00  0.00    +0.000 A 
ATOM     11  C   UNL     1       3.948   5.974  17.772  0.00  0.00    +0.000 C 
ATOM     12  C   UNL     1       3.425   7.390  17.447  0.00  0.00    +0.000 C 
ENDROOT
BRANCH   2  13
ATOM     13  C   UNL     1       0.885   9.661  19.174  0.00  0.00    +0.000 A 
ATOM     14  C   UNL     1      -0.155  10.423  18.637  0.00  0.00    +0.000 A 
ATOM     15  N   UNL     1      -1.117  11.044  19.373  0.00  0.00    +0.000 NA
ATOM     16  C   UNL     1      -1.037  10.893  20.707  0.00  0.00    +0.000 A 
ATOM     17  N   UNL     1      -1.982  11.549  21.478  0.00  0.00    +0.000 N 
ATOM     18  C   UNL     1      -2.002  11.503  22.836  0.00  0.00    +0.000 A 
ATOM     19  O   UNL     1      -2.856  12.094  23.492  0.00  0.00    +0.000 OA
ATOM     20  N   UNL     1      -1.020  10.769  23.436  0.00  0.00    +0.000 N 
ATOM     21  C   UNL     1      -0.028  10.065  22.789  0.00  0.00    +0.000 A 
ATOM     22  O   UNL     1       0.852   9.465  23.383  0.00  0.00    +0.000 OA
ATOM     23  C   UNL     1      -0.068  10.121  21.325  0.00  0.00    +0.000 A 
ATOM     24  C   UNL     1       0.875   9.448  20.546  0.00  0.00    +0.000 A 
ATOM     25  H   UNL     1      -2.692  12.085  21.000  0.00  0.00    +0.000 HD
ATOM     26  H   UNL     1      -1.010  10.758  24.444  0.00  0.00    +0.000 HD
ENDBRANCH   2  13
BRANCH  11  27
ATOM     27  C   UNL     1       4.705   5.222  16.689  0.00  0.00    +0.000 A 
ATOM     28  C   UNL     1       5.206   5.899  15.566  0.00  0.00    +0.000 A 
ATOM     29  C   UNL     1       5.981   5.239  14.609  0.00  0.00    +0.000 A 
ATOM     30  C   UNL     1       6.279   3.889  14.762  0.00  0.00    +0.000 A 
ATOM     31  C   UNL     1       5.839   3.209  15.893  0.00  0.00    +0.000 A 
ATOM     32  C   UNL     1       5.085   3.878  16.860  0.00  0.00    +0.000 A 
ENDBRANCH  11  27
TORSDOF 2
ENDMDL
MODEL 2
REMARK VINA RESULT:      -9.1      2.776      6.126
REMARK  Name = 
REMARK  2 active torsions:
REMARK  status: ('A' for Active; 'I' for Inactive)
REMARK    1  A    between atoms: C_2  and  C_3
REMARK    2  A    between atoms: C_23  and  C_24
REMARK                            x       y       z     vdW  Elec       q    Type
REMARK                         _______ _______ _______ _____ _____    ______ ____
ROOT
ATOM      1  O   UNL     1      -0.279  10.450  23.397  0.00  0.00    +0.000 OA
ATOM      2  C   UNL     1      -0.835  11.074  22.494  0.00  0.00    +0.000 C 
ATOM      3  N   UNL     1      -0.730  10.668  21.160  0.00  0.00    +0.000 N 
ATOM      4  C   UNL     1      -1.371  11.234  19.940  0.00  0.00    +0.000 C 
ATOM      5  C   UNL     1      -0.256  11.793  19.071  0.00  0.00    +0.000 A 
ATOM      6  C   UNL     1      -0.271  13.073  18.522  0.00  0.00    +0.000 A 
ATOM      7  C   UNL     1       0.941  13.669  18.179  0.00  0.00    +0.000 A 
ATOM      8  C   UNL     1       2.146  13.004  18.428  0.00  0.00    +0.000 A 
ATOM      9  C   UNL     1       2.141  11.672  18.841  0.00  0.00    +0.000 A 
ATOM     10  C   UNL     1       0.926  11.018  19.033  0.00  0.00    +0.000 A 
ATOM     11  C   UNL     1       0.732   9.557  19.429  0.00  0.00    +0.000 C 
ATOM     12  C   UNL     1       0.300   9.627  20.910  0.00  0.00    +0.000 C 
ENDROOT
BRANCH   2  13
ATOM     13  C   UNL     1      -1.615  12.254  22.916  0.00  0.00    +0.000 A 
ATOM     14  C   UNL     1      -0.934  13.464  23.075  0.00  0.00    +0.000 A 
ATOM     15  N   UNL     1      -1.514  14.629  23.474  0.00  0.00    +0.000 NA
ATOM     16  C   UNL     1      -2.834  14.584  23.721  0.00  0.00    +0.000 A 
ATOM     17  N   UNL     1      -3.437  15.748  24.166  0.00  0.00    +0.000 N 
ATOM     18  C   UNL     1      -4.757  15.836  24.477  0.00  0.00    +0.000 A 
ATOM     19  O   UNL     1      -5.262  16.886  24.867  0.00  0.00    +0.000 OA
ATOM     20  N   UNL     1      -5.494  14.696  24.338  0.00  0.00    +0.000 N 
ATOM     21  C   UNL     1      -5.022  13.478  23.900  0.00  0.00    +0.000 A 
ATOM     22  O   UNL     1      -5.719  12.479  23.842  0.00  0.00    +0.000 OA
ATOM     23  C   UNL     1      -3.599  13.443  23.548  0.00  0.00    +0.000 A 
ATOM     24  C   UNL     1      -2.994  12.273  23.084  0.00  0.00    +0.000 A 
ATOM     25  H   UNL     1      -2.860  16.572  24.260  0.00  0.00    +0.000 HD
ATOM     26  H   UNL     1      -6.467  14.745  24.598  0.00  0.00    +0.000 HD
ENDBRANCH   2  13
BRANCH  11  27
ATOM     27  C   UNL     1       1.778   8.527  19.035  0.00  0.00    +0.000 A 
ATOM     28  C   UNL     1       2.051   7.430  19.868  0.00  0.00    +0.000 A 
ATOM     29  C   UNL     1       2.943   6.428  19.477  0.00  0.00    +0.000 A 
ATOM     30  C   UNL     1       3.573   6.499  18.239  0.00  0.00    +0.000 A 
ATOM     31  C   UNL     1       3.279   7.547  17.374  0.00  0.00    +0.000 A 
ATOM     32  C   UNL     1       2.370   8.535  17.758  0.00  0.00    +0.000 A 
ENDBRANCH  11  27
TORSDOF 2
ENDMDL
MODEL 3
REMARK VINA RESULT:      -8.8      1.082      1.673
REMARK  Name = 
REMARK  2 active torsions:
REMARK  status: ('A' for Active; 'I' for Inactive)
REMARK    1  A    between atoms: C_2  and  C_3
REMARK    2  A    between atoms: C_23  and  C_24
REMARK                            x       y       z     vdW  Elec       q    Type
REMARK                         _______ _______ _______ _____ _____    ______ ____
ROOT
ATOM      1  O   UNL     1       1.981   9.502  17.494  0.00  0.00    +0.000 OA
ATOM      2  C   UNL     1       2.007   8.918  18.578  0.00  0.00    +0.000 C 
ATOM      3  N   UNL     1       2.847   7.821  18.790  0.00  0.00    +0.000 N 
ATOM      4  C   UNL     1       3.078   7.026  20.029  0.00  0.00    +0.000 C 
ATOM      5  C   UNL     1       2.562   5.621  19.758  0.00  0.00    +0.000 A 
ATOM      6  C   UNL     1       1.701   4.935  20.611  0.00  0.00    +0.000 A 
ATOM      7  C   UNL     1       0.910   3.914  20.086  0.00  0.00    +0.000 A 
ATOM      8  C   UNL     1       0.955   3.625  18.719  0.00  0.00    +0.000 A 
ATOM      9  C   UNL     1       1.922   4.216  17.906  0.00  0.00    +0.000 A 
ATOM     10  C   UNL     1       2.822   5.122  18.461  0.00  0.00    +0.000 A 
ATOM     11  C   UNL     1       3.971   5.821  17.737  0.00  0.00    +0.000 C 
ATOM     12  C   UNL     1       3.470   7.271  17.559  0.00  0.00    +0.000 C 
ENDROOT
BRANCH   2  13
ATOM     13  C   UNL     1       1.109   9.457  19.618  0.00  0.00    +0.000 A 
ATOM     14  C   UNL     1       1.073   8.802  20.852  0.00  0.00    +0.000 A 
ATOM     15  N   UNL     1       0.286   9.172  21.898  0.00  0.00    +0.000 NA
ATOM     16  C   UNL     1      -0.499  10.246  21.704  0.00  0.00    +0.000 A 
ATOM     17  N   UNL     1      -1.338  10.615  22.742  0.00  0.00    +0.000 N 
ATOM     18  C   UNL     1      -2.200  11.664  22.670  0.00  0.00    +0.000 A 
ATOM     19  O   UNL     1      -2.930  11.968  23.611  0.00  0.00    +0.000 OA
ATOM     20  N   UNL     1      -2.217  12.360  21.497  0.00  0.00    +0.000 N 
ATOM     21  C   UNL     1      -1.433  12.104  20.394  0.00  0.00    +0.000 A 
ATOM     22  O   UNL     1      -1.527  12.733  19.353  0.00  0.00    +0.000 OA
ATOM     23  C   UNL     1      -0.498  10.983  20.532  0.00  0.00    +0.000 A 
ATOM     24  C   UNL     1       0.359  10.619  19.492  0.00  0.00    +0.000 A 
ATOM     25  H   UNL     1      -1.300  10.075  23.595  0.00  0.00    +0.000 HD
ATOM     26  H   UNL     1      -2.878  13.119  21.425  0.00  0.00    +0.000 HD
ENDBRANCH   2  13
BRANCH  11  27
ATOM     27  C   UNL     1       4.637   5.141  16.553  0.00  0.00    +0.000 A 
ATOM     28  C   UNL     1       5.162   5.900  15.494  0.00  0.00    +0.000 A 
ATOM     29  C   UNL     1       5.857   5.295  14.445  0.00  0.00    +0.000 A 
ATOM     30  C   UNL     1       6.049   3.917  14.437  0.00  0.00    +0.000 A 
ATOM     31  C   UNL     1       5.586   3.150  15.500  0.00  0.00    +0.000 A 
ATOM     32  C   UNL     1       4.912   3.761  16.560  0.00  0.00    +0.000 A 
ENDBRANCH  11  27
TORSDOF 2
ENDMDL
MODEL 4
REMARK VINA RESULT:      -8.6      3.240      6.656
REMARK  Name = 
REMARK  2 active torsions:
REMARK  status: ('A' for Active; 'I' for Inactive)
REMARK    1  A    between atoms: C_2  and  C_3
REMARK    2  A    between atoms: C_23  and  C_24
REMARK                            x       y       z     vdW  Elec       q    Type
REMARK                         _______ _______ _______ _____ _____    ______ ____
ROOT
ATOM      1  O   UNL     1      -0.780  10.575  23.593  0.00  0.00    +0.000 OA
ATOM      2  C   UNL     1      -1.258  11.337  22.753  0.00  0.00    +0.000 C 
ATOM      3  N   UNL     1      -1.107  11.094  21.384  0.00  0.00    +0.000 N 
ATOM      4  C   UNL     1      -1.657  11.844  20.219  0.00  0.00    +0.000 C 
ATOM      5  C   UNL     1      -0.473  12.442  19.476  0.00  0.00    +0.000 A 
ATOM      6  C   UNL     1      -0.394  13.779  19.095  0.00  0.00    +0.000 A 
ATOM      7  C   UNL     1       0.863  14.342  18.882  0.00  0.00    +0.000 A 
ATOM      8  C   UNL     1       2.017  13.583  19.096  0.00  0.00    +0.000 A 
ATOM      9  C   UNL     1       1.923  12.212  19.336  0.00  0.00    +0.000 A 
ATOM     10  C   UNL     1       0.668  11.611  19.391  0.00  0.00    +0.000 A 
ATOM     11  C   UNL     1       0.379  10.125  19.590  0.00  0.00    +0.000 C 
ATOM     12  C   UNL     1      -0.122  10.036  21.048  0.00  0.00    +0.000 C 
ENDROOT
BRANCH   2  13
ATOM     13  C   UNL     1      -1.996  12.499  23.287  0.00  0.00    +0.000 A 
ATOM     14  C   UNL     1      -3.321  12.304  23.685  0.00  0.00    +0.000 A 
ATOM     15  N   UNL     1      -4.129  13.280  24.179  0.00  0.00    +0.000 NA
ATOM     16  C   UNL     1      -3.588  14.506  24.285  0.00  0.00    +0.000 A 
ATOM     17  N   UNL     1      -4.405  15.523  24.749  0.00  0.00    +0.000 N 
ATOM     18  C   UNL     1      -3.995  16.812  24.880  0.00  0.00    +0.000 A 
ATOM     19  O   UNL     1      -4.744  17.692  25.297  0.00  0.00    +0.000 OA
ATOM     20  N   UNL     1      -2.706  17.082  24.519  0.00  0.00    +0.000 N 
ATOM     21  C   UNL     1      -1.790  16.165  24.052  0.00  0.00    +0.000 A 
ATOM     22  O   UNL     1      -0.664  16.475  23.700  0.00  0.00    +0.000 OA
ATOM     23  C   UNL     1      -2.272  14.784  23.958  0.00  0.00    +0.000 A 
ATOM     24  C   UNL     1      -1.444  13.755  23.505  0.00  0.00    +0.000 A 
ATOM     25  H   UNL     1      -5.354  15.288  25.004  0.00  0.00    +0.000 HD
ATOM     26  H   UNL     1      -2.404  18.042  24.583  0.00  0.00    +0.000 HD
ENDBRANCH   2  13
BRANCH  11  27
ATOM     27  C   UNL     1       1.389   9.093  19.114  0.00  0.00    +0.000 A 
ATOM     28  C   UNL     1       1.703   7.979  19.909  0.00  0.00    +0.000 A 
ATOM     29  C   UNL     1       2.559   6.977  19.446  0.00  0.00    +0.000 A 
ATOM     30  C   UNL     1       3.111   7.065  18.173  0.00  0.00    +0.000 A 
ATOM     31  C   UNL     1       2.774   8.131  17.346  0.00  0.00    +0.000 A 
ATOM     32  C   UNL     1       1.900   9.119  17.803  0.00  0.00    +0.000 A 
ENDBRANCH  11  27
TORSDOF 2
ENDMDL
MODEL 5
REMARK VINA RESULT:      -8.5      3.136      6.587
REMARK  Name = 
REMARK  2 active torsions:
REMARK  status: ('A' for Active; 'I' for Inactive)
REMARK    1  A    between atoms: C_2  and  C_3
REMARK    2  A    between atoms: C_23  and  C_24
REMARK                            x       y       z     vdW  Elec       q    Type
REMARK                         _______ _______ _______ _____ _____    ______ ____
ROOT
ATOM      1  O   UNL     1      -0.765  10.751  23.455  0.00  0.00    +0.000 OA
ATOM      2  C   UNL     1      -1.223  11.485  22.578  0.00  0.00    +0.000 C 
ATOM      3  N   UNL     1      -1.100  11.159  21.224  0.00  0.00    +0.000 N 
ATOM      4  C   UNL     1      -1.634  11.864  20.024  0.00  0.00    +0.000 C 
ATOM      5  C   UNL     1      -0.436  12.371  19.237  0.00  0.00    +0.000 A 
ATOM      6  C   UNL     1      -0.309  13.680  18.779  0.00  0.00    +0.000 A 
ATOM      7  C   UNL     1       0.967  14.179  18.522  0.00  0.00    +0.000 A 
ATOM      8  C   UNL     1       2.092  13.387  18.766  0.00  0.00    +0.000 A 
ATOM      9  C   UNL     1       1.946  12.036  19.084  0.00  0.00    +0.000 A 
ATOM     10  C   UNL     1       0.669  11.491  19.186  0.00  0.00    +0.000 A 
ATOM     11  C   UNL     1       0.324  10.031  19.472  0.00  0.00    +0.000 C 
ATOM     12  C   UNL     1      -0.161  10.044  20.938  0.00  0.00    +0.000 C 
ENDROOT
BRANCH   2  13
ATOM     13  C   UNL     1      -1.906  12.703  23.054  0.00  0.00    +0.000 A 
ATOM     14  C   UNL     1      -1.114  13.792  23.427  0.00  0.00    +0.000 A 
ATOM     15  N   UNL     1      -1.600  14.973  23.899  0.00  0.00    +0.000 NA
ATOM     16  C   UNL     1      -2.937  15.071  23.999  0.00  0.00    +0.000 A 
ATOM     17  N   UNL     1      -3.450  16.249  24.514  0.00  0.00    +0.000 N 
ATOM     18  C   UNL     1      -4.779  16.471  24.694  0.00  0.00    +0.000 A 
ATOM     19  O   UNL     1      -5.203  17.530  25.151  0.00  0.00    +0.000 OA
ATOM     20  N   UNL     1      -5.620  15.455  24.344  0.00  0.00    +0.000 N 
ATOM     21  C   UNL     1      -5.242  14.240  23.815  0.00  0.00    +0.000 A 
ATOM     22  O   UNL     1      -6.038  13.351  23.565  0.00  0.00    +0.000 OA
ATOM     23  C   UNL     1      -3.801  14.061  23.612  0.00  0.00    +0.000 A 
ATOM     24  C   UNL     1      -3.284  12.880  23.078  0.00  0.00    +0.000 A 
ATOM     25  H   UNL     1      -2.798  16.979  24.766  0.00  0.00    +0.000 HD
ATOM     26  H   UNL     1      -6.604  15.600  24.504  0.00  0.00    +0.000 HD
ENDBRANCH   2  13
BRANCH  11  27
ATOM     27  C   UNL     1       1.285   8.934  19.044  0.00  0.00    +0.000 A 
ATOM     28  C   UNL     1       1.954   9.010  17.812  0.00  0.00    +0.000 A 
ATOM     29  C   UNL     1       2.907   8.057  17.446  0.00  0.00    +0.000 A 
ATOM     30  C   UNL     1       3.219   7.013  18.311  0.00  0.00    +0.000 A 
ATOM     31  C   UNL     1       2.609   6.946  19.559  0.00  0.00    +0.000 A 
ATOM     32  C   UNL     1       1.674   7.914  19.931  0.00  0.00    +0.000 A 
ENDBRANCH  11  27
TORSDOF 2
ENDMDL
MODEL 6
REMARK VINA RESULT:      -8.3      2.634      9.330
REMARK  Name = 
REMARK  2 active torsions:
REMARK  status: ('A' for Active; 'I' for Inactive)
REMARK    1  A    between atoms: C_2  and  C_3
REMARK    2  A    between atoms: C_23  and  C_24
REMARK                            x       y       z     vdW  Elec       q    Type
REMARK                         _______ _______ _______ _____ _____    ______ ____
ROOT
ATOM      1  O   UNL     1      -0.681   8.054  21.786  0.00  0.00    +0.000 OA
ATOM      2  C   UNL     1       0.257   8.725  21.354  0.00  0.00    +0.000 C 
ATOM      3  N   UNL     1       0.433  10.057  21.740  0.00  0.00    +0.000 N 
ATOM      4  C   UNL     1       1.524  11.011  21.393  0.00  0.00    +0.000 C 
ATOM      5  C   UNL     1       0.896  12.122  20.566  0.00  0.00    +0.000 A 
ATOM      6  C   UNL     1       1.408  12.564  19.348  0.00  0.00    +0.000 A 
ATOM      7  C   UNL     1       0.549  13.196  18.451  0.00  0.00    +0.000 A 
ATOM      8  C   UNL     1      -0.807  13.336  18.757  0.00  0.00    +0.000 A 
ATOM      9  C   UNL     1      -1.276  13.022  20.033  0.00  0.00    +0.000 A 
ATOM     10  C   UNL     1      -0.388  12.537  20.989  0.00  0.00    +0.000 A 
ATOM     11  C   UNL     1      -0.712  12.194  22.441  0.00  0.00    +0.000 C 
ATOM     12  C   UNL     1      -0.720  10.650  22.464  0.00  0.00    +0.000 C 
ENDROOT
BRANCH   2  13
ATOM     13  C   UNL     1       1.168   8.029  20.424  0.00  0.00    +0.000 A 
ATOM     14  C   UNL     1       1.551   8.702  19.261  0.00  0.00    +0.000 A 
ATOM     15  N   UNL     1       2.370   8.184  18.305  0.00  0.00    +0.000 NA
ATOM     16  C   UNL     1       2.829   6.939  18.523  0.00  0.00    +0.000 A 
ATOM     17  N   UNL     1       3.632   6.378  17.544  0.00  0.00    +0.000 N 
ATOM     18  C   UNL     1       4.142   5.121  17.625  0.00  0.00    +0.000 A 
ATOM     19  O   UNL     1       4.854   4.653  16.740  0.00  0.00    +0.000 OA
ATOM     20  N   UNL     1       3.820   4.402  18.739  0.00  0.00    +0.000 N 
ATOM     21  C   UNL     1       3.041   4.842  19.787  0.00  0.00    +0.000 A 
ATOM     22  O   UNL     1       2.747   4.135  20.736  0.00  0.00    +0.000 OA
ATOM     23  C   UNL     1       2.540   6.215  19.667  0.00  0.00    +0.000 A 
ATOM     24  C   UNL     1       1.743   6.787  20.660  0.00  0.00    +0.000 A 
ATOM     25  H   UNL     1       3.848   6.939  16.732  0.00  0.00    +0.000 HD
ATOM     26  H   UNL     1       4.168   3.458  18.791  0.00  0.00    +0.000 HD
ENDBRANCH   2  13
BRANCH  11  27
ATOM     27  C   UNL     1      -1.836  12.928  23.153  0.00  0.00    +0.000 A 
ATOM     28  C   UNL     1      -3.062  12.290  23.402  0.00  0.00    +0.000 A 
ATOM     29  C   UNL     1      -4.070  12.920  24.136  0.00  0.00    +0.000 A 
ATOM     30  C   UNL     1      -3.869  14.199  24.643  0.00  0.00    +0.000 A 
ATOM     31  C   UNL     1      -2.644  14.831  24.456  0.00  0.00    +0.000 A 
ATOM     32  C   UNL     1      -1.630  14.189  23.743  0.00  0.00    +0.000 A 
ENDBRANCH  11  27
TORSDOF 2
ENDMDL
MODEL 7
REMARK VINA RESULT:      -8.3      3.315      5.468
REMARK  Name = 
REMARK  2 active torsions:
REMARK  status: ('A' for Active; 'I' for Inactive)
REMARK    1  A    between atoms: C_2  and  C_3
REMARK    2  A    between atoms: C_23  and  C_24
REMARK                            x       y       z     vdW  Elec       q    Type
REMARK                         _______ _______ _______ _____ _____    ______ ____
ROOT
ATOM      1  O   UNL     1      -2.460   9.318  16.764  0.00  0.00    +0.000 OA
ATOM      2  C   UNL     1      -2.227  10.236  17.551  0.00  0.00    +0.000 C 
ATOM      3  N   UNL     1      -0.950  10.422  18.091  0.00  0.00    +0.000 N 
ATOM      4  C   UNL     1      -0.447  11.496  18.994  0.00  0.00    +0.000 C 
ATOM      5  C   UNL     1      -0.085  10.832  20.313  0.00  0.00    +0.000 A 
ATOM      6  C   UNL     1      -0.514  11.296  21.555  0.00  0.00    +0.000 A 
ATOM      7  C   UNL     1      -0.565  10.401  22.623  0.00  0.00    +0.000 A 
ATOM      8  C   UNL     1      -0.236   9.057  22.428  0.00  0.00    +0.000 A 
ATOM      9  C   UNL     1       0.327   8.638  21.223  0.00  0.00    +0.000 A 
ATOM     10  C   UNL     1       0.530   9.564  20.203  0.00  0.00    +0.000 A 
ATOM     11  C   UNL     1       1.178   9.296  18.847  0.00  0.00    +0.000 C 
ATOM     12  C   UNL     1      -0.011   9.295  17.861  0.00  0.00    +0.000 C 
ENDROOT
BRANCH   2  13
ATOM     13  C   UNL     1      -3.370  11.114  17.869  0.00  0.00    +0.000 A 
ATOM     14  C   UNL     1      -4.252  11.437  16.835  0.00  0.00    +0.000 A 
ATOM     15  N   UNL     1      -5.339  12.245  16.972  0.00  0.00    +0.000 NA
ATOM     16  C   UNL     1      -5.555  12.752  18.198  0.00  0.00    +0.000 A 
ATOM     17  N   UNL     1      -6.631  13.608  18.351  0.00  0.00    +0.000 N 
ATOM     18  C   UNL     1      -6.948  14.210  19.528  0.00  0.00    +0.000 A 
ATOM     19  O   UNL     1      -7.913  14.964  19.631  0.00  0.00    +0.000 OA
ATOM     20  N   UNL     1      -6.137  13.937  20.591  0.00  0.00    +0.000 N 
ATOM     21  C   UNL     1      -5.042  13.100  20.577  0.00  0.00    +0.000 A 
ATOM     22  O   UNL     1      -4.325  12.932  21.548  0.00  0.00    +0.000 OA
ATOM     23  C   UNL     1      -4.760  12.452  19.292  0.00  0.00    +0.000 A 
ATOM     24  C   UNL     1      -3.684  11.576  19.141  0.00  0.00    +0.000 A 
ATOM     25  H   UNL     1      -7.209  13.790  17.542  0.00  0.00    +0.000 HD
ATOM     26  H   UNL     1      -6.347  14.405  21.458  0.00  0.00    +0.000 HD
ENDBRANCH   2  13
BRANCH  11  27
ATOM     27  C   UNL     1       2.219   8.197  18.716  0.00  0.00    +0.000 A 
ATOM     28  C   UNL     1       2.219   7.102  19.595  0.00  0.00    +0.000 A 
ATOM     29  C   UNL     1       3.112   6.041  19.430  0.00  0.00    +0.000 A 
ATOM     30  C   UNL     1       4.019   6.049  18.375  0.00  0.00    +0.000 A 
ATOM     31  C   UNL     1       4.003   7.095  17.460  0.00  0.00    +0.000 A 
ATOM     32  C   UNL     1       3.093   8.143  17.614  0.00  0.00    +0.000 A 
ENDBRANCH  11  27
TORSDOF 2
ENDMDL
MODEL 8
REMARK VINA RESULT:      -8.2      3.364      5.603
REMARK  Name = 
REMARK  2 active torsions:
REMARK  status: ('A' for Active; 'I' for Inactive)
REMARK    1  A    between atoms: C_2  and  C_3
REMARK    2  A    between atoms: C_23  and  C_24
REMARK                            x       y       z     vdW  Elec       q    Type
REMARK                         _______ _______ _______ _____ _____    ______ ____
ROOT
ATOM      1  O   UNL     1      -2.857   9.733  17.092  0.00  0.00    +0.000 OA
ATOM      2  C   UNL     1      -2.554  10.599  17.913  0.00  0.00    +0.000 C 
ATOM      3  N   UNL     1      -1.250  10.706  18.406  0.00  0.00    +0.000 N 
ATOM      4  C   UNL     1      -0.666  11.710  19.339  0.00  0.00    +0.000 C 
ATOM      5  C   UNL     1      -0.279  10.966  20.607  0.00  0.00    +0.000 A 
ATOM      6  C   UNL     1      -0.637  11.383  21.888  0.00  0.00    +0.000 A 
ATOM      7  C   UNL     1      -0.683  10.437  22.911  0.00  0.00    +0.000 A 
ATOM      8  C   UNL     1      -0.419   9.092  22.636  0.00  0.00    +0.000 A 
ATOM      9  C   UNL     1       0.077   8.713  21.388  0.00  0.00    +0.000 A 
ATOM     10  C   UNL     1       0.277   9.682  20.408  0.00  0.00    +0.000 A 
ATOM     11  C   UNL     1       0.857   9.458  19.014  0.00  0.00    +0.000 C 
ATOM     12  C   UNL     1      -0.369   9.555  18.081  0.00  0.00    +0.000 C 
ENDROOT
BRANCH   2  13
ATOM     13  C   UNL     1      -3.646  11.504  18.322  0.00  0.00    +0.000 A 
ATOM     14  C   UNL     1      -4.665  11.756  17.401  0.00  0.00    +0.000 A 
ATOM     15  N   UNL     1      -5.725  12.579  17.628  0.00  0.00    +0.000 NA
ATOM     16  C   UNL     1      -5.770  13.175  18.833  0.00  0.00    +0.000 A 
ATOM     17  N   UNL     1      -6.818  14.047  19.071  0.00  0.00    +0.000 N 
ATOM     18  C   UNL     1      -6.970  14.734  20.234  0.00  0.00    +0.000 A 
ATOM     19  O   UNL     1      -7.914  15.499  20.416  0.00  0.00    +0.000 OA
ATOM     20  N   UNL     1      -6.017  14.534  21.190  0.00  0.00    +0.000 N 
ATOM     21  C   UNL     1      -4.932  13.692  21.085  0.00  0.00    +0.000 A 
ATOM     22  O   UNL     1      -4.085  13.591  21.956  0.00  0.00    +0.000 OA
ATOM     23  C   UNL     1      -4.829  12.951  19.824  0.00  0.00    +0.000 A 
ATOM     24  C   UNL     1      -3.781  12.059  19.588  0.00  0.00    +0.000 A 
ATOM     25  H   UNL     1      -7.504  14.173  18.340  0.00  0.00    +0.000 HD
ATOM     26  H   UNL     1      -6.106  15.065  22.043  0.00  0.00    +0.000 HD
ENDBRANCH   2  13
BRANCH  11  27
ATOM     27  C   UNL     1       1.845   8.326  18.784  0.00  0.00    +0.000 A 
ATOM     28  C   UNL     1       2.713   8.347  17.681  0.00  0.00    +0.000 A 
ATOM     29  C   UNL     1       3.688   7.362  17.507  0.00  0.00    +0.000 A 
ATOM     30  C   UNL     1       3.820   6.338  18.440  0.00  0.00    +0.000 A 
ATOM     31  C   UNL     1       3.008   6.325  19.569  0.00  0.00    +0.000 A 
ATOM     32  C   UNL     1       2.051   7.325  19.752  0.00  0.00    +0.000 A 
ENDBRANCH  11  27
TORSDOF 2
ENDMDL
MODEL 9
REMARK VINA RESULT:      -8.2      2.906      8.656
REMARK  Name = 
REMARK  2 active torsions:
REMARK  status: ('A' for Active; 'I' for Inactive)
REMARK    1  A    between atoms: C_2  and  C_3
REMARK    2  A    between atoms: C_23  and  C_24
REMARK                            x       y       z     vdW  Elec       q    Type
REMARK                         _______ _______ _______ _____ _____    ______ ____
ROOT
ATOM      1  O   UNL     1       1.339   8.531  22.124  0.00  0.00    +0.000 OA
ATOM      2  C   UNL     1       1.380   8.614  20.897  0.00  0.00    +0.000 C 
ATOM      3  N   UNL     1       1.113   9.820  20.242  0.00  0.00    +0.000 N 
ATOM      4  C   UNL     1       1.175  10.148  18.789  0.00  0.00    +0.000 C 
ATOM      5  C   UNL     1      -0.245  10.463  18.345  0.00  0.00    +0.000 A 
ATOM      6  C   UNL     1      -0.849   9.896  17.226  0.00  0.00    +0.000 A 
ATOM      7  C   UNL     1      -2.241   9.843  17.170  0.00  0.00    +0.000 A 
ATOM      8  C   UNL     1      -3.004  10.311  18.244  0.00  0.00    +0.000 A 
ATOM      9  C   UNL     1      -2.396  11.005  19.290  0.00  0.00    +0.000 A 
ATOM     10  C   UNL     1      -1.017  11.201  19.271  0.00  0.00    +0.000 A 
ATOM     11  C   UNL     1      -0.196  11.977  20.298  0.00  0.00    +0.000 C 
ATOM     12  C   UNL     1       0.525  10.876  21.105  0.00  0.00    +0.000 C 
ENDROOT
BRANCH   2  13
ATOM     13  C   UNL     1       1.733   7.372  20.182  0.00  0.00    +0.000 A 
ATOM     14  C   UNL     1       2.315   7.490  18.916  0.00  0.00    +0.000 A 
ATOM     15  N   UNL     1       2.678   6.438  18.133  0.00  0.00    +0.000 NA
ATOM     16  C   UNL     1       2.454   5.212  18.639  0.00  0.00    +0.000 A 
ATOM     17  N   UNL     1       2.779   4.128  17.842  0.00  0.00    +0.000 N 
ATOM     18  C   UNL     1       2.581   2.837  18.218  0.00  0.00    +0.000 A 
ATOM     19  O   UNL     1       2.883   1.896  17.489  0.00  0.00    +0.000 OA
ATOM     20  N   UNL     1       2.024   2.638  19.448  0.00  0.00    +0.000 N 
ATOM     21  C   UNL     1       1.662   3.625  20.339  0.00  0.00    +0.000 A 
ATOM     22  O   UNL     1       1.123   3.387  21.407  0.00  0.00    +0.000 OA
ATOM     23  C   UNL     1       1.924   4.999  19.900  0.00  0.00    +0.000 A 
ATOM     24  C   UNL     1       1.610   6.093  20.708  0.00  0.00    +0.000 A 
ATOM     25  H   UNL     1       3.187   4.312  16.936  0.00  0.00    +0.000 HD
ATOM     26  H   UNL     1       1.844   1.684  19.720  0.00  0.00    +0.000 HD
ENDBRANCH   2  13
BRANCH  11  27
ATOM     27  C   UNL     1      -0.837  13.124  21.062  0.00  0.00    +0.000 A 
ATOM     28  C   UNL     1      -1.176  14.319  20.407  0.00  0.00    +0.000 A 
ATOM     29  C   UNL     1      -1.848  15.345  21.075  0.00  0.00    +0.000 A 
ATOM     30  C   UNL     1      -2.203  15.193  22.412  0.00  0.00    +0.000 A 
ATOM     31  C   UNL     1      -1.926  13.998  23.067  0.00  0.00    +0.000 A 
ATOM     32  C   UNL     1      -1.275  12.965  22.390  0.00  0.00    +0.000 A 
ENDBRANCH  11  27
TORSDOF 2
ENDMDL
