MODEL 1
REMARK VINA RESULT:      -8.7      0.000      0.000
REMARK  Name = 
REMARK  4 active torsions:
REMARK  status: ('A' for Active; 'I' for Inactive)
REMARK    1  A    between atoms: C_1  and  C_2
REMARK    2  A    between atoms: C_7  and  C_8
REMARK    3  A    between atoms: C_12  and  S_13
REMARK    4  A    between atoms: S_13  and  N_16
REMARK                            x       y       z     vdW  Elec       q    Type
REMARK                         _______ _______ _______ _____ _____    ______ ____
ROOT
ATOM      1  C   UNL     1       2.942   6.025  18.726  0.00  0.00    +0.000 A 
ATOM      2  C   UNL     1       2.860   4.737  19.276  0.00  0.00    +0.000 A 
ATOM      3  C   UNL     1       3.547   3.663  18.702  0.00  0.00    +0.000 A 
ATOM      4  C   UNL     1       4.356   3.872  17.586  0.00  0.00    +0.000 A 
ATOM      5  C   UNL     1       4.489   5.160  17.069  0.00  0.00    +0.000 A 
ATOM      6  C   UNL     1       3.740   6.218  17.590  0.00  0.00    +0.000 A 
ENDROOT
BRANCH   1  13
ATOM      7  C   UNL     1      -0.858  10.690  22.975  0.00  0.00    +0.000 C 
ATOM      8  C   UNL     1      -0.114  10.076  21.831  0.00  0.00    +0.000 A 
ATOM      9  C   UNL     1       0.046  10.832  20.588  0.00  0.00    +0.000 A 
ATOM     10  C   UNL     1       0.740  10.342  19.541  0.00  0.00    +0.000 A 
ATOM     11  C   UNL     1       1.333   9.051  19.627  0.00  0.00    +0.000 A 
ATOM     12  N   UNL     1       2.038   8.349  18.763  0.00  0.00    +0.000 NA
ATOM     13  C   UNL     1       2.288   7.144  19.386  0.00  0.00    +0.000 A 
ATOM     14  C   UNL     1       1.757   7.137  20.659  0.00  0.00    +0.000 A 
ATOM     15  N   UNL     1       1.142   8.352  20.811  0.00  0.00    +0.000 N 
ATOM     16  C   UNL     1       0.434   8.848  21.901  0.00  0.00    +0.000 A 
ENDBRANCH   1  13
BRANCH   5  17
ATOM     17  S   UNL     1       5.654   5.490  15.763  0.00  0.00    +0.000 S 
ATOM     18  O   UNL     1       5.744   4.286  14.958  0.00  0.00    +0.000 OA
ATOM     19  O   UNL     1       5.303   6.766  15.169  0.00  0.00    +0.000 OA
BRANCH  17  20
ATOM     20  N   UNL     1       7.128   5.701  16.567  0.00  0.00    +0.000 NA
ATOM     21  C   UNL     1       7.613   4.681  17.510  0.00  0.00    +0.000 C 
ATOM     22  C   UNL     1       7.553   5.360  18.864  0.00  0.00    +0.000 C 
ATOM     23  C   UNL     1       7.856   6.818  18.566  0.00  0.00    +0.000 C 
ATOM     24  C   UNL     1       7.472   7.037  17.103  0.00  0.00    +0.000 C 
ENDBRANCH  17  20
ENDBRANCH   5  17
TORSDOF 3
ENDMDL
MODEL 2
REMARK VINA RESULT:      -8.5      0.751      1.421
REMARK  Name = 
REMARK  4 active torsions:
REMARK  status: ('A' for Active; 'I' for Inactive)
REMARK    1  A    between atoms: C_1  and  C_2
REMARK    2  A    between atoms: C_7  and  C_8
REMARK    3  A    between atoms: C_12  and  S_13
REMARK    4  A    between atoms: S_13  and  N_16
REMARK                            x       y       z     vdW  Elec       q    Type
REMARK                         _______ _______ _______ _____ _____    ______ ____
ROOT
ATOM      1  C   UNL     1       3.026   5.753  18.529  0.00  0.00    +0.000 A 
ATOM      2  C   UNL     1       2.910   4.490  19.128  0.00  0.00    +0.000 A 
ATOM      3  C   UNL     1       3.625   3.392  18.638  0.00  0.00    +0.000 A 
ATOM      4  C   UNL     1       4.494   3.553  17.560  0.00  0.00    +0.000 A 
ATOM      5  C   UNL     1       4.659   4.818  16.997  0.00  0.00    +0.000 A 
ATOM      6  C   UNL     1       3.886   5.898  17.431  0.00  0.00    +0.000 A 
ENDROOT
BRANCH   1  13
ATOM      7  C   UNL     1       0.109  12.273  20.330  0.00  0.00    +0.000 C 
ATOM      8  C   UNL     1       0.613  10.865  20.384  0.00  0.00    +0.000 A 
ATOM      9  C   UNL     1       0.557  10.129  21.647  0.00  0.00    +0.000 A 
ATOM     10  C   UNL     1       0.962   8.845  21.742  0.00  0.00    +0.000 A 
ATOM     11  C   UNL     1       1.470   8.177  20.593  0.00  0.00    +0.000 A 
ATOM     12  N   UNL     1       1.933   6.956  20.420  0.00  0.00    +0.000 NA
ATOM     13  C   UNL     1       2.339   6.899  19.104  0.00  0.00    +0.000 A 
ATOM     14  C   UNL     1       2.081   8.095  18.465  0.00  0.00    +0.000 A 
ATOM     15  N   UNL     1       1.532   8.913  19.417  0.00  0.00    +0.000 N 
ATOM     16  C   UNL     1       1.112  10.234  19.304  0.00  0.00    +0.000 A 
ENDBRANCH   1  13
BRANCH   5  17
ATOM     17  S   UNL     1       5.896   5.093  15.745  0.00  0.00    +0.000 S 
ATOM     18  O   UNL     1       6.129   3.818  15.091  0.00  0.00    +0.000 OA
ATOM     19  O   UNL     1       5.504   6.265  14.987  0.00  0.00    +0.000 OA
BRANCH  17  20
ATOM     20  N   UNL     1       7.286   5.503  16.618  0.00  0.00    +0.000 NA
ATOM     21  C   UNL     1       7.771   4.627  17.698  0.00  0.00    +0.000 C 
ATOM     22  C   UNL     1       7.560   5.437  18.962  0.00  0.00    +0.000 C 
ATOM     23  C   UNL     1       7.779   6.875  18.528  0.00  0.00    +0.000 C 
ATOM     24  C   UNL     1       7.491   6.909  17.028  0.00  0.00    +0.000 C 
ENDBRANCH  17  20
ENDBRANCH   5  17
TORSDOF 3
ENDMDL
MODEL 3
REMARK VINA RESULT:      -8.0      1.048      1.762
REMARK  Name = 
REMARK  4 active torsions:
REMARK  status: ('A' for Active; 'I' for Inactive)
REMARK    1  A    between atoms: C_1  and  C_2
REMARK    2  A    between atoms: C_7  and  C_8
REMARK    3  A    between atoms: C_12  and  S_13
REMARK    4  A    between atoms: S_13  and  N_16
REMARK                            x       y       z     vdW  Elec       q    Type
REMARK                         _______ _______ _______ _____ _____    ______ ____
ROOT
ATOM      1  C   UNL     1       2.736   6.840  18.766  0.00  0.00    +0.000 A 
ATOM      2  C   UNL     1       2.826   5.759  19.656  0.00  0.00    +0.000 A 
ATOM      3  C   UNL     1       3.604   4.638  19.350  0.00  0.00    +0.000 A 
ATOM      4  C   UNL     1       4.331   4.599  18.161  0.00  0.00    +0.000 A 
ATOM      5  C   UNL     1       4.292   5.695  17.299  0.00  0.00    +0.000 A 
ATOM      6  C   UNL     1       3.452   6.780  17.563  0.00  0.00    +0.000 A 
ENDROOT
BRANCH   1  13
ATOM      7  C   UNL     1      -0.414  13.458  19.504  0.00  0.00    +0.000 C 
ATOM      8  C   UNL     1       0.108  12.082  19.774  0.00  0.00    +0.000 A 
ATOM      9  C   UNL     1      -0.031  11.509  21.113  0.00  0.00    +0.000 A 
ATOM     10  C   UNL     1       0.386  10.259  21.400  0.00  0.00    +0.000 A 
ATOM     11  C   UNL     1       0.990   9.464  20.386  0.00  0.00    +0.000 A 
ATOM     12  N   UNL     1       1.484   8.243  20.404  0.00  0.00    +0.000 NA
ATOM     13  C   UNL     1       1.989   8.032  19.139  0.00  0.00    +0.000 A 
ATOM     14  C   UNL     1       1.760   9.130  18.335  0.00  0.00    +0.000 A 
ATOM     15  N   UNL     1       1.128  10.047  19.133  0.00  0.00    +0.000 N 
ATOM     16  C   UNL     1       0.696  11.332  18.822  0.00  0.00    +0.000 A 
ENDBRANCH   1  13
BRANCH   5  17
ATOM     17  S   UNL     1       5.350   5.752  15.867  0.00  0.00    +0.000 S 
ATOM     18  O   UNL     1       5.263   4.456  15.221  0.00  0.00    +0.000 OA
ATOM     19  O   UNL     1       5.049   6.973  15.144  0.00  0.00    +0.000 OA
BRANCH  17  20
ATOM     20  N   UNL     1       6.907   5.921  16.509  0.00  0.00    +0.000 NA
ATOM     21  C   UNL     1       7.629   4.748  17.027  0.00  0.00    +0.000 C 
ATOM     22  C   UNL     1       7.721   4.991  18.520  0.00  0.00    +0.000 C 
ATOM     23  C   UNL     1       7.835   6.500  18.648  0.00  0.00    +0.000 C 
ATOM     24  C   UNL     1       7.204   7.078  17.382  0.00  0.00    +0.000 C 
ENDBRANCH  17  20
ENDBRANCH   5  17
TORSDOF 3
ENDMDL
MODEL 4
REMARK VINA RESULT:      -8.0      2.089      2.618
REMARK  Name = 
REMARK  4 active torsions:
REMARK  status: ('A' for Active; 'I' for Inactive)
REMARK    1  A    between atoms: C_1  and  C_2
REMARK    2  A    between atoms: C_7  and  C_8
REMARK    3  A    between atoms: C_12  and  S_13
REMARK    4  A    between atoms: S_13  and  N_16
REMARK                            x       y       z     vdW  Elec       q    Type
REMARK                         _______ _______ _______ _____ _____    ______ ____
ROOT
ATOM      1  C   UNL     1       3.444   6.031  18.041  0.00  0.00    +0.000 A 
ATOM      2  C   UNL     1       3.027   4.730  18.357  0.00  0.00    +0.000 A 
ATOM      3  C   UNL     1       3.741   3.616  17.905  0.00  0.00    +0.000 A 
ATOM      4  C   UNL     1       4.905   3.792  17.157  0.00  0.00    +0.000 A 
ATOM      5  C   UNL     1       5.357   5.084  16.890  0.00  0.00    +0.000 A 
ATOM      6  C   UNL     1       4.602   6.196  17.270  0.00  0.00    +0.000 A 
ENDROOT
BRANCH   1  13
ATOM      7  C   UNL     1      -0.577  10.906  21.827  0.00  0.00    +0.000 C 
ATOM      8  C   UNL     1       0.195  10.218  20.746  0.00  0.00    +0.000 A 
ATOM      9  C   UNL     1       0.314  10.852  19.432  0.00  0.00    +0.000 A 
ATOM     10  C   UNL     1       1.031  10.295  18.435  0.00  0.00    +0.000 A 
ATOM     11  C   UNL     1       1.687   9.050  18.646  0.00  0.00    +0.000 A 
ATOM     12  N   UNL     1       2.424   8.300  17.852  0.00  0.00    +0.000 NA
ATOM     13  C   UNL     1       2.735   7.178  18.590  0.00  0.00    +0.000 A 
ATOM     14  C   UNL     1       2.208   7.272  19.862  0.00  0.00    +0.000 A 
ATOM     15  N   UNL     1       1.533   8.464  19.895  0.00  0.00    +0.000 N 
ATOM     16  C   UNL     1       0.803   9.031  20.935  0.00  0.00    +0.000 A 
ENDBRANCH   1  13
BRANCH   5  17
ATOM     17  S   UNL     1       6.932   5.341  16.100  0.00  0.00    +0.000 S 
ATOM     18  O   UNL     1       7.387   6.666  16.478  0.00  0.00    +0.000 OA
ATOM     19  O   UNL     1       7.748   4.167  16.348  0.00  0.00    +0.000 OA
BRANCH  17  20
ATOM     20  N   UNL     1       6.569   5.357  14.447  0.00  0.00    +0.000 NA
ATOM     21  C   UNL     1       5.418   4.597  13.932  0.00  0.00    +0.000 C 
ATOM     22  C   UNL     1       6.037   3.497  13.093  0.00  0.00    +0.000 C 
ATOM     23  C   UNL     1       7.290   4.129  12.512  0.00  0.00    +0.000 C 
ATOM     24  C   UNL     1       7.671   5.260  13.465  0.00  0.00    +0.000 C 
ENDBRANCH  17  20
ENDBRANCH   5  17
TORSDOF 3
ENDMDL
MODEL 5
REMARK VINA RESULT:      -7.9      2.067      2.859
REMARK  Name = 
REMARK  4 active torsions:
REMARK  status: ('A' for Active; 'I' for Inactive)
REMARK    1  A    between atoms: C_1  and  C_2
REMARK    2  A    between atoms: C_7  and  C_8
REMARK    3  A    between atoms: C_12  and  S_13
REMARK    4  A    between atoms: S_13  and  N_16
REMARK                            x       y       z     vdW  Elec       q    Type
REMARK                         _______ _______ _______ _____ _____    ______ ____
ROOT
ATOM      1  C   UNL     1       3.337   5.896  18.181  0.00  0.00    +0.000 A 
ATOM      2  C   UNL     1       2.990   4.565  18.455  0.00  0.00    +0.000 A 
ATOM      3  C   UNL     1       3.767   3.505  17.977  0.00  0.00    +0.000 A 
ATOM      4  C   UNL     1       4.924   3.766  17.244  0.00  0.00    +0.000 A 
ATOM      5  C   UNL     1       5.307   5.088  17.018  0.00  0.00    +0.000 A 
ATOM      6  C   UNL     1       4.489   6.146  17.424  0.00  0.00    +0.000 A 
ENDROOT
BRANCH   1  13
ATOM      7  C   UNL     1      -0.075  12.169  19.988  0.00  0.00    +0.000 C 
ATOM      8  C   UNL     1       0.536  10.804  20.041  0.00  0.00    +0.000 A 
ATOM      9  C   UNL     1       0.536  10.064  21.303  0.00  0.00    +0.000 A 
ATOM     10  C   UNL     1       1.038   8.815  21.397  0.00  0.00    +0.000 A 
ATOM     11  C   UNL     1       1.597   8.190  20.247  0.00  0.00    +0.000 A 
ATOM     12  N   UNL     1       2.153   7.008  20.073  0.00  0.00    +0.000 NA
ATOM     13  C   UNL     1       2.563   6.985  18.757  0.00  0.00    +0.000 A 
ATOM     14  C   UNL     1       2.214   8.158  18.120  0.00  0.00    +0.000 A 
ATOM     15  N   UNL     1       1.603   8.930  19.072  0.00  0.00    +0.000 N 
ATOM     16  C   UNL     1       1.082  10.215  18.960  0.00  0.00    +0.000 A 
ENDBRANCH   1  13
BRANCH   5  17
ATOM     17  S   UNL     1       6.871   5.454  16.248  0.00  0.00    +0.000 S 
ATOM     18  O   UNL     1       7.228   6.807  16.632  0.00  0.00    +0.000 OA
ATOM     19  O   UNL     1       7.762   4.339  16.507  0.00  0.00    +0.000 OA
BRANCH  17  20
ATOM     20  N   UNL     1       6.528   5.446  14.591  0.00  0.00    +0.000 NA
ATOM     21  C   UNL     1       5.365   4.705  14.076  0.00  0.00    +0.000 C 
ATOM     22  C   UNL     1       5.967   3.574  13.267  0.00  0.00    +0.000 C 
ATOM     23  C   UNL     1       7.242   4.163  12.689  0.00  0.00    +0.000 C 
ATOM     24  C   UNL     1       7.640   5.303  13.626  0.00  0.00    +0.000 C 
ENDBRANCH  17  20
ENDBRANCH   5  17
TORSDOF 3
ENDMDL
MODEL 6
REMARK VINA RESULT:      -7.7      2.780      4.100
REMARK  Name = 
REMARK  4 active torsions:
REMARK  status: ('A' for Active; 'I' for Inactive)
REMARK    1  A    between atoms: C_1  and  C_2
REMARK    2  A    between atoms: C_7  and  C_8
REMARK    3  A    between atoms: C_12  and  S_13
REMARK    4  A    between atoms: S_13  and  N_16
REMARK                            x       y       z     vdW  Elec       q    Type
REMARK                         _______ _______ _______ _____ _____    ______ ____
ROOT
ATOM      1  C   UNL     1       3.560   5.966  18.215  0.00  0.00    +0.000 A 
ATOM      2  C   UNL     1       4.173   6.017  16.954  0.00  0.00    +0.000 A 
ATOM      3  C   UNL     1       4.825   4.899  16.425  0.00  0.00    +0.000 A 
ATOM      4  C   UNL     1       4.842   3.701  17.138  0.00  0.00    +0.000 A 
ATOM      5  C   UNL     1       4.184   3.626  18.365  0.00  0.00    +0.000 A 
ATOM      6  C   UNL     1       3.603   4.763  18.933  0.00  0.00    +0.000 A 
ENDROOT
BRANCH   1  13
ATOM      7  C   UNL     1      -0.648  10.869  21.752  0.00  0.00    +0.000 C 
ATOM      8  C   UNL     1       0.165  10.165  20.712  0.00  0.00    +0.000 A 
ATOM      9  C   UNL     1       0.307  10.763  19.384  0.00  0.00    +0.000 A 
ATOM     10  C   UNL     1       1.059  10.191  18.422  0.00  0.00    +0.000 A 
ATOM     11  C   UNL     1       1.733   8.965  18.686  0.00  0.00    +0.000 A 
ATOM     12  N   UNL     1       2.504   8.207  17.933  0.00  0.00    +0.000 NA
ATOM     13  C   UNL     1       2.816   7.113  18.712  0.00  0.00    +0.000 A 
ATOM     14  C   UNL     1       2.254   7.234  19.966  0.00  0.00    +0.000 A 
ATOM     15  N   UNL     1       1.557   8.413  19.948  0.00  0.00    +0.000 N 
ATOM     16  C   UNL     1       0.789   8.996  20.951  0.00  0.00    +0.000 A 
ENDBRANCH   1  13
BRANCH   5  17
ATOM     17  S   UNL     1       4.029   2.066  19.211  0.00  0.00    +0.000 S 
ATOM     18  O   UNL     1       4.134   1.025  18.205  0.00  0.00    +0.000 OA
ATOM     19  O   UNL     1       4.917   2.095  20.357  0.00  0.00    +0.000 OA
BRANCH  17  20
ATOM     20  N   UNL     1       2.445   2.072  19.805  0.00  0.00    +0.000 NA
ATOM     21  C   UNL     1       1.305   2.183  18.880  0.00  0.00    +0.000 C 
ATOM     22  C   UNL     1       0.703   3.540  19.185  0.00  0.00    +0.000 C 
ATOM     23  C   UNL     1       0.937   3.728  20.674  0.00  0.00    +0.000 C 
ATOM     24  C   UNL     1       2.136   2.849  21.025  0.00  0.00    +0.000 C 
ENDBRANCH  17  20
ENDBRANCH   5  17
TORSDOF 3
ENDMDL
MODEL 7
REMARK VINA RESULT:      -7.6      3.176      4.851
REMARK  Name = 
REMARK  4 active torsions:
REMARK  status: ('A' for Active; 'I' for Inactive)
REMARK    1  A    between atoms: C_1  and  C_2
REMARK    2  A    between atoms: C_7  and  C_8
REMARK    3  A    between atoms: C_12  and  S_13
REMARK    4  A    between atoms: S_13  and  N_16
REMARK                            x       y       z     vdW  Elec       q    Type
REMARK                         _______ _______ _______ _____ _____    ______ ____
ROOT
ATOM      1  C   UNL     1       1.258   9.003  19.537  0.00  0.00    +0.000 A 
ATOM      2  C   UNL     1       1.694   9.404  18.266  0.00  0.00    +0.000 A 
ATOM      3  C   UNL     1       2.568   8.606  17.520  0.00  0.00    +0.000 A 
ATOM      4  C   UNL     1       2.991   7.377  18.024  0.00  0.00    +0.000 A 
ATOM      5  C   UNL     1       2.514   6.946  19.262  0.00  0.00    +0.000 A 
ATOM      6  C   UNL     1       1.708   7.777  20.045  0.00  0.00    +0.000 A 
ENDROOT
BRANCH   1  13
ATOM      7  C   UNL     1      -3.602  13.931  22.057  0.00  0.00    +0.000 C 
ATOM      8  C   UNL     1      -2.599  12.825  21.969  0.00  0.00    +0.000 A 
ATOM      9  C   UNL     1      -2.174  12.140  23.191  0.00  0.00    +0.000 A 
ATOM     10  C   UNL     1      -1.302  11.111  23.164  0.00  0.00    +0.000 A 
ATOM     11  C   UNL     1      -0.763  10.673  21.922  0.00  0.00    +0.000 A 
ATOM     12  N   UNL     1       0.097   9.720  21.625  0.00  0.00    +0.000 NA
ATOM     13  C   UNL     1       0.285   9.806  20.262  0.00  0.00    +0.000 A 
ATOM     14  C   UNL     1      -0.504  10.803  19.725  0.00  0.00    +0.000 A 
ATOM     15  N   UNL     1      -1.168  11.361  20.785  0.00  0.00    +0.000 N 
ATOM     16  C   UNL     1      -2.071  12.419  20.799  0.00  0.00    +0.000 A 
ENDBRANCH   1  13
BRANCH   5  17
ATOM     17  S   UNL     1       2.888   5.306  19.849  0.00  0.00    +0.000 S 
ATOM     18  O   UNL     1       4.316   5.111  19.686  0.00  0.00    +0.000 OA
ATOM     19  O   UNL     1       2.250   5.144  21.141  0.00  0.00    +0.000 OA
BRANCH  17  20
ATOM     20  N   UNL     1       2.086   4.285  18.763  0.00  0.00    +0.000 NA
ATOM     21  C   UNL     1       1.074   3.332  19.248  0.00  0.00    +0.000 C 
ATOM     22  C   UNL     1       1.698   1.970  19.015  0.00  0.00    +0.000 C 
ATOM     23  C   UNL     1       2.530   2.150  17.757  0.00  0.00    +0.000 C 
ATOM     24  C   UNL     1       2.856   3.640  17.677  0.00  0.00    +0.000 C 
ENDBRANCH  17  20
ENDBRANCH   5  17
TORSDOF 3
ENDMDL
MODEL 8
REMARK VINA RESULT:      -7.6      2.652      4.158
REMARK  Name = 
REMARK  4 active torsions:
REMARK  status: ('A' for Active; 'I' for Inactive)
REMARK    1  A    between atoms: C_1  and  C_2
REMARK    2  A    between atoms: C_7  and  C_8
REMARK    3  A    between atoms: C_12  and  S_13
REMARK    4  A    between atoms: S_13  and  N_16
REMARK                            x       y       z     vdW  Elec       q    Type
REMARK                         _______ _______ _______ _____ _____    ______ ____
ROOT
ATOM      1  C   UNL     1       3.319   6.478  18.304  0.00  0.00    +0.000 A 
ATOM      2  C   UNL     1       4.565   6.718  17.707  0.00  0.00    +0.000 A 
ATOM      3  C   UNL     1       5.371   5.661  17.273  0.00  0.00    +0.000 A 
ATOM      4  C   UNL     1       4.923   4.347  17.400  0.00  0.00    +0.000 A 
ATOM      5  C   UNL     1       3.660   4.104  17.939  0.00  0.00    +0.000 A 
ATOM      6  C   UNL     1       2.889   5.153  18.448  0.00  0.00    +0.000 A 
ENDROOT
BRANCH   1  13
ATOM      7  C   UNL     1      -0.450  12.766  19.026  0.00  0.00    +0.000 C 
ATOM      8  C   UNL     1       0.198  11.446  19.298  0.00  0.00    +0.000 A 
ATOM      9  C   UNL     1       0.107  10.861  20.637  0.00  0.00    +0.000 A 
ATOM     10  C   UNL     1       0.639   9.656  20.926  0.00  0.00    +0.000 A 
ATOM     11  C   UNL     1       1.321   8.923  19.914  0.00  0.00    +0.000 A 
ATOM     12  N   UNL     1       1.930   7.755  19.935  0.00  0.00    +0.000 NA
ATOM     13  C   UNL     1       2.460   7.593  18.673  0.00  0.00    +0.000 A 
ATOM     14  C   UNL     1       2.132   8.666  17.869  0.00  0.00    +0.000 A 
ATOM     15  N   UNL     1       1.411   9.518  18.663  0.00  0.00    +0.000 N 
ATOM     16  C   UNL     1       0.861  10.756  18.350  0.00  0.00    +0.000 A 
ENDBRANCH   1  13
BRANCH   5  17
ATOM     17  S   UNL     1       2.984   2.456  17.945  0.00  0.00    +0.000 S 
ATOM     18  O   UNL     1       1.848   2.459  17.043  0.00  0.00    +0.000 OA
ATOM     19  O   UNL     1       4.084   1.528  17.766  0.00  0.00    +0.000 OA
BRANCH  17  20
ATOM     20  N   UNL     1       2.408   2.251  19.523  0.00  0.00    +0.000 NA
ATOM     21  C   UNL     1       0.998   2.528  19.842  0.00  0.00    +0.000 C 
ATOM     22  C   UNL     1       1.048   3.746  20.743  0.00  0.00    +0.000 C 
ATOM     23  C   UNL     1       2.343   3.584  21.521  0.00  0.00    +0.000 C 
ATOM     24  C   UNL     1       3.243   2.700  20.659  0.00  0.00    +0.000 C 
ENDBRANCH  17  20
ENDBRANCH   5  17
TORSDOF 3
ENDMDL
MODEL 9
REMARK VINA RESULT:      -7.6      1.648      2.257
REMARK  Name = 
REMARK  4 active torsions:
REMARK  status: ('A' for Active; 'I' for Inactive)
REMARK    1  A    between atoms: C_1  and  C_2
REMARK    2  A    between atoms: C_7  and  C_8
REMARK    3  A    between atoms: C_12  and  S_13
REMARK    4  A    between atoms: S_13  and  N_16
REMARK                            x       y       z     vdW  Elec       q    Type
REMARK                         _______ _______ _______ _____ _____    ______ ____
ROOT
ATOM      1  C   UNL     1       2.944   6.232  18.953  0.00  0.00    +0.000 A 
ATOM      2  C   UNL     1       2.405   4.937  18.983  0.00  0.00    +0.000 A 
ATOM      3  C   UNL     1       3.121   3.848  18.476  0.00  0.00    +0.000 A 
ATOM      4  C   UNL     1       4.403   4.036  17.961  0.00  0.00    +0.000 A 
ATOM      5  C   UNL     1       4.968   5.311  17.982  0.00  0.00    +0.000 A 
ATOM      6  C   UNL     1       4.224   6.413  18.412  0.00  0.00    +0.000 A 
ENDROOT
BRANCH   1  13
ATOM      7  C   UNL     1      -1.119  10.852  23.003  0.00  0.00    +0.000 C 
ATOM      8  C   UNL     1      -0.351  10.227  21.882  0.00  0.00    +0.000 A 
ATOM      9  C   UNL     1      -0.267  10.918  20.595  0.00  0.00    +0.000 A 
ATOM     10  C   UNL     1       0.446  10.420  19.564  0.00  0.00    +0.000 A 
ATOM     11  C   UNL     1       1.133   9.182  19.711  0.00  0.00    +0.000 A 
ATOM     12  N   UNL     1       1.873   8.483  18.876  0.00  0.00    +0.000 NA
ATOM     13  C   UNL     1       2.220   7.338  19.561  0.00  0.00    +0.000 A 
ATOM     14  C   UNL     1       1.711   7.367  20.843  0.00  0.00    +0.000 A 
ATOM     15  N   UNL     1       1.012   8.541  20.937  0.00  0.00    +0.000 N 
ATOM     16  C   UNL     1       0.286   9.048  22.011  0.00  0.00    +0.000 A 
ENDBRANCH   1  13
BRANCH   5  17
ATOM     17  S   UNL     1       6.667   5.551  17.504  0.00  0.00    +0.000 S 
ATOM     18  O   UNL     1       7.076   6.842  18.024  0.00  0.00    +0.000 OA
ATOM     19  O   UNL     1       7.394   4.342  17.836  0.00  0.00    +0.000 OA
BRANCH  17  20
ATOM     20  N   UNL     1       6.611   5.654  15.815  0.00  0.00    +0.000 NA
ATOM     21  C   UNL     1       5.321   5.804  15.122  0.00  0.00    +0.000 C 
ATOM     22  C   UNL     1       5.143   4.499  14.372  0.00  0.00    +0.000 C 
ATOM     23  C   UNL     1       6.555   4.087  13.995  0.00  0.00    +0.000 C 
ATOM     24  C   UNL     1       7.475   4.762  15.011  0.00  0.00    +0.000 C 
ENDBRANCH  17  20
ENDBRANCH   5  17
TORSDOF 3
ENDMDL
