MODEL 1
REMARK VINA RESULT:      -8.2      0.000      0.000
REMARK  Name = 
REMARK  6 active torsions:
REMARK  status: ('A' for Active; 'I' for Inactive)
REMARK    1  A    between atoms: C_2  and  C_3
REMARK    2  A    between atoms: C_3  and  S_4
REMARK    3  A    between atoms: S_4  and  C_5
REMARK    4  A    between atoms: N_14  and  C_15
REMARK    5  A    between atoms: C_19  and  S_20
REMARK    6  A    between atoms: S_20  and  N_23
REMARK                            x       y       z     vdW  Elec       q    Type
REMARK                         _______ _______ _______ _____ _____    ______ ____
ROOT
ATOM      1  O   UNL     1       1.325   4.118  19.128  0.00  0.00    +0.000 OA
ATOM      2  C   UNL     1       2.196   4.348  19.967  0.00  0.00    +0.000 C 
ATOM      3  N   UNL     1       2.777   5.588  20.209  0.00  0.00    +0.000 N 
ATOM      4  H   UNL     1       3.632   5.585  20.755  0.00  0.00    +0.000 HD
ENDROOT
BRANCH   3   5
ATOM      5  C   UNL     1       2.435   6.813  19.587  0.00  0.00    +0.000 A 
ATOM      6  C   UNL     1       2.740   7.107  18.253  0.00  0.00    +0.000 A 
ATOM      7  C   UNL     1       2.437   8.354  17.701  0.00  0.00    +0.000 A 
ATOM      8  C   UNL     1       1.788   9.317  18.464  0.00  0.00    +0.000 A 
ATOM      9  C   UNL     1       1.406   9.007  19.772  0.00  0.00    +0.000 A 
ATOM     10  C   UNL     1       1.748   7.771  20.344  0.00  0.00    +0.000 A 
BRANCH   9  11
ATOM     11  S   UNL     1       0.525  10.229  20.733  0.00  0.00    +0.000 S 
ATOM     12  O   UNL     1      -0.864   9.819  20.776  0.00  0.00    +0.000 OA
ATOM     13  O   UNL     1       1.278  10.447  21.950  0.00  0.00    +0.000 OA
BRANCH  11  14
ATOM     14  N   UNL     1       0.640  11.652  19.769  0.00  0.00    +0.000 NA
ATOM     15  C   UNL     1      -0.641  12.093  19.151  0.00  0.00    +0.000 C 
ATOM     16  C   UNL     1      -0.439  13.273  18.207  0.00  0.00    +0.000 C 
ATOM     17  C   UNL     1       0.296  14.410  18.902  0.00  0.00    +0.000 C 
ATOM     18  C   UNL     1       1.641  13.904  19.402  0.00  0.00    +0.000 C 
ATOM     19  C   UNL     1       1.458  12.739  20.367  0.00  0.00    +0.000 C 
ENDBRANCH  11  14
ENDBRANCH   9  11
ENDBRANCH   3   5
BRANCH   2  20
ATOM     20  C   UNL     1       2.724   3.233  20.864  0.00  0.00    +0.000 C 
BRANCH  20  21
ATOM     21  S   UNL     1       3.837   2.126  19.949  0.00  0.00    +0.000 S 
BRANCH  21  22
ATOM     22  C   UNL     1       4.655   3.305  18.971  0.00  0.00    +0.000 A 
ATOM     23  N   UNL     1       5.581   4.113  19.455  0.00  0.00    +0.000 NA
ATOM     24  C   UNL     1       5.881   4.928  18.395  0.00  0.00    +0.000 A 
ATOM     25  C   UNL     1       6.766   6.007  18.288  0.00  0.00    +0.000 A 
ATOM     26  C   UNL     1       6.817   6.698  17.070  0.00  0.00    +0.000 A 
ATOM     27  C   UNL     1       6.022   6.310  15.981  0.00  0.00    +0.000 A 
ATOM     28  C   UNL     1       5.150   5.219  16.067  0.00  0.00    +0.000 A 
ATOM     29  C   UNL     1       5.120   4.570  17.293  0.00  0.00    +0.000 A 
ATOM     30  O   UNL     1       4.347   3.506  17.652  0.00  0.00    +0.000 OA
ENDBRANCH  21  22
ENDBRANCH  20  21
ENDBRANCH   2  20
TORSDOF 6
ENDMDL
MODEL 2
REMARK VINA RESULT:      -8.2      0.751      1.179
REMARK  Name = 
REMARK  6 active torsions:
REMARK  status: ('A' for Active; 'I' for Inactive)
REMARK    1  A    between atoms: C_2  and  C_3
REMARK    2  A    between atoms: C_3  and  S_4
REMARK    3  A    between atoms: S_4  and  C_5
REMARK    4  A    between atoms: N_14  and  C_15
REMARK    5  A    between atoms: C_19  and  S_20
REMARK    6  A    between atoms: S_20  and  N_23
REMARK                            x       y       z     vdW  Elec       q    Type
REMARK                         _______ _______ _______ _____ _____    ______ ____
ROOT
ATOM      1  O   UNL     1       1.153   4.333  19.533  0.00  0.00    +0.000 OA
ATOM      2  C   UNL     1       2.125   4.592  20.242  0.00  0.00    +0.000 C 
ATOM      3  N   UNL     1       2.775   5.820  20.305  0.00  0.00    +0.000 N 
ATOM      4  H   UNL     1       3.688   5.823  20.747  0.00  0.00    +0.000 HD
ENDROOT
BRANCH   3   5
ATOM      5  C   UNL     1       2.404   7.003  19.622  0.00  0.00    +0.000 A 
ATOM      6  C   UNL     1       2.700   7.233  18.273  0.00  0.00    +0.000 A 
ATOM      7  C   UNL     1       2.368   8.443  17.658  0.00  0.00    +0.000 A 
ATOM      8  C   UNL     1       1.702   9.431  18.372  0.00  0.00    +0.000 A 
ATOM      9  C   UNL     1       1.330   9.181  19.696  0.00  0.00    +0.000 A 
ATOM     10  C   UNL     1       1.700   7.985  20.331  0.00  0.00    +0.000 A 
BRANCH   9  11
ATOM     11  S   UNL     1       0.426  10.434  20.595  0.00  0.00    +0.000 S 
ATOM     12  O   UNL     1      -0.978  10.090  20.512  0.00  0.00    +0.000 OA
ATOM     13  O   UNL     1       1.080  10.603  21.876  0.00  0.00    +0.000 OA
BRANCH  11  14
ATOM     14  N   UNL     1       0.690  11.860  19.667  0.00  0.00    +0.000 NA
ATOM     15  C   UNL     1      -0.548  12.576  19.254  0.00  0.00    +0.000 C 
ATOM     16  C   UNL     1      -0.245  13.746  18.325  0.00  0.00    +0.000 C 
ATOM     17  C   UNL     1       0.790  14.677  18.939  0.00  0.00    +0.000 C 
ATOM     18  C   UNL     1       2.062  13.892  19.222  0.00  0.00    +0.000 C 
ATOM     19  C   UNL     1       1.784  12.732  20.170  0.00  0.00    +0.000 C 
ENDBRANCH  11  14
ENDBRANCH   9  11
ENDBRANCH   3   5
BRANCH   2  20
ATOM     20  C   UNL     1       2.716   3.532  21.167  0.00  0.00    +0.000 C 
BRANCH  20  21
ATOM     21  S   UNL     1       3.598   2.255  20.223  0.00  0.00    +0.000 S 
BRANCH  21  22
ATOM     22  C   UNL     1       4.386   3.271  19.056  0.00  0.00    +0.000 A 
ATOM     23  N   UNL     1       4.082   3.249  17.771  0.00  0.00    +0.000 NA
ATOM     24  C   UNL     1       4.990   4.110  17.212  0.00  0.00    +0.000 A 
ATOM     25  C   UNL     1       5.199   4.485  15.880  0.00  0.00    +0.000 A 
ATOM     26  C   UNL     1       6.261   5.357  15.601  0.00  0.00    +0.000 A 
ATOM     27  C   UNL     1       7.079   5.856  16.626  0.00  0.00    +0.000 A 
ATOM     28  C   UNL     1       6.866   5.507  17.964  0.00  0.00    +0.000 A 
ATOM     29  C   UNL     1       5.814   4.633  18.196  0.00  0.00    +0.000 A 
ATOM     30  O   UNL     1       5.410   4.116  19.391  0.00  0.00    +0.000 OA
ENDBRANCH  21  22
ENDBRANCH  20  21
ENDBRANCH   2  20
TORSDOF 6
ENDMDL
MODEL 3
REMARK VINA RESULT:      -8.1      1.441      1.918
REMARK  Name = 
REMARK  6 active torsions:
REMARK  status: ('A' for Active; 'I' for Inactive)
REMARK    1  A    between atoms: C_2  and  C_3
REMARK    2  A    between atoms: C_3  and  S_4
REMARK    3  A    between atoms: S_4  and  C_5
REMARK    4  A    between atoms: N_14  and  C_15
REMARK    5  A    between atoms: C_19  and  S_20
REMARK    6  A    between atoms: S_20  and  N_23
REMARK                            x       y       z     vdW  Elec       q    Type
REMARK                         _______ _______ _______ _____ _____    ______ ____
ROOT
ATOM      1  O   UNL     1       1.259   4.327  19.228  0.00  0.00    +0.000 OA
ATOM      2  C   UNL     1       2.091   4.614  20.089  0.00  0.00    +0.000 C 
ATOM      3  N   UNL     1       2.689   5.859  20.251  0.00  0.00    +0.000 N 
ATOM      4  H   UNL     1       3.514   5.888  20.841  0.00  0.00    +0.000 HD
ENDROOT
BRANCH   3   5
ATOM      5  C   UNL     1       2.411   7.029  19.504  0.00  0.00    +0.000 A 
ATOM      6  C   UNL     1       2.855   7.225  18.192  0.00  0.00    +0.000 A 
ATOM      7  C   UNL     1       2.607   8.423  17.516  0.00  0.00    +0.000 A 
ATOM      8  C   UNL     1       1.878   9.434  18.132  0.00  0.00    +0.000 A 
ATOM      9  C   UNL     1       1.361   9.219  19.412  0.00  0.00    +0.000 A 
ATOM     10  C   UNL     1       1.645   8.034  20.110  0.00  0.00    +0.000 A 
BRANCH   9  11
ATOM     11  S   UNL     1       0.379  10.501  20.178  0.00  0.00    +0.000 S 
ATOM     12  O   UNL     1       0.049  10.045  21.513  0.00  0.00    +0.000 OA
ATOM     13  O   UNL     1       1.066  11.757  19.965  0.00  0.00    +0.000 OA
BRANCH  11  14
ATOM     14  N   UNL     1      -1.064  10.513  19.239  0.00  0.00    +0.000 NA
ATOM     15  C   UNL     1      -1.872  11.759  19.350  0.00  0.00    +0.000 C 
ATOM     16  C   UNL     1      -3.197  11.646  18.603  0.00  0.00    +0.000 C 
ATOM     17  C   UNL     1      -2.975  11.221  17.158  0.00  0.00    +0.000 C 
ATOM     18  C   UNL     1      -2.247   9.885  17.137  0.00  0.00    +0.000 C 
ATOM     19  C   UNL     1      -0.908   9.984  17.858  0.00  0.00    +0.000 C 
ENDBRANCH  11  14
ENDBRANCH   9  11
ENDBRANCH   3   5
BRANCH   2  20
ATOM     20  C   UNL     1       2.543   3.574  21.109  0.00  0.00    +0.000 C 
BRANCH  20  21
ATOM     21  S   UNL     1       3.551   2.281  20.326  0.00  0.00    +0.000 S 
BRANCH  21  22
ATOM     22  C   UNL     1       4.436   3.266  19.202  0.00  0.00    +0.000 A 
ATOM     23  N   UNL     1       5.376   4.112  19.584  0.00  0.00    +0.000 NA
ATOM     24  C   UNL     1       5.734   4.740  18.419  0.00  0.00    +0.000 A 
ATOM     25  C   UNL     1       6.658   5.762  18.173  0.00  0.00    +0.000 A 
ATOM     26  C   UNL     1       6.767   6.249  16.864  0.00  0.00    +0.000 A 
ATOM     27  C   UNL     1       5.990   5.718  15.824  0.00  0.00    +0.000 A 
ATOM     28  C   UNL     1       5.078   4.681  16.051  0.00  0.00    +0.000 A 
ATOM     29  C   UNL     1       4.991   4.236  17.363  0.00  0.00    +0.000 A 
ATOM     30  O   UNL     1       4.173   3.265  17.859  0.00  0.00    +0.000 OA
ENDBRANCH  21  22
ENDBRANCH  20  21
ENDBRANCH   2  20
TORSDOF 6
ENDMDL
MODEL 4
REMARK VINA RESULT:      -8.1      2.143      4.092
REMARK  Name = 
REMARK  6 active torsions:
REMARK  status: ('A' for Active; 'I' for Inactive)
REMARK    1  A    between atoms: C_2  and  C_3
REMARK    2  A    between atoms: C_3  and  S_4
REMARK    3  A    between atoms: S_4  and  C_5
REMARK    4  A    between atoms: N_14  and  C_15
REMARK    5  A    between atoms: C_19  and  S_20
REMARK    6  A    between atoms: S_20  and  N_23
REMARK                            x       y       z     vdW  Elec       q    Type
REMARK                         _______ _______ _______ _____ _____    ______ ____
ROOT
ATOM      1  O   UNL     1       5.315   6.330  18.529  0.00  0.00    +0.000 OA
ATOM      2  C   UNL     1       4.506   6.183  17.613  0.00  0.00    +0.000 C 
ATOM      3  N   UNL     1       3.154   6.503  17.671  0.00  0.00    +0.000 N 
ATOM      4  H   UNL     1       2.569   6.117  16.937  0.00  0.00    +0.000 HD
ENDROOT
BRANCH   3   5
ATOM      5  C   UNL     1       2.479   7.108  18.758  0.00  0.00    +0.000 A 
ATOM      6  C   UNL     1       2.203   6.440  19.956  0.00  0.00    +0.000 A 
ATOM      7  C   UNL     1       1.478   7.059  20.978  0.00  0.00    +0.000 A 
ATOM      8  C   UNL     1       1.048   8.373  20.833  0.00  0.00    +0.000 A 
ATOM      9  C   UNL     1       1.387   9.076  19.674  0.00  0.00    +0.000 A 
ATOM     10  C   UNL     1       2.077   8.444  18.627  0.00  0.00    +0.000 A 
BRANCH   9  11
ATOM     11  S   UNL     1       0.878  10.782  19.514  0.00  0.00    +0.000 S 
ATOM     12  O   UNL     1       0.892  11.359  20.842  0.00  0.00    +0.000 OA
ATOM     13  O   UNL     1       1.652  11.365  18.438  0.00  0.00    +0.000 OA
BRANCH  11  14
ATOM     14  N   UNL     1      -0.759  10.662  18.993  0.00  0.00    +0.000 NA
ATOM     15  C   UNL     1      -1.584  11.876  19.238  0.00  0.00    +0.000 C 
ATOM     16  C   UNL     1      -3.049  11.651  18.878  0.00  0.00    +0.000 C 
ATOM     17  C   UNL     1      -3.188  11.128  17.456  0.00  0.00    +0.000 C 
ATOM     18  C   UNL     1      -2.411   9.827  17.324  0.00  0.00    +0.000 C 
ATOM     19  C   UNL     1      -0.939  10.038  17.656  0.00  0.00    +0.000 C 
ENDBRANCH  11  14
ENDBRANCH   9  11
ENDBRANCH   3   5
BRANCH   2  20
ATOM     20  C   UNL     1       4.951   5.621  16.268  0.00  0.00    +0.000 C 
BRANCH  20  21
ATOM     21  S   UNL     1       5.285   3.838  16.378  0.00  0.00    +0.000 S 
BRANCH  21  22
ATOM     22  C   UNL     1       4.091   3.409  17.564  0.00  0.00    +0.000 A 
ATOM     23  N   UNL     1       2.798   3.376  17.295  0.00  0.00    +0.000 NA
ATOM     24  C   UNL     1       2.225   3.096  18.508  0.00  0.00    +0.000 A 
ATOM     25  C   UNL     1       0.882   2.964  18.879  0.00  0.00    +0.000 A 
ATOM     26  C   UNL     1       0.594   2.728  20.231  0.00  0.00    +0.000 A 
ATOM     27  C   UNL     1       1.619   2.606  21.181  0.00  0.00    +0.000 A 
ATOM     28  C   UNL     1       2.966   2.712  20.819  0.00  0.00    +0.000 A 
ATOM     29  C   UNL     1       3.208   2.960  19.475  0.00  0.00    +0.000 A 
ATOM     30  O   UNL     1       4.415   3.133  18.865  0.00  0.00    +0.000 OA
ENDBRANCH  21  22
ENDBRANCH  20  21
ENDBRANCH   2  20
TORSDOF 6
ENDMDL
MODEL 5
REMARK VINA RESULT:      -8.0      1.579      2.225
REMARK  Name = 
REMARK  6 active torsions:
REMARK  status: ('A' for Active; 'I' for Inactive)
REMARK    1  A    between atoms: C_2  and  C_3
REMARK    2  A    between atoms: C_3  and  S_4
REMARK    3  A    between atoms: S_4  and  C_5
REMARK    4  A    between atoms: N_14  and  C_15
REMARK    5  A    between atoms: C_19  and  S_20
REMARK    6  A    between atoms: S_20  and  N_23
REMARK                            x       y       z     vdW  Elec       q    Type
REMARK                         _______ _______ _______ _____ _____    ______ ____
ROOT
ATOM      1  O   UNL     1       1.287   4.372  19.115  0.00  0.00    +0.000 OA
ATOM      2  C   UNL     1       2.058   4.661  20.030  0.00  0.00    +0.000 C 
ATOM      3  N   UNL     1       2.622   5.914  20.245  0.00  0.00    +0.000 N 
ATOM      4  H   UNL     1       3.408   5.948  20.886  0.00  0.00    +0.000 HD
ENDROOT
BRANCH   3   5
ATOM      5  C   UNL     1       2.368   7.089  19.499  0.00  0.00    +0.000 A 
ATOM      6  C   UNL     1       2.830   7.282  18.192  0.00  0.00    +0.000 A 
ATOM      7  C   UNL     1       2.607   8.486  17.517  0.00  0.00    +0.000 A 
ATOM      8  C   UNL     1       1.885   9.505  18.127  0.00  0.00    +0.000 A 
ATOM      9  C   UNL     1       1.350   9.294  19.400  0.00  0.00    +0.000 A 
ATOM     10  C   UNL     1       1.609   8.103  20.098  0.00  0.00    +0.000 A 
BRANCH   9  11
ATOM     11  S   UNL     1       0.378  10.587  20.159  0.00  0.00    +0.000 S 
ATOM     12  O   UNL     1       0.089  10.165  21.514  0.00  0.00    +0.000 OA
ATOM     13  O   UNL     1       1.047  11.844  19.894  0.00  0.00    +0.000 OA
BRANCH  11  14
ATOM     14  N   UNL     1      -1.091  10.562  19.260  0.00  0.00    +0.000 NA
ATOM     15  C   UNL     1      -1.933  11.781  19.402  0.00  0.00    +0.000 C 
ATOM     16  C   UNL     1      -3.273  11.632  18.691  0.00  0.00    +0.000 C 
ATOM     17  C   UNL     1      -3.079  11.224  17.238  0.00  0.00    +0.000 C 
ATOM     18  C   UNL     1      -2.312   9.911  17.188  0.00  0.00    +0.000 C 
ATOM     19  C   UNL     1      -0.958  10.047  17.872  0.00  0.00    +0.000 C 
ENDBRANCH  11  14
ENDBRANCH   9  11
ENDBRANCH   3   5
BRANCH   2  20
ATOM     20  C   UNL     1       2.466   3.614  21.062  0.00  0.00    +0.000 C 
BRANCH  20  21
ATOM     21  S   UNL     1       3.605   2.394  20.345  0.00  0.00    +0.000 S 
BRANCH  21  22
ATOM     22  C   UNL     1       4.442   3.425  19.225  0.00  0.00    +0.000 A 
ATOM     23  N   UNL     1       4.272   3.343  17.918  0.00  0.00    +0.000 NA
ATOM     24  C   UNL     1       5.176   4.246  17.420  0.00  0.00    +0.000 A 
ATOM     25  C   UNL     1       5.495   4.592  16.103  0.00  0.00    +0.000 A 
ATOM     26  C   UNL     1       6.523   5.524  15.899  0.00  0.00    +0.000 A 
ATOM     27  C   UNL     1       7.198   6.109  16.980  0.00  0.00    +0.000 A 
ATOM     28  C   UNL     1       6.873   5.788  18.303  0.00  0.00    +0.000 A 
ATOM     29  C   UNL     1       5.860   4.852  18.462  0.00  0.00    +0.000 A 
ATOM     30  O   UNL     1       5.371   4.347  19.629  0.00  0.00    +0.000 OA
ENDBRANCH  21  22
ENDBRANCH  20  21
ENDBRANCH   2  20
TORSDOF 6
ENDMDL
MODEL 6
REMARK VINA RESULT:      -7.9      1.332      1.557
REMARK  Name = 
REMARK  6 active torsions:
REMARK  status: ('A' for Active; 'I' for Inactive)
REMARK    1  A    between atoms: C_2  and  C_3
REMARK    2  A    between atoms: C_3  and  S_4
REMARK    3  A    between atoms: S_4  and  C_5
REMARK    4  A    between atoms: N_14  and  C_15
REMARK    5  A    between atoms: C_19  and  S_20
REMARK    6  A    between atoms: S_20  and  N_23
REMARK                            x       y       z     vdW  Elec       q    Type
REMARK                         _______ _______ _______ _____ _____    ______ ____
ROOT
ATOM      1  O   UNL     1       1.391   4.171  18.910  0.00  0.00    +0.000 OA
ATOM      2  C   UNL     1       2.224   4.371  19.795  0.00  0.00    +0.000 C 
ATOM      3  N   UNL     1       2.745   5.612  20.147  0.00  0.00    +0.000 N 
ATOM      4  H   UNL     1       3.581   5.601  20.722  0.00  0.00    +0.000 HD
ENDROOT
BRANCH   3   5
ATOM      5  C   UNL     1       2.373   6.865  19.604  0.00  0.00    +0.000 A 
ATOM      6  C   UNL     1       2.679   7.254  18.295  0.00  0.00    +0.000 A 
ATOM      7  C   UNL     1       2.345   8.526  17.823  0.00  0.00    +0.000 A 
ATOM      8  C   UNL     1       1.666   9.420  18.643  0.00  0.00    +0.000 A 
ATOM      9  C   UNL     1       1.284   9.014  19.924  0.00  0.00    +0.000 A 
ATOM     10  C   UNL     1       1.656   7.752  20.417  0.00  0.00    +0.000 A 
BRANCH   9  11
ATOM     11  S   UNL     1       0.364  10.146  20.956  0.00  0.00    +0.000 S 
ATOM     12  O   UNL     1      -0.404   9.347  21.889  0.00  0.00    +0.000 OA
ATOM     13  O   UNL     1       1.291  11.156  21.424  0.00  0.00    +0.000 OA
BRANCH  11  14
ATOM     14  N   UNL     1      -0.729  10.892  19.854  0.00  0.00    +0.000 NA
ATOM     15  C   UNL     1      -1.418   9.954  18.926  0.00  0.00    +0.000 C 
ATOM     16  C   UNL     1      -2.263  10.694  17.894  0.00  0.00    +0.000 C 
ATOM     17  C   UNL     1      -3.225  11.662  18.567  0.00  0.00    +0.000 C 
ATOM     18  C   UNL     1      -2.431  12.655  19.402  0.00  0.00    +0.000 C 
ATOM     19  C   UNL     1      -1.599  11.936  20.456  0.00  0.00    +0.000 C 
ENDBRANCH  11  14
ENDBRANCH   9  11
ENDBRANCH   3   5
BRANCH   2  20
ATOM     20  C   UNL     1       2.767   3.214  20.626  0.00  0.00    +0.000 C 
BRANCH  20  21
ATOM     21  S   UNL     1       3.865   2.155  19.640  0.00  0.00    +0.000 S 
BRANCH  21  22
ATOM     22  C   UNL     1       4.778   3.389  18.826  0.00  0.00    +0.000 A 
ATOM     23  N   UNL     1       5.752   4.060  19.414  0.00  0.00    +0.000 NA
ATOM     24  C   UNL     1       6.123   4.981  18.469  0.00  0.00    +0.000 A 
ATOM     25  C   UNL     1       7.082   5.998  18.507  0.00  0.00    +0.000 A 
ATOM     26  C   UNL     1       7.199   6.834  17.388  0.00  0.00    +0.000 A 
ATOM     27  C   UNL     1       6.394   6.647  16.255  0.00  0.00    +0.000 A 
ATOM     28  C   UNL     1       5.446   5.619  16.195  0.00  0.00    +0.000 A 
ATOM     29  C   UNL     1       5.353   4.822  17.328  0.00  0.00    +0.000 A 
ATOM     30  O   UNL     1       4.503   3.779  17.543  0.00  0.00    +0.000 OA
ENDBRANCH  21  22
ENDBRANCH  20  21
ENDBRANCH   2  20
TORSDOF 6
ENDMDL
MODEL 7
REMARK VINA RESULT:      -7.9      0.820      1.267
REMARK  Name = 
REMARK  6 active torsions:
REMARK  status: ('A' for Active; 'I' for Inactive)
REMARK    1  A    between atoms: C_2  and  C_3
REMARK    2  A    between atoms: C_3  and  S_4
REMARK    3  A    between atoms: S_4  and  C_5
REMARK    4  A    between atoms: N_14  and  C_15
REMARK    5  A    between atoms: C_19  and  S_20
REMARK    6  A    between atoms: S_20  and  N_23
REMARK                            x       y       z     vdW  Elec       q    Type
REMARK                         _______ _______ _______ _____ _____    ______ ____
ROOT
ATOM      1  O   UNL     1       1.389   4.060  18.425  0.00  0.00    +0.000 OA
ATOM      2  C   UNL     1       2.180   4.168  19.362  0.00  0.00    +0.000 C 
ATOM      3  N   UNL     1       2.733   5.360  19.819  0.00  0.00    +0.000 N 
ATOM      4  H   UNL     1       3.535   5.276  20.434  0.00  0.00    +0.000 HD
ENDROOT
BRANCH   3   5
ATOM      5  C   UNL     1       2.444   6.660  19.338  0.00  0.00    +0.000 A 
ATOM      6  C   UNL     1       2.795   7.098  18.057  0.00  0.00    +0.000 A 
ATOM      7  C   UNL     1       2.544   8.411  17.648  0.00  0.00    +0.000 A 
ATOM      8  C   UNL     1       1.902   9.298  18.504  0.00  0.00    +0.000 A 
ATOM      9  C   UNL     1       1.474   8.848  19.756  0.00  0.00    +0.000 A 
ATOM     10  C   UNL     1       1.764   7.543  20.186  0.00  0.00    +0.000 A 
BRANCH   9  11
ATOM     11  S   UNL     1       0.602   9.977  20.833  0.00  0.00    +0.000 S 
ATOM     12  O   UNL     1      -0.754   9.483  20.962  0.00  0.00    +0.000 OA
ATOM     13  O   UNL     1       1.433  10.192  21.999  0.00  0.00    +0.000 OA
BRANCH  11  14
ATOM     14  N   UNL     1       0.560  11.441  19.927  0.00  0.00    +0.000 NA
ATOM     15  C   UNL     1      -0.777  11.800  19.381  0.00  0.00    +0.000 C 
ATOM     16  C   UNL     1      -0.712  13.029  18.480  0.00  0.00    +0.000 C 
ATOM     17  C   UNL     1      -0.039  14.194  19.192  0.00  0.00    +0.000 C 
ATOM     18  C   UNL     1       1.362  13.779  19.614  0.00  0.00    +0.000 C 
ATOM     19  C   UNL     1       1.316  12.567  20.535  0.00  0.00    +0.000 C 
ENDBRANCH  11  14
ENDBRANCH   9  11
ENDBRANCH   3   5
BRANCH   2  20
ATOM     20  C   UNL     1       2.629   2.939  20.145  0.00  0.00    +0.000 C 
BRANCH  20  21
ATOM     21  S   UNL     1       4.007   2.096  19.313  0.00  0.00    +0.000 S 
BRANCH  21  22
ATOM     22  C   UNL     1       4.925   3.488  18.825  0.00  0.00    +0.000 A 
ATOM     23  N   UNL     1       4.855   3.996  17.608  0.00  0.00    +0.000 NA
ATOM     24  C   UNL     1       5.792   4.996  17.624  0.00  0.00    +0.000 A 
ATOM     25  C   UNL     1       6.211   5.878  16.622  0.00  0.00    +0.000 A 
ATOM     26  C   UNL     1       7.248   6.771  16.922  0.00  0.00    +0.000 A 
ATOM     27  C   UNL     1       7.838   6.797  18.195  0.00  0.00    +0.000 A 
ATOM     28  C   UNL     1       7.413   5.937  19.213  0.00  0.00    +0.000 A 
ATOM     29  C   UNL     1       6.394   5.060  18.871  0.00  0.00    +0.000 A 
ATOM     30  O   UNL     1       5.818   4.107  19.658  0.00  0.00    +0.000 OA
ENDBRANCH  21  22
ENDBRANCH  20  21
ENDBRANCH   2  20
TORSDOF 6
ENDMDL
MODEL 8
REMARK VINA RESULT:      -7.8      2.137      3.959
REMARK  Name = 
REMARK  6 active torsions:
REMARK  status: ('A' for Active; 'I' for Inactive)
REMARK    1  A    between atoms: C_2  and  C_3
REMARK    2  A    between atoms: C_3  and  S_4
REMARK    3  A    between atoms: S_4  and  C_5
REMARK    4  A    between atoms: N_14  and  C_15
REMARK    5  A    between atoms: C_19  and  S_20
REMARK    6  A    between atoms: S_20  and  N_23
REMARK                            x       y       z     vdW  Elec       q    Type
REMARK                         _______ _______ _______ _____ _____    ______ ____
ROOT
ATOM      1  O   UNL     1       5.523   6.791  18.146  0.00  0.00    +0.000 OA
ATOM      2  C   UNL     1       4.694   6.524  17.276  0.00  0.00    +0.000 C 
ATOM      3  N   UNL     1       3.321   6.710  17.385  0.00  0.00    +0.000 N 
ATOM      4  H   UNL     1       2.747   6.236  16.694  0.00  0.00    +0.000 HD
ENDROOT
BRANCH   3   5
ATOM      5  C   UNL     1       2.634   7.291  18.478  0.00  0.00    +0.000 A 
ATOM      6  C   UNL     1       2.361   6.602  19.665  0.00  0.00    +0.000 A 
ATOM      7  C   UNL     1       1.626   7.199  20.693  0.00  0.00    +0.000 A 
ATOM      8  C   UNL     1       1.183   8.510  20.566  0.00  0.00    +0.000 A 
ATOM      9  C   UNL     1       1.519   9.234  19.419  0.00  0.00    +0.000 A 
ATOM     10  C   UNL     1       2.219   8.625  18.365  0.00  0.00    +0.000 A 
BRANCH   9  11
ATOM     11  S   UNL     1       0.991  10.936  19.282  0.00  0.00    +0.000 S 
ATOM     12  O   UNL     1       1.130  11.533  20.594  0.00  0.00    +0.000 OA
ATOM     13  O   UNL     1       1.658  11.504  18.128  0.00  0.00    +0.000 OA
BRANCH  11  14
ATOM     14  N   UNL     1      -0.687  10.806  18.921  0.00  0.00    +0.000 NA
ATOM     15  C   UNL     1      -1.476  12.046  19.159  0.00  0.00    +0.000 C 
ATOM     16  C   UNL     1      -2.969  11.818  18.949  0.00  0.00    +0.000 C 
ATOM     17  C   UNL     1      -3.243  11.206  17.583  0.00  0.00    +0.000 C 
ATOM     18  C   UNL     1      -2.492   9.887  17.469  0.00  0.00    +0.000 C 
ATOM     19  C   UNL     1      -0.994  10.098  17.650  0.00  0.00    +0.000 C 
ENDBRANCH  11  14
ENDBRANCH   9  11
ENDBRANCH   3   5
BRANCH   2  20
ATOM     20  C   UNL     1       5.136   5.951  15.934  0.00  0.00    +0.000 C 
BRANCH  20  21
ATOM     21  S   UNL     1       5.405   4.157  16.041  0.00  0.00    +0.000 S 
BRANCH  21  22
ATOM     22  C   UNL     1       4.260   3.783  17.294  0.00  0.00    +0.000 A 
ATOM     23  N   UNL     1       4.627   3.484  18.527  0.00  0.00    +0.000 NA
ATOM     24  C   UNL     1       3.445   3.167  19.144  0.00  0.00    +0.000 A 
ATOM     25  C   UNL     1       3.178   2.737  20.449  0.00  0.00    +0.000 A 
ATOM     26  C   UNL     1       1.851   2.429  20.781  0.00  0.00    +0.000 A 
ATOM     27  C   UNL     1       0.817   2.566  19.843  0.00  0.00    +0.000 A 
ATOM     28  C   UNL     1       1.068   3.016  18.542  0.00  0.00    +0.000 A 
ATOM     29  C   UNL     1       2.395   3.298  18.249  0.00  0.00    +0.000 A 
ATOM     30  O   UNL     1       2.913   3.722  17.062  0.00  0.00    +0.000 OA
ENDBRANCH  21  22
ENDBRANCH  20  21
ENDBRANCH   2  20
TORSDOF 6
ENDMDL
MODEL 9
REMARK VINA RESULT:      -7.8      2.645      3.194
REMARK  Name = 
REMARK  6 active torsions:
REMARK  status: ('A' for Active; 'I' for Inactive)
REMARK    1  A    between atoms: C_2  and  C_3
REMARK    2  A    between atoms: C_3  and  S_4
REMARK    3  A    between atoms: S_4  and  C_5
REMARK    4  A    between atoms: N_14  and  C_15
REMARK    5  A    between atoms: C_19  and  S_20
REMARK    6  A    between atoms: S_20  and  N_23
REMARK                            x       y       z     vdW  Elec       q    Type
REMARK                         _______ _______ _______ _____ _____    ______ ____
ROOT
ATOM      1  O   UNL     1       1.960   4.934  17.973  0.00  0.00    +0.000 OA
ATOM      2  C   UNL     1       3.074   5.403  18.210  0.00  0.00    +0.000 C 
ATOM      3  N   UNL     1       3.336   6.722  18.561  0.00  0.00    +0.000 N 
ATOM      4  H   UNL     1       4.304   7.020  18.499  0.00  0.00    +0.000 HD
ENDROOT
BRANCH   3   5
ATOM      5  C   UNL     1       2.378   7.743  18.770  0.00  0.00    +0.000 A 
ATOM      6  C   UNL     1       1.866   8.537  17.738  0.00  0.00    +0.000 A 
ATOM      7  C   UNL     1       0.968   9.575  18.002  0.00  0.00    +0.000 A 
ATOM      8  C   UNL     1       0.537   9.812  19.302  0.00  0.00    +0.000 A 
ATOM      9  C   UNL     1       0.979   8.975  20.330  0.00  0.00    +0.000 A 
ATOM     10  C   UNL     1       1.915   7.960  20.075  0.00  0.00    +0.000 A 
BRANCH   9  11
ATOM     11  S   UNL     1       0.382   9.250  21.992  0.00  0.00    +0.000 S 
ATOM     12  O   UNL     1      -0.658   8.273  22.240  0.00  0.00    +0.000 OA
ATOM     13  O   UNL     1       1.539   9.347  22.857  0.00  0.00    +0.000 OA
BRANCH  11  14
ATOM     14  N   UNL     1      -0.350  10.807  21.900  0.00  0.00    +0.000 NA
ATOM     15  C   UNL     1      -1.341  11.096  22.971  0.00  0.00    +0.000 C 
ATOM     16  C   UNL     1      -2.045  12.431  22.749  0.00  0.00    +0.000 C 
ATOM     17  C   UNL     1      -1.037  13.556  22.567  0.00  0.00    +0.000 C 
ATOM     18  C   UNL     1      -0.139  13.235  21.382  0.00  0.00    +0.000 C 
ATOM     19  C   UNL     1       0.592  11.916  21.596  0.00  0.00    +0.000 C 
ENDBRANCH  11  14
ENDBRANCH   9  11
ENDBRANCH   3   5
BRANCH   2  20
ATOM     20  C   UNL     1       4.316   4.521  18.146  0.00  0.00    +0.000 C 
BRANCH  20  21
ATOM     21  S   UNL     1       5.814   5.515  17.880  0.00  0.00    +0.000 S 
BRANCH  21  22
ATOM     22  C   UNL     1       6.180   5.030  16.253  0.00  0.00    +0.000 A 
ATOM     23  N   UNL     1       7.203   5.520  15.577  0.00  0.00    +0.000 NA
ATOM     24  C   UNL     1       7.066   4.956  14.335  0.00  0.00    +0.000 A 
ATOM     25  C   UNL     1       7.823   5.110  13.168  0.00  0.00    +0.000 A 
ATOM     26  C   UNL     1       7.398   4.437  12.015  0.00  0.00    +0.000 A 
ATOM     27  C   UNL     1       6.261   3.616  12.030  0.00  0.00    +0.000 A 
ATOM     28  C   UNL     1       5.508   3.435  13.196  0.00  0.00    +0.000 A 
ATOM     29  C   UNL     1       5.954   4.129  14.312  0.00  0.00    +0.000 A 
ATOM     30  O   UNL     1       5.395   4.152  15.555  0.00  0.00    +0.000 OA
ENDBRANCH  21  22
ENDBRANCH  20  21
ENDBRANCH   2  20
TORSDOF 6
ENDMDL
