MODEL 1
REMARK VINA RESULT:      -8.3      0.000      0.000
REMARK  Name = 
REMARK  8 active torsions:
REMARK  status: ('A' for Active; 'I' for Inactive)
REMARK    1  A    between atoms: C_1  and  C_2
REMARK    2  A    between atoms: C_4  and  C_5
REMARK    3  A    between atoms: N_7  and  C_8
REMARK    4  A    between atoms: C_8  and  C_9
REMARK    5  A    between atoms: C_9  and  O_10
REMARK    6  A    between atoms: O_10  and  C_11
REMARK    7  A    between atoms: C_22  and  C_23
REMARK    8  A    between atoms: N_25  and  C_26
REMARK                            x       y       z     vdW  Elec       q    Type
REMARK                         _______ _______ _______ _____ _____    ______ ____
ROOT
ATOM      1  C   UNL     1      -1.065  11.052  19.422  0.00  0.00    +0.000 C 
ATOM      2  O   UNL     1      -0.544  12.123  19.762  0.00  0.00    +0.000 OA
ATOM      3  N   UNL     1      -0.581   9.848  19.900  0.00  0.00    +0.000 N 
ATOM      4  H   UNL     1      -1.094   8.986  19.770  0.00  0.00    +0.000 HD
ENDROOT
BRANCH   1   8
ATOM      5  C   UNL     1      -2.927   9.892  14.902  0.00  0.00    +0.000 C 
ATOM      6  C   UNL     1      -3.094  10.515  16.261  0.00  0.00    +0.000 A 
ATOM      7  C   UNL     1      -2.055  10.461  17.189  0.00  0.00    +0.000 A 
ATOM      8  C   UNL     1      -2.201  11.050  18.463  0.00  0.00    +0.000 A 
ATOM      9  C   UNL     1      -3.436  11.696  18.741  0.00  0.00    +0.000 A 
ATOM     10  C   UNL     1      -4.107  12.409  19.796  0.00  0.00    +0.000 A 
ATOM     11  C   UNL     1      -3.712  12.775  21.181  0.00  0.00    +0.000 C 
ATOM     12  N   UNL     1      -5.340  12.800  19.433  0.00  0.00    +0.000 NA
ATOM     13  N   UNL     1      -5.477  12.353  18.179  0.00  0.00    +0.000 N 
ATOM     14  C   UNL     1      -6.707  12.608  17.471  0.00  0.00    +0.000 C 
ATOM     15  C   UNL     1      -4.386  11.677  17.715  0.00  0.00    +0.000 A 
ATOM     16  N   UNL     1      -4.279  11.114  16.493  0.00  0.00    +0.000 NA
ENDBRANCH   1   8
BRANCH   3  17
ATOM     17  C   UNL     1       0.545   9.847  20.829  0.00  0.00    +0.000 C 
BRANCH  17  18
ATOM     18  C   UNL     1       1.382   8.579  20.726  0.00  0.00    +0.000 C 
BRANCH  18  19
ATOM     19  O   UNL     1       1.939   8.478  19.415  0.00  0.00    +0.000 OA
BRANCH  19  20
ATOM     20  C   UNL     1       2.306   7.199  19.095  0.00  0.00    +0.000 A 
ATOM     21  C   UNL     1       3.256   7.069  18.094  0.00  0.00    +0.000 A 
ATOM     22  C   UNL     1       3.613   5.806  17.630  0.00  0.00    +0.000 A 
ATOM     23  C   UNL     1       2.943   4.674  18.118  0.00  0.00    +0.000 A 
ATOM     24  C   UNL     1       3.103   3.448  17.460  0.00  0.00    +0.000 A 
ATOM     25  C   UNL     1       2.311   2.363  17.819  0.00  0.00    +0.000 A 
ATOM     26  C   UNL     1       1.530   2.414  18.963  0.00  0.00    +0.000 A 
ATOM     27  C   UNL     1       1.383   3.622  19.652  0.00  0.00    +0.000 A 
ATOM     28  C   UNL     1       2.026   4.782  19.175  0.00  0.00    +0.000 A 
ATOM     29  C   UNL     1       1.714   6.061  19.667  0.00  0.00    +0.000 A 
ENDBRANCH  19  20
ENDBRANCH  18  19
ENDBRANCH  17  18
ENDBRANCH   3  17
TORSDOF 5
ENDMDL
MODEL 2
REMARK VINA RESULT:      -8.3      1.117      1.158
REMARK  Name = 
REMARK  8 active torsions:
REMARK  status: ('A' for Active; 'I' for Inactive)
REMARK    1  A    between atoms: C_1  and  C_2
REMARK    2  A    between atoms: C_4  and  C_5
REMARK    3  A    between atoms: N_7  and  C_8
REMARK    4  A    between atoms: C_8  and  C_9
REMARK    5  A    between atoms: C_9  and  O_10
REMARK    6  A    between atoms: O_10  and  C_11
REMARK    7  A    between atoms: C_22  and  C_23
REMARK    8  A    between atoms: N_25  and  C_26
REMARK                            x       y       z     vdW  Elec       q    Type
REMARK                         _______ _______ _______ _____ _____    ______ ____
ROOT
ATOM      1  C   UNL     1      -0.957  10.447  18.514  0.00  0.00    +0.000 C 
ATOM      2  O   UNL     1      -0.996  10.148  19.715  0.00  0.00    +0.000 OA
ATOM      3  N   UNL     1       0.253  10.590  17.859  0.00  0.00    +0.000 N 
ATOM      4  H   UNL     1       0.300  10.664  16.851  0.00  0.00    +0.000 HD
ENDROOT
BRANCH   1   8
ATOM      5  C   UNL     1      -3.682   9.976  14.319  0.00  0.00    +0.000 C 
ATOM      6  C   UNL     1      -3.530  10.489  15.725  0.00  0.00    +0.000 A 
ATOM      7  C   UNL     1      -2.375  10.206  16.453  0.00  0.00    +0.000 A 
ATOM      8  C   UNL     1      -2.220  10.691  17.769  0.00  0.00    +0.000 A 
ATOM      9  C   UNL     1      -3.280  11.475  18.300  0.00  0.00    +0.000 A 
ATOM     10  C   UNL     1      -3.655  12.176  19.500  0.00  0.00    +0.000 A 
ATOM     11  C   UNL     1      -2.989  12.356  20.817  0.00  0.00    +0.000 C 
ATOM     12  N   UNL     1      -4.856  12.767  19.383  0.00  0.00    +0.000 NA
ATOM     13  N   UNL     1      -5.261  12.460  18.145  0.00  0.00    +0.000 N 
ATOM     14  C   UNL     1      -6.536  12.948  17.680  0.00  0.00    +0.000 C 
ATOM     15  C   UNL     1      -4.375  11.683  17.455  0.00  0.00    +0.000 A 
ATOM     16  N   UNL     1      -4.556  11.225  16.199  0.00  0.00    +0.000 NA
ENDBRANCH   1   8
BRANCH   3  17
ATOM     17  C   UNL     1       1.494  10.366  18.593  0.00  0.00    +0.000 C 
BRANCH  17  18
ATOM     18  C   UNL     1       1.785   8.886  18.806  0.00  0.00    +0.000 C 
BRANCH  18  19
ATOM     19  O   UNL     1       2.872   8.487  17.971  0.00  0.00    +0.000 OA
BRANCH  19  20
ATOM     20  C   UNL     1       3.091   7.136  18.001  0.00  0.00    +0.000 A 
ATOM     21  C   UNL     1       4.232   6.689  17.353  0.00  0.00    +0.000 A 
ATOM     22  C   UNL     1       4.482   5.324  17.241  0.00  0.00    +0.000 A 
ATOM     23  C   UNL     1       3.530   4.405  17.708  0.00  0.00    +0.000 A 
ATOM     24  C   UNL     1       3.648   3.056  17.351  0.00  0.00    +0.000 A 
ATOM     25  C   UNL     1       2.621   2.169  17.652  0.00  0.00    +0.000 A 
ATOM     26  C   UNL     1       1.590   2.552  18.497  0.00  0.00    +0.000 A 
ATOM     27  C   UNL     1       1.473   3.889  18.889  0.00  0.00    +0.000 A 
ATOM     28  C   UNL     1       2.401   4.840  18.421  0.00  0.00    +0.000 A 
ATOM     29  C   UNL     1       2.190   6.221  18.570  0.00  0.00    +0.000 A 
ENDBRANCH  19  20
ENDBRANCH  18  19
ENDBRANCH  17  18
ENDBRANCH   3  17
TORSDOF 5
ENDMDL
MODEL 3
REMARK VINA RESULT:      -8.2      1.074      1.154
REMARK  Name = 
REMARK  8 active torsions:
REMARK  status: ('A' for Active; 'I' for Inactive)
REMARK    1  A    between atoms: C_1  and  C_2
REMARK    2  A    between atoms: C_4  and  C_5
REMARK    3  A    between atoms: N_7  and  C_8
REMARK    4  A    between atoms: C_8  and  C_9
REMARK    5  A    between atoms: C_9  and  O_10
REMARK    6  A    between atoms: O_10  and  C_11
REMARK    7  A    between atoms: C_22  and  C_23
REMARK    8  A    between atoms: N_25  and  C_26
REMARK                            x       y       z     vdW  Elec       q    Type
REMARK                         _______ _______ _______ _____ _____    ______ ____
ROOT
ATOM      1  C   UNL     1      -1.031  10.765  18.684  0.00  0.00    +0.000 C 
ATOM      2  O   UNL     1      -1.027  10.576  19.909  0.00  0.00    +0.000 OA
ATOM      3  N   UNL     1       0.155  10.871  17.982  0.00  0.00    +0.000 N 
ATOM      4  H   UNL     1       0.171  10.854  16.970  0.00  0.00    +0.000 HD
ENDROOT
BRANCH   1   8
ATOM      5  C   UNL     1      -3.782  10.095  14.533  0.00  0.00    +0.000 C 
ATOM      6  C   UNL     1      -3.645  10.617  15.938  0.00  0.00    +0.000 A 
ATOM      7  C   UNL     1      -2.460  10.421  16.646  0.00  0.00    +0.000 A 
ATOM      8  C   UNL     1      -2.321  10.915  17.961  0.00  0.00    +0.000 A 
ATOM      9  C   UNL     1      -3.427  11.618  18.509  0.00  0.00    +0.000 A 
ATOM     10  C   UNL     1      -3.833  12.289  19.717  0.00  0.00    +0.000 A 
ATOM     11  C   UNL     1      -3.161  12.516  21.023  0.00  0.00    +0.000 C 
ATOM     12  N   UNL     1      -5.076  12.789  19.620  0.00  0.00    +0.000 NA
ATOM     13  N   UNL     1      -5.478  12.453  18.389  0.00  0.00    +0.000 N 
ATOM     14  C   UNL     1      -6.792  12.845  17.946  0.00  0.00    +0.000 C 
ATOM     15  C   UNL     1      -4.548  11.744  17.683  0.00  0.00    +0.000 A 
ATOM     16  N   UNL     1      -4.715  11.275  16.429  0.00  0.00    +0.000 NA
ENDBRANCH   1   8
BRANCH   3  17
ATOM     17  C   UNL     1       1.423  10.740  18.694  0.00  0.00    +0.000 C 
BRANCH  17  18
ATOM     18  C   UNL     1       2.030   9.350  18.548  0.00  0.00    +0.000 C 
BRANCH  18  19
ATOM     19  O   UNL     1       1.688   8.557  19.685  0.00  0.00    +0.000 OA
BRANCH  19  20
ATOM     20  C   UNL     1       1.980   7.231  19.509  0.00  0.00    +0.000 A 
ATOM     21  C   UNL     1       2.504   6.881  18.274  0.00  0.00    +0.000 A 
ATOM     22  C   UNL     1       2.733   5.542  17.968  0.00  0.00    +0.000 A 
ATOM     23  C   UNL     1       2.348   4.547  18.880  0.00  0.00    +0.000 A 
ATOM     24  C   UNL     1       2.321   3.211  18.463  0.00  0.00    +0.000 A 
ATOM     25  C   UNL     1       1.773   2.239  19.293  0.00  0.00    +0.000 A 
ATOM     26  C   UNL     1       1.463   2.538  20.611  0.00  0.00    +0.000 A 
ATOM     27  C   UNL     1       1.513   3.863  21.054  0.00  0.00    +0.000 A 
ATOM     28  C   UNL     1       1.877   4.887  20.157  0.00  0.00    +0.000 A 
ATOM     29  C   UNL     1       1.699   6.246  20.469  0.00  0.00    +0.000 A 
ENDBRANCH  19  20
ENDBRANCH  18  19
ENDBRANCH  17  18
ENDBRANCH   3  17
TORSDOF 5
ENDMDL
MODEL 4
REMARK VINA RESULT:      -8.2      1.348      3.073
REMARK  Name = 
REMARK  8 active torsions:
REMARK  status: ('A' for Active; 'I' for Inactive)
REMARK    1  A    between atoms: C_1  and  C_2
REMARK    2  A    between atoms: C_4  and  C_5
REMARK    3  A    between atoms: N_7  and  C_8
REMARK    4  A    between atoms: C_8  and  C_9
REMARK    5  A    between atoms: C_9  and  O_10
REMARK    6  A    between atoms: O_10  and  C_11
REMARK    7  A    between atoms: C_22  and  C_23
REMARK    8  A    between atoms: N_25  and  C_26
REMARK                            x       y       z     vdW  Elec       q    Type
REMARK                         _______ _______ _______ _____ _____    ______ ____
ROOT
ATOM      1  C   UNL     1      -0.267  10.863  19.408  0.00  0.00    +0.000 C 
ATOM      2  O   UNL     1       0.063   9.989  20.221  0.00  0.00    +0.000 OA
ATOM      3  N   UNL     1       0.584  11.230  18.381  0.00  0.00    +0.000 N 
ATOM      4  H   UNL     1       0.266  11.811  17.616  0.00  0.00    +0.000 HD
ENDROOT
BRANCH   1   8
ATOM      5  C   UNL     1      -3.345  13.833  22.043  0.00  0.00    +0.000 C 
ATOM      6  C   UNL     1      -3.080  12.969  20.841  0.00  0.00    +0.000 A 
ATOM      7  C   UNL     1      -1.831  12.372  20.669  0.00  0.00    +0.000 A 
ATOM      8  C   UNL     1      -1.576  11.553  19.549  0.00  0.00    +0.000 A 
ATOM      9  C   UNL     1      -2.642  11.364  18.628  0.00  0.00    +0.000 A 
ATOM     10  C   UNL     1      -2.939  10.691  17.391  0.00  0.00    +0.000 A 
ATOM     11  C   UNL     1      -2.129   9.837  16.483  0.00  0.00    +0.000 C 
ATOM     12  N   UNL     1      -4.205  10.905  16.993  0.00  0.00    +0.000 NA
ATOM     13  N   UNL     1      -4.722  11.698  17.938  0.00  0.00    +0.000 N 
ATOM     14  C   UNL     1      -6.094  12.126  17.823  0.00  0.00    +0.000 C 
ATOM     15  C   UNL     1      -3.840  12.019  18.930  0.00  0.00    +0.000 A 
ATOM     16  N   UNL     1      -4.110  12.815  19.985  0.00  0.00    +0.000 NA
ENDBRANCH   1   8
BRANCH   3  17
ATOM     17  C   UNL     1       1.876  10.564  18.250  0.00  0.00    +0.000 C 
BRANCH  17  18
ATOM     18  C   UNL     1       1.746   9.144  17.714  0.00  0.00    +0.000 C 
BRANCH  18  19
ATOM     19  O   UNL     1       2.799   8.336  18.240  0.00  0.00    +0.000 OA
BRANCH  19  20
ATOM     20  C   UNL     1       2.350   7.138  18.728  0.00  0.00    +0.000 A 
ATOM     21  C   UNL     1       2.073   7.098  20.085  0.00  0.00    +0.000 A 
ATOM     22  C   UNL     1       1.712   5.896  20.689  0.00  0.00    +0.000 A 
ATOM     23  C   UNL     1       1.718   4.713  19.935  0.00  0.00    +0.000 A 
ATOM     24  C   UNL     1       1.629   3.481  20.593  0.00  0.00    +0.000 A 
ATOM     25  C   UNL     1       1.814   2.301  19.881  0.00  0.00    +0.000 A 
ATOM     26  C   UNL     1       1.859   2.320  18.495  0.00  0.00    +0.000 A 
ATOM     27  C   UNL     1       1.917   3.541  17.818  0.00  0.00    +0.000 A 
ATOM     28  C   UNL     1       1.934   4.746  18.548  0.00  0.00    +0.000 A 
ATOM     29  C   UNL     1       2.247   5.977  17.945  0.00  0.00    +0.000 A 
ENDBRANCH  19  20
ENDBRANCH  18  19
ENDBRANCH  17  18
ENDBRANCH   3  17
TORSDOF 5
ENDMDL
MODEL 5
REMARK VINA RESULT:      -8.2      6.787     10.738
REMARK  Name = 
REMARK  8 active torsions:
REMARK  status: ('A' for Active; 'I' for Inactive)
REMARK    1  A    between atoms: C_1  and  C_2
REMARK    2  A    between atoms: C_4  and  C_5
REMARK    3  A    between atoms: N_7  and  C_8
REMARK    4  A    between atoms: C_8  and  C_9
REMARK    5  A    between atoms: C_9  and  O_10
REMARK    6  A    between atoms: O_10  and  C_11
REMARK    7  A    between atoms: C_22  and  C_23
REMARK    8  A    between atoms: N_25  and  C_26
REMARK                            x       y       z     vdW  Elec       q    Type
REMARK                         _______ _______ _______ _____ _____    ______ ____
ROOT
ATOM      1  C   UNL     1       5.545   6.892  17.174  0.00  0.00    +0.000 C 
ATOM      2  O   UNL     1       5.604   6.961  15.939  0.00  0.00    +0.000 OA
ATOM      3  N   UNL     1       6.597   7.332  17.957  0.00  0.00    +0.000 N 
ATOM      4  H   UNL     1       6.498   7.440  18.958  0.00  0.00    +0.000 HD
ENDROOT
BRANCH   1   8
ATOM      5  C   UNL     1       1.654   7.336  20.321  0.00  0.00    +0.000 C 
ATOM      6  C   UNL     1       2.480   6.505  19.378  0.00  0.00    +0.000 A 
ATOM      7  C   UNL     1       3.564   7.074  18.709  0.00  0.00    +0.000 A 
ATOM      8  C   UNL     1       4.350   6.300  17.829  0.00  0.00    +0.000 A 
ATOM      9  C   UNL     1       3.990   4.934  17.671  0.00  0.00    +0.000 A 
ATOM     10  C   UNL     1       4.391   3.753  16.953  0.00  0.00    +0.000 A 
ATOM     11  C   UNL     1       5.469   3.486  15.964  0.00  0.00    +0.000 C 
ATOM     12  N   UNL     1       3.611   2.698  17.244  0.00  0.00    +0.000 NA
ATOM     13  N   UNL     1       2.721   3.173  18.123  0.00  0.00    +0.000 N 
ATOM     14  C   UNL     1       1.717   2.286  18.657  0.00  0.00    +0.000 C 
ATOM     15  C   UNL     1       2.884   4.498  18.408  0.00  0.00    +0.000 A 
ATOM     16  N   UNL     1       2.109   5.216  19.247  0.00  0.00    +0.000 NA
ENDBRANCH   1   8
BRANCH   3  17
ATOM     17  C   UNL     1       7.779   7.899  17.315  0.00  0.00    +0.000 C 
BRANCH  17  18
ATOM     18  C   UNL     1       8.041   9.336  17.747  0.00  0.00    +0.000 C 
BRANCH  18  19
ATOM     19  O   UNL     1       8.762   9.342  18.979  0.00  0.00    +0.000 OA
BRANCH  19  20
ATOM     20  C   UNL     1       9.555  10.449  19.120  0.00  0.00    +0.000 A 
ATOM     21  C   UNL     1       9.692  10.941  20.409  0.00  0.00    +0.000 A 
ATOM     22  C   UNL     1      10.392  12.123  20.634  0.00  0.00    +0.000 A 
ATOM     23  C   UNL     1      10.882  12.857  19.543  0.00  0.00    +0.000 A 
ATOM     24  C   UNL     1      11.335  14.166  19.748  0.00  0.00    +0.000 A 
ATOM     25  C   UNL     1      11.652  14.966  18.655  0.00  0.00    +0.000 A 
ATOM     26  C   UNL     1      11.742  14.414  17.386  0.00  0.00    +0.000 A 
ATOM     27  C   UNL     1      11.323  13.099  17.168  0.00  0.00    +0.000 A 
ATOM     28  C   UNL     1      10.808  12.342  18.240  0.00  0.00    +0.000 A 
ATOM     29  C   UNL     1      10.141  11.121  18.035  0.00  0.00    +0.000 A 
ENDBRANCH  19  20
ENDBRANCH  18  19
ENDBRANCH  17  18
ENDBRANCH   3  17
TORSDOF 5
ENDMDL
MODEL 6
REMARK VINA RESULT:      -8.2      0.781      1.545
REMARK  Name = 
REMARK  8 active torsions:
REMARK  status: ('A' for Active; 'I' for Inactive)
REMARK    1  A    between atoms: C_1  and  C_2
REMARK    2  A    between atoms: C_4  and  C_5
REMARK    3  A    between atoms: N_7  and  C_8
REMARK    4  A    between atoms: C_8  and  C_9
REMARK    5  A    between atoms: C_9  and  O_10
REMARK    6  A    between atoms: O_10  and  C_11
REMARK    7  A    between atoms: C_22  and  C_23
REMARK    8  A    between atoms: N_25  and  C_26
REMARK                            x       y       z     vdW  Elec       q    Type
REMARK                         _______ _______ _______ _____ _____    ______ ____
ROOT
ATOM      1  C   UNL     1      -0.912  10.893  18.753  0.00  0.00    +0.000 C 
ATOM      2  O   UNL     1       0.056  11.610  18.468  0.00  0.00    +0.000 OA
ATOM      3  N   UNL     1      -0.846  10.002  19.809  0.00  0.00    +0.000 N 
ATOM      4  H   UNL     1      -1.674   9.538  20.159  0.00  0.00    +0.000 HD
ENDROOT
BRANCH   1   8
ATOM      5  C   UNL     1      -3.313  10.017  14.427  0.00  0.00    +0.000 C 
ATOM      6  C   UNL     1      -3.308  10.564  15.829  0.00  0.00    +0.000 A 
ATOM      7  C   UNL     1      -2.169  10.443  16.624  0.00  0.00    +0.000 A 
ATOM      8  C   UNL     1      -2.152  10.961  17.937  0.00  0.00    +0.000 A 
ATOM      9  C   UNL     1      -3.334  11.606  18.394  0.00  0.00    +0.000 A 
ATOM     10  C   UNL     1      -3.862  12.267  19.558  0.00  0.00    +0.000 A 
ATOM     11  C   UNL     1      -3.300  12.548  20.905  0.00  0.00    +0.000 C 
ATOM     12  N   UNL     1      -5.122  12.694  19.365  0.00  0.00    +0.000 NA
ATOM     13  N   UNL     1      -5.413  12.321  18.113  0.00  0.00    +0.000 N 
ATOM     14  C   UNL     1      -6.712  12.632  17.571  0.00  0.00    +0.000 C 
ATOM     15  C   UNL     1      -4.397  11.658  17.487  0.00  0.00    +0.000 A 
ATOM     16  N   UNL     1      -4.446  11.165  16.232  0.00  0.00    +0.000 NA
ENDBRANCH   1   8
BRANCH   3  17
ATOM     17  C   UNL     1       0.377   9.923  20.602  0.00  0.00    +0.000 C 
BRANCH  17  18
ATOM     18  C   UNL     1       0.720   8.493  21.000  0.00  0.00    +0.000 C 
BRANCH  18  19
ATOM     19  O   UNL     1       2.033   8.171  20.543  0.00  0.00    +0.000 OA
BRANCH  19  20
ATOM     20  C   UNL     1       2.105   6.924  19.983  0.00  0.00    +0.000 A 
ATOM     21  C   UNL     1       1.472   5.905  20.679  0.00  0.00    +0.000 A 
ATOM     22  C   UNL     1       1.581   4.588  20.242  0.00  0.00    +0.000 A 
ATOM     23  C   UNL     1       2.404   4.288  19.146  0.00  0.00    +0.000 A 
ATOM     24  C   UNL     1       2.731   2.953  18.881  0.00  0.00    +0.000 A 
ATOM     25  C   UNL     1       3.685   2.653  17.915  0.00  0.00    +0.000 A 
ATOM     26  C   UNL     1       4.148   3.640  17.058  0.00  0.00    +0.000 A 
ATOM     27  C   UNL     1       3.808   4.976  17.288  0.00  0.00    +0.000 A 
ATOM     28  C   UNL     1       2.999   5.313  18.392  0.00  0.00    +0.000 A 
ATOM     29  C   UNL     1       2.837   6.642  18.819  0.00  0.00    +0.000 A 
ENDBRANCH  19  20
ENDBRANCH  18  19
ENDBRANCH  17  18
ENDBRANCH   3  17
TORSDOF 5
ENDMDL
MODEL 7
REMARK VINA RESULT:      -8.1      4.022      6.085
REMARK  Name = 
REMARK  8 active torsions:
REMARK  status: ('A' for Active; 'I' for Inactive)
REMARK    1  A    between atoms: C_1  and  C_2
REMARK    2  A    between atoms: C_4  and  C_5
REMARK    3  A    between atoms: N_7  and  C_8
REMARK    4  A    between atoms: C_8  and  C_9
REMARK    5  A    between atoms: C_9  and  O_10
REMARK    6  A    between atoms: O_10  and  C_11
REMARK    7  A    between atoms: C_22  and  C_23
REMARK    8  A    between atoms: N_25  and  C_26
REMARK                            x       y       z     vdW  Elec       q    Type
REMARK                         _______ _______ _______ _____ _____    ______ ____
ROOT
ATOM      1  C   UNL     1       1.890   6.228  20.412  0.00  0.00    +0.000 C 
ATOM      2  O   UNL     1       3.061   5.975  20.095  0.00  0.00    +0.000 OA
ATOM      3  N   UNL     1       0.969   5.212  20.586  0.00  0.00    +0.000 N 
ATOM      4  H   UNL     1       0.066   5.387  21.007  0.00  0.00    +0.000 HD
ENDROOT
BRANCH   1   8
ATOM      5  C   UNL     1      -0.406   9.774  23.132  0.00  0.00    +0.000 C 
ATOM      6  C   UNL     1       0.315   9.353  21.881  0.00  0.00    +0.000 A 
ATOM      7  C   UNL     1       0.785   8.046  21.749  0.00  0.00    +0.000 A 
ATOM      8  C   UNL     1       1.455   7.640  20.575  0.00  0.00    +0.000 A 
ATOM      9  C   UNL     1       1.613   8.612  19.550  0.00  0.00    +0.000 A 
ATOM     10  C   UNL     1       2.179   8.762  18.236  0.00  0.00    +0.000 A 
ATOM     11  C   UNL     1       2.923   7.835  17.342  0.00  0.00    +0.000 C 
ATOM     12  N   UNL     1       1.995  10.000  17.747  0.00  0.00    +0.000 NA
ATOM     13  N   UNL     1       1.332  10.646  18.713  0.00  0.00    +0.000 N 
ATOM     14  C   UNL     1       0.963  12.025  18.513  0.00  0.00    +0.000 C 
ATOM     15  C   UNL     1       1.086   9.880  19.817  0.00  0.00    +0.000 A 
ATOM     16  N   UNL     1       0.452  10.300  20.931  0.00  0.00    +0.000 NA
ENDBRANCH   1   8
BRANCH   3  17
ATOM     17  C   UNL     1       1.391   3.826  20.410  0.00  0.00    +0.000 C 
BRANCH  17  18
ATOM     18  C   UNL     1       1.075   3.295  19.018  0.00  0.00    +0.000 C 
BRANCH  18  19
ATOM     19  O   UNL     1       2.083   2.365  18.620  0.00  0.00    +0.000 OA
BRANCH  19  20
ATOM     20  C   UNL     1       3.282   2.969  18.354  0.00  0.00    +0.000 A 
ATOM     21  C   UNL     1       4.220   2.938  19.374  0.00  0.00    +0.000 A 
ATOM     22  C   UNL     1       5.427   3.617  19.233  0.00  0.00    +0.000 A 
ATOM     23  C   UNL     1       5.651   4.403  18.092  0.00  0.00    +0.000 A 
ATOM     24  C   UNL     1       6.730   5.295  18.077  0.00  0.00    +0.000 A 
ATOM     25  C   UNL     1       6.859   6.206  17.035  0.00  0.00    +0.000 A 
ATOM     26  C   UNL     1       6.067   6.092  15.903  0.00  0.00    +0.000 A 
ATOM     27  C   UNL     1       5.003   5.184  15.887  0.00  0.00    +0.000 A 
ATOM     28  C   UNL     1       4.740   4.395  17.024  0.00  0.00    +0.000 A 
ATOM     29  C   UNL     1       3.548   3.663  17.162  0.00  0.00    +0.000 A 
ENDBRANCH  19  20
ENDBRANCH  18  19
ENDBRANCH  17  18
ENDBRANCH   3  17
TORSDOF 5
ENDMDL
MODEL 8
REMARK VINA RESULT:      -8.0      0.958      2.734
REMARK  Name = 
REMARK  8 active torsions:
REMARK  status: ('A' for Active; 'I' for Inactive)
REMARK    1  A    between atoms: C_1  and  C_2
REMARK    2  A    between atoms: C_4  and  C_5
REMARK    3  A    between atoms: N_7  and  C_8
REMARK    4  A    between atoms: C_8  and  C_9
REMARK    5  A    between atoms: C_9  and  O_10
REMARK    6  A    between atoms: O_10  and  C_11
REMARK    7  A    between atoms: C_22  and  C_23
REMARK    8  A    between atoms: N_25  and  C_26
REMARK                            x       y       z     vdW  Elec       q    Type
REMARK                         _______ _______ _______ _____ _____    ______ ____
ROOT
ATOM      1  C   UNL     1      -1.223  11.744  19.702  0.00  0.00    +0.000 C 
ATOM      2  O   UNL     1      -0.481  12.204  18.822  0.00  0.00    +0.000 OA
ATOM      3  N   UNL     1      -0.753  10.807  20.603  0.00  0.00    +0.000 N 
ATOM      4  H   UNL     1      -1.287  10.552  21.424  0.00  0.00    +0.000 HD
ENDROOT
BRANCH   1   8
ATOM      5  C   UNL     1      -4.999  13.831  22.277  0.00  0.00    +0.000 C 
ATOM      6  C   UNL     1      -4.482  13.159  21.034  0.00  0.00    +0.000 A 
ATOM      7  C   UNL     1      -3.135  12.813  20.933  0.00  0.00    +0.000 A 
ATOM      8  C   UNL     1      -2.644  12.175  19.775  0.00  0.00    +0.000 A 
ATOM      9  C   UNL     1      -3.579  11.900  18.740  0.00  0.00    +0.000 A 
ATOM     10  C   UNL     1      -3.646  11.321  17.424  0.00  0.00    +0.000 A 
ATOM     11  C   UNL     1      -2.621  10.723  16.528  0.00  0.00    +0.000 C 
ATOM     12  N   UNL     1      -4.893  11.349  16.925  0.00  0.00    +0.000 NA
ATOM     13  N   UNL     1      -5.623  11.934  17.882  0.00  0.00    +0.000 N 
ATOM     14  C   UNL     1      -7.036  12.124  17.672  0.00  0.00    +0.000 C 
ATOM     15  C   UNL     1      -4.898  12.298  18.980  0.00  0.00    +0.000 A 
ATOM     16  N   UNL     1      -5.394  12.918  20.071  0.00  0.00    +0.000 NA
ENDBRANCH   1   8
BRANCH   3  17
ATOM     17  C   UNL     1       0.638  10.371  20.523  0.00  0.00    +0.000 C 
BRANCH  17  18
ATOM     18  C   UNL     1       0.784   8.863  20.681  0.00  0.00    +0.000 C 
BRANCH  18  19
ATOM     19  O   UNL     1       2.106   8.469  20.313  0.00  0.00    +0.000 OA
BRANCH  19  20
ATOM     20  C   UNL     1       2.163   7.184  19.845  0.00  0.00    +0.000 A 
ATOM     21  C   UNL     1       2.557   7.033  18.525  0.00  0.00    +0.000 A 
ATOM     22  C   UNL     1       2.542   5.773  17.932  0.00  0.00    +0.000 A 
ATOM     23  C   UNL     1       2.044   4.676  18.650  0.00  0.00    +0.000 A 
ATOM     24  C   UNL     1       1.772   3.481  17.971  0.00  0.00    +0.000 A 
ATOM     25  C   UNL     1       1.112   2.449  18.628  0.00  0.00    +0.000 A 
ATOM     26  C   UNL     1       0.923   2.499  20.001  0.00  0.00    +0.000 A 
ATOM     27  C   UNL     1       1.218   3.673  20.700  0.00  0.00    +0.000 A 
ATOM     28  C   UNL     1       1.701   4.800  20.005  0.00  0.00    +0.000 A 
ATOM     29  C   UNL     1       1.770   6.070  20.603  0.00  0.00    +0.000 A 
ENDBRANCH  19  20
ENDBRANCH  18  19
ENDBRANCH  17  18
ENDBRANCH   3  17
TORSDOF 5
ENDMDL
MODEL 9
REMARK VINA RESULT:      -8.0      4.302      6.810
REMARK  Name = 
REMARK  8 active torsions:
REMARK  status: ('A' for Active; 'I' for Inactive)
REMARK    1  A    between atoms: C_1  and  C_2
REMARK    2  A    between atoms: C_4  and  C_5
REMARK    3  A    between atoms: N_7  and  C_8
REMARK    4  A    between atoms: C_8  and  C_9
REMARK    5  A    between atoms: C_9  and  O_10
REMARK    6  A    between atoms: O_10  and  C_11
REMARK    7  A    between atoms: C_22  and  C_23
REMARK    8  A    between atoms: N_25  and  C_26
REMARK                            x       y       z     vdW  Elec       q    Type
REMARK                         _______ _______ _______ _____ _____    ______ ____
ROOT
ATOM      1  C   UNL     1       2.053   5.859  20.176  0.00  0.00    +0.000 C 
ATOM      2  O   UNL     1       1.211   4.954  20.102  0.00  0.00    +0.000 OA
ATOM      3  N   UNL     1       3.405   5.572  20.124  0.00  0.00    +0.000 N 
ATOM      4  H   UNL     1       4.095   6.303  20.012  0.00  0.00    +0.000 HD
ENDROOT
BRANCH   1   8
ATOM      5  C   UNL     1      -0.356   9.342  22.880  0.00  0.00    +0.000 C 
ATOM      6  C   UNL     1       0.422   8.950  21.653  0.00  0.00    +0.000 A 
ATOM      7  C   UNL     1       0.893   7.646  21.509  0.00  0.00    +0.000 A 
ATOM      8  C   UNL     1       1.616   7.268  20.358  0.00  0.00    +0.000 A 
ATOM      9  C   UNL     1       1.827   8.266  19.368  0.00  0.00    +0.000 A 
ATOM     10  C   UNL     1       2.456   8.448  18.086  0.00  0.00    +0.000 A 
ATOM     11  C   UNL     1       3.238   7.542  17.204  0.00  0.00    +0.000 C 
ATOM     12  N   UNL     1       2.300   9.700  17.623  0.00  0.00    +0.000 NA
ATOM     13  N   UNL     1       1.594  10.323  18.574  0.00  0.00    +0.000 N 
ATOM     14  C   UNL     1       1.240  11.709  18.394  0.00  0.00    +0.000 C 
ATOM     15  C   UNL     1       1.293   9.529  19.644  0.00  0.00    +0.000 A 
ATOM     16  N   UNL     1       0.608   9.922  20.737  0.00  0.00    +0.000 NA
ENDBRANCH   1   8
BRANCH   3  17
ATOM     17  C   UNL     1       3.837   4.187  19.962  0.00  0.00    +0.000 C 
BRANCH  17  18
ATOM     18  C   UNL     1       4.947   4.042  18.929  0.00  0.00    +0.000 C 
BRANCH  18  19
ATOM     19  O   UNL     1       4.378   3.981  17.621  0.00  0.00    +0.000 OA
BRANCH  19  20
ATOM     20  C   UNL     1       5.307   4.172  16.633  0.00  0.00    +0.000 A 
ATOM     21  C   UNL     1       6.323   5.072  16.917  0.00  0.00    +0.000 A 
ATOM     22  C   UNL     1       7.251   5.408  15.935  0.00  0.00    +0.000 A 
ATOM     23  C   UNL     1       7.101   4.899  14.637  0.00  0.00    +0.000 A 
ATOM     24  C   UNL     1       7.860   5.448  13.595  0.00  0.00    +0.000 A 
ATOM     25  C   UNL     1       7.595   5.082  12.280  0.00  0.00    +0.000 A 
ATOM     26  C   UNL     1       6.748   4.019  12.006  0.00  0.00    +0.000 A 
ATOM     27  C   UNL     1       6.005   3.437  13.038  0.00  0.00    +0.000 A 
ATOM     28  C   UNL     1       6.118   3.939  14.350  0.00  0.00    +0.000 A 
ATOM     29  C   UNL     1       5.219   3.572  15.367  0.00  0.00    +0.000 A 
ENDBRANCH  19  20
ENDBRANCH  18  19
ENDBRANCH  17  18
ENDBRANCH   3  17
TORSDOF 5
ENDMDL
