MODEL 1
REMARK VINA RESULT:      -7.8      0.000      0.000
REMARK  Name = 
REMARK  6 active torsions:
REMARK  status: ('A' for Active; 'I' for Inactive)
REMARK    1  A    between atoms: C_1  and  N_2
REMARK    2  A    between atoms: C_6  and  C_7
REMARK    3  A    between atoms: C_7  and  C_8
REMARK    4  A    between atoms: C_8  and  C_9
REMARK    5  A    between atoms: C_13  and  N_14
REMARK    6  A    between atoms: C_19  and  C_20
REMARK                            x       y       z     vdW  Elec       q    Type
REMARK                         _______ _______ _______ _____ _____    ______ ____
ROOT
ATOM      1  C   UNL     1       1.778   7.176  20.340  0.00  0.00    +0.000 A 
ATOM      2  C   UNL     1       1.450   5.980  21.007  0.00  0.00    +0.000 A 
ATOM      3  C   UNL     1       2.180   4.809  20.821  0.00  0.00    +0.000 A 
ATOM      4  C   UNL     1       3.176   4.766  19.856  0.00  0.00    +0.000 A 
ATOM      5  C   UNL     1       3.305   5.837  18.963  0.00  0.00    +0.000 A 
ATOM      6  C   UNL     1       2.731   7.069  19.306  0.00  0.00    +0.000 A 
ENDROOT
BRANCH   5   7
ATOM      7  N   UNL     1       3.559   5.574  17.543  0.00  0.00    +0.000 N 
ATOM      8  C   UNL     1       4.490   4.420  17.416  0.00  0.00    +0.000 C 
ATOM      9  C   UNL     1       5.818   5.105  17.518  0.00  0.00    +0.000 A 
ATOM     10  C   UNL     1       6.896   4.782  18.327  0.00  0.00    +0.000 A 
ATOM     11  C   UNL     1       7.810   5.800  18.634  0.00  0.00    +0.000 A 
ATOM     12  C   UNL     1       7.652   7.112  18.124  0.00  0.00    +0.000 A 
ATOM     13  C   UNL     1       6.592   7.397  17.245  0.00  0.00    +0.000 A 
ATOM     14  C   UNL     1       5.676   6.392  17.003  0.00  0.00    +0.000 A 
ATOM     15  C   UNL     1       4.212   6.627  16.844  0.00  0.00    +0.000 C 
ATOM     16  O   UNL     1       3.728   7.655  16.398  0.00  0.00    +0.000 OA
BRANCH  12  17
ATOM     17  C   UNL     1       8.527   8.238  18.598  0.00  0.00    +0.000 C 
ATOM     18  F   UNL     1       8.359   9.394  17.897  0.00  0.00    +0.000 F 
ENDBRANCH  12  17
ENDBRANCH   5   7
BRANCH   1  19
ATOM     19  C   UNL     1       1.130   8.582  20.753  0.00  0.00    +0.000 C 
ATOM     20  C   UNL     1      -0.305   8.483  21.352  0.00  0.00    +0.000 C 
ATOM     21  O   UNL     1       0.097   9.150  22.566  0.00  0.00    +0.000 OA
ATOM     22  C   UNL     1       1.484   9.093  22.173  0.00  0.00    +0.000 C 
BRANCH  19  23
ATOM     23  C   UNL     1       1.161   9.656  19.647  0.00  0.00    +0.000 C 
BRANCH  23  29
ATOM     24  C   UNL     1       0.310  12.362  21.105  0.00  0.00    +0.000 C 
ATOM     25  N   UNL     1      -0.416  11.636  20.097  0.00  0.00    +0.000 N 
ATOM     26  C   UNL     1      -1.664  11.968  19.657  0.00  0.00    +0.000 A 
ATOM     27  N   UNL     1      -2.076  11.070  18.792  0.00  0.00    +0.000 NA
ATOM     28  N   UNL     1      -1.086  10.127  18.678  0.00  0.00    +0.000 NA
ATOM     29  C   UNL     1      -0.070  10.480  19.440  0.00  0.00    +0.000 A 
ENDBRANCH  23  29
ENDBRANCH  19  23
ENDBRANCH   1  19
TORSDOF 5
ENDMDL
MODEL 2
REMARK VINA RESULT:      -7.8      0.521      1.111
REMARK  Name = 
REMARK  6 active torsions:
REMARK  status: ('A' for Active; 'I' for Inactive)
REMARK    1  A    between atoms: C_1  and  N_2
REMARK    2  A    between atoms: C_6  and  C_7
REMARK    3  A    between atoms: C_7  and  C_8
REMARK    4  A    between atoms: C_8  and  C_9
REMARK    5  A    between atoms: C_13  and  N_14
REMARK    6  A    between atoms: C_19  and  C_20
REMARK                            x       y       z     vdW  Elec       q    Type
REMARK                         _______ _______ _______ _____ _____    ______ ____
ROOT
ATOM      1  C   UNL     1       1.812   7.131  20.308  0.00  0.00    +0.000 A 
ATOM      2  C   UNL     1       1.496   5.930  20.973  0.00  0.00    +0.000 A 
ATOM      3  C   UNL     1       2.246   4.770  20.791  0.00  0.00    +0.000 A 
ATOM      4  C   UNL     1       3.249   4.743  19.834  0.00  0.00    +0.000 A 
ATOM      5  C   UNL     1       3.369   5.816  18.943  0.00  0.00    +0.000 A 
ATOM      6  C   UNL     1       2.774   7.039  19.282  0.00  0.00    +0.000 A 
ENDROOT
BRANCH   5   7
ATOM      7  N   UNL     1       3.638   5.558  17.525  0.00  0.00    +0.000 N 
ATOM      8  C   UNL     1       4.593   4.423  17.404  0.00  0.00    +0.000 C 
ATOM      9  C   UNL     1       5.907   5.135  17.515  0.00  0.00    +0.000 A 
ATOM     10  C   UNL     1       6.985   4.835  18.331  0.00  0.00    +0.000 A 
ATOM     11  C   UNL     1       7.876   5.872  18.644  0.00  0.00    +0.000 A 
ATOM     12  C   UNL     1       7.694   7.179  18.132  0.00  0.00    +0.000 A 
ATOM     13  C   UNL     1       6.635   7.443  17.246  0.00  0.00    +0.000 A 
ATOM     14  C   UNL     1       5.742   6.419  16.998  0.00  0.00    +0.000 A 
ATOM     15  C   UNL     1       4.274   6.624  16.829  0.00  0.00    +0.000 C 
ATOM     16  O   UNL     1       3.772   7.641  16.379  0.00  0.00    +0.000 OA
BRANCH  12  17
ATOM     17  C   UNL     1       8.543   8.323  18.611  0.00  0.00    +0.000 C 
ATOM     18  F   UNL     1       8.358   9.475  17.907  0.00  0.00    +0.000 F 
ENDBRANCH  12  17
ENDBRANCH   5   7
BRANCH   1  19
ATOM     19  C   UNL     1       1.139   8.527  20.717  0.00  0.00    +0.000 C 
ATOM     20  C   UNL     1      -0.268   8.401  21.376  0.00  0.00    +0.000 C 
ATOM     21  O   UNL     1       0.162   9.106  22.557  0.00  0.00    +0.000 OA
ATOM     22  C   UNL     1       1.534   9.080  22.111  0.00  0.00    +0.000 C 
BRANCH  19  23
ATOM     23  C   UNL     1       1.094   9.576  19.588  0.00  0.00    +0.000 C 
BRANCH  23  29
ATOM     24  C   UNL     1      -1.661  10.112  18.072  0.00  0.00    +0.000 C 
ATOM     25  N   UNL     1      -1.021  10.939  19.061  0.00  0.00    +0.000 N 
ATOM     26  C   UNL     1      -1.476  12.164  19.452  0.00  0.00    +0.000 A 
ATOM     27  N   UNL     1      -0.634  12.690  20.310  0.00  0.00    +0.000 NA
ATOM     28  N   UNL     1       0.397  11.799  20.471  0.00  0.00    +0.000 NA
ATOM     29  C   UNL     1       0.153  10.728  19.742  0.00  0.00    +0.000 A 
ENDBRANCH  23  29
ENDBRANCH  19  23
ENDBRANCH   1  19
TORSDOF 5
ENDMDL
MODEL 3
REMARK VINA RESULT:      -7.7      3.180      4.666
REMARK  Name = 
REMARK  6 active torsions:
REMARK  status: ('A' for Active; 'I' for Inactive)
REMARK    1  A    between atoms: C_1  and  N_2
REMARK    2  A    between atoms: C_6  and  C_7
REMARK    3  A    between atoms: C_7  and  C_8
REMARK    4  A    between atoms: C_8  and  C_9
REMARK    5  A    between atoms: C_13  and  N_14
REMARK    6  A    between atoms: C_19  and  C_20
REMARK                            x       y       z     vdW  Elec       q    Type
REMARK                         _______ _______ _______ _____ _____    ______ ____
ROOT
ATOM      1  C   UNL     1       3.199   4.024  19.447  0.00  0.00    +0.000 A 
ATOM      2  C   UNL     1       2.871   3.462  18.198  0.00  0.00    +0.000 A 
ATOM      3  C   UNL     1       3.850   3.041  17.302  0.00  0.00    +0.000 A 
ATOM      4  C   UNL     1       5.186   3.296  17.573  0.00  0.00    +0.000 A 
ATOM      5  C   UNL     1       5.516   4.133  18.647  0.00  0.00    +0.000 A 
ATOM      6  C   UNL     1       4.557   4.350  19.646  0.00  0.00    +0.000 A 
ENDROOT
BRANCH   5   7
ATOM      7  N   UNL     1       6.579   5.131  18.493  0.00  0.00    +0.000 N 
ATOM      8  C   UNL     1       6.000   6.382  17.933  0.00  0.00    +0.000 C 
ATOM      9  C   UNL     1       6.063   6.101  16.464  0.00  0.00    +0.000 A 
ATOM     10  C   UNL     1       5.061   6.231  15.515  0.00  0.00    +0.000 A 
ATOM     11  C   UNL     1       5.166   5.466  14.345  0.00  0.00    +0.000 A 
ATOM     12  C   UNL     1       6.266   4.601  14.126  0.00  0.00    +0.000 A 
ATOM     13  C   UNL     1       7.307   4.542  15.067  0.00  0.00    +0.000 A 
ATOM     14  C   UNL     1       7.153   5.262  16.236  0.00  0.00    +0.000 A 
ATOM     15  C   UNL     1       7.605   4.780  17.572  0.00  0.00    +0.000 C 
ATOM     16  O   UNL     1       8.555   4.034  17.745  0.00  0.00    +0.000 OA
BRANCH  12  17
ATOM     17  C   UNL     1       6.284   3.653  12.960  0.00  0.00    +0.000 C 
ATOM     18  F   UNL     1       5.152   3.692  12.203  0.00  0.00    +0.000 F 
ENDBRANCH  12  17
ENDBRANCH   5   7
BRANCH   1  19
ATOM     19  C   UNL     1       2.097   4.250  20.589  0.00  0.00    +0.000 C 
ATOM     20  C   UNL     1       0.714   3.597  20.294  0.00  0.00    +0.000 C 
ATOM     21  O   UNL     1       0.753   2.832  21.515  0.00  0.00    +0.000 OA
ATOM     22  C   UNL     1       2.119   3.228  21.755  0.00  0.00    +0.000 C 
BRANCH  19  23
ATOM     23  C   UNL     1       1.900   5.719  21.013  0.00  0.00    +0.000 C 
BRANCH  23  29
ATOM     24  C   UNL     1       1.215   8.828  21.219  0.00  0.00    +0.000 C 
ATOM     25  N   UNL     1       1.699   8.103  20.073  0.00  0.00    +0.000 N 
ATOM     26  C   UNL     1       1.864   8.646  18.833  0.00  0.00    +0.000 A 
ATOM     27  N   UNL     1       2.248   7.713  17.994  0.00  0.00    +0.000 NA
ATOM     28  N   UNL     1       2.319   6.535  18.697  0.00  0.00    +0.000 NA
ATOM     29  C   UNL     1       2.018   6.772  19.958  0.00  0.00    +0.000 A 
ENDBRANCH  23  29
ENDBRANCH  19  23
ENDBRANCH   1  19
TORSDOF 5
ENDMDL
MODEL 4
REMARK VINA RESULT:      -7.7      1.171      1.387
REMARK  Name = 
REMARK  6 active torsions:
REMARK  status: ('A' for Active; 'I' for Inactive)
REMARK    1  A    between atoms: C_1  and  N_2
REMARK    2  A    between atoms: C_6  and  C_7
REMARK    3  A    between atoms: C_7  and  C_8
REMARK    4  A    between atoms: C_8  and  C_9
REMARK    5  A    between atoms: C_13  and  N_14
REMARK    6  A    between atoms: C_19  and  C_20
REMARK                            x       y       z     vdW  Elec       q    Type
REMARK                         _______ _______ _______ _____ _____    ______ ____
ROOT
ATOM      1  C   UNL     1       1.747   7.260  20.213  0.00  0.00    +0.000 A 
ATOM      2  C   UNL     1       1.492   6.086  20.950  0.00  0.00    +0.000 A 
ATOM      3  C   UNL     1       2.305   4.961  20.844  0.00  0.00    +0.000 A 
ATOM      4  C   UNL     1       3.317   4.931  19.896  0.00  0.00    +0.000 A 
ATOM      5  C   UNL     1       3.386   5.952  18.940  0.00  0.00    +0.000 A 
ATOM      6  C   UNL     1       2.722   7.159  19.200  0.00  0.00    +0.000 A 
ENDROOT
BRANCH   5   7
ATOM      7  N   UNL     1       3.681   5.622  17.542  0.00  0.00    +0.000 N 
ATOM      8  C   UNL     1       4.634   4.480  17.497  0.00  0.00    +0.000 C 
ATOM      9  C   UNL     1       5.947   5.193  17.598  0.00  0.00    +0.000 A 
ATOM     10  C   UNL     1       7.009   4.932  18.448  0.00  0.00    +0.000 A 
ATOM     11  C   UNL     1       7.898   5.980  18.726  0.00  0.00    +0.000 A 
ATOM     12  C   UNL     1       7.731   7.261  18.146  0.00  0.00    +0.000 A 
ATOM     13  C   UNL     1       6.690   7.482  17.228  0.00  0.00    +0.000 A 
ATOM     14  C   UNL     1       5.797   6.450  17.014  0.00  0.00    +0.000 A 
ATOM     15  C   UNL     1       4.334   6.650  16.807  0.00  0.00    +0.000 C 
ATOM     16  O   UNL     1       3.844   7.645  16.297  0.00  0.00    +0.000 OA
BRANCH  12  17
ATOM     17  C   UNL     1       8.574   8.425  18.583  0.00  0.00    +0.000 C 
ATOM     18  F   UNL     1       8.176   9.618  18.059  0.00  0.00    +0.000 F 
ENDBRANCH  12  17
ENDBRANCH   5   7
BRANCH   1  19
ATOM     19  C   UNL     1       0.996   8.640  20.532  0.00  0.00    +0.000 C 
ATOM     20  C   UNL     1      -0.186   8.516  21.541  0.00  0.00    +0.000 C 
ATOM     21  O   UNL     1       0.402   9.486  22.431  0.00  0.00    +0.000 OA
ATOM     22  C   UNL     1       1.621   9.500  21.660  0.00  0.00    +0.000 C 
BRANCH  19  23
ATOM     23  C   UNL     1       0.539   9.427  19.288  0.00  0.00    +0.000 C 
BRANCH  23  29
ATOM     24  C   UNL     1      -0.224  12.382  20.214  0.00  0.00    +0.000 C 
ATOM     25  N   UNL     1       0.875  11.974  19.380  0.00  0.00    +0.000 N 
ATOM     26  C   UNL     1       1.740  12.834  18.770  0.00  0.00    +0.000 A 
ATOM     27  N   UNL     1       2.581  12.155  18.025  0.00  0.00    +0.000 NA
ATOM     28  N   UNL     1       2.248  10.828  18.138  0.00  0.00    +0.000 NA
ATOM     29  C   UNL     1       1.238  10.711  18.978  0.00  0.00    +0.000 A 
ENDBRANCH  23  29
ENDBRANCH  19  23
ENDBRANCH   1  19
TORSDOF 5
ENDMDL
MODEL 5
REMARK VINA RESULT:      -7.6      2.675      7.359
REMARK  Name = 
REMARK  6 active torsions:
REMARK  status: ('A' for Active; 'I' for Inactive)
REMARK    1  A    between atoms: C_1  and  N_2
REMARK    2  A    between atoms: C_6  and  C_7
REMARK    3  A    between atoms: C_7  and  C_8
REMARK    4  A    between atoms: C_8  and  C_9
REMARK    5  A    between atoms: C_13  and  N_14
REMARK    6  A    between atoms: C_19  and  C_20
REMARK                            x       y       z     vdW  Elec       q    Type
REMARK                         _______ _______ _______ _____ _____    ______ ____
ROOT
ATOM      1  C   UNL     1       2.301   5.740  18.885  0.00  0.00    +0.000 A 
ATOM      2  C   UNL     1       2.144   6.627  17.802  0.00  0.00    +0.000 A 
ATOM      3  C   UNL     1       2.086   8.006  17.984  0.00  0.00    +0.000 A 
ATOM      4  C   UNL     1       2.044   8.529  19.268  0.00  0.00    +0.000 A 
ATOM      5  C   UNL     1       1.875   7.659  20.353  0.00  0.00    +0.000 A 
ATOM      6  C   UNL     1       2.163   6.299  20.172  0.00  0.00    +0.000 A 
ENDROOT
BRANCH   5   7
ATOM      7  N   UNL     1       0.970   8.026  21.446  0.00  0.00    +0.000 N 
ATOM      8  C   UNL     1      -0.407   8.193  20.908  0.00  0.00    +0.000 C 
ATOM      9  C   UNL     1      -0.376   9.624  20.466  0.00  0.00    +0.000 A 
ATOM     10  C   UNL     1      -0.759  10.159  19.247  0.00  0.00    +0.000 A 
ATOM     11  C   UNL     1      -0.199  11.387  18.867  0.00  0.00    +0.000 A 
ATOM     12  C   UNL     1       0.716  12.070  19.705  0.00  0.00    +0.000 A 
ATOM     13  C   UNL     1       1.032  11.545  20.970  0.00  0.00    +0.000 A 
ATOM     14  C   UNL     1       0.510  10.309  21.296  0.00  0.00    +0.000 A 
ATOM     15  C   UNL     1       1.254   9.273  22.069  0.00  0.00    +0.000 C 
ATOM     16  O   UNL     1       2.104   9.525  22.908  0.00  0.00    +0.000 OA
BRANCH  12  17
ATOM     17  C   UNL     1       1.448  13.289  19.220  0.00  0.00    +0.000 C 
ATOM     18  F   UNL     1       1.604  13.333  17.867  0.00  0.00    +0.000 F 
ENDBRANCH  12  17
ENDBRANCH   5   7
BRANCH   1  19
ATOM     19  C   UNL     1       2.649   4.191  18.667  0.00  0.00    +0.000 C 
ATOM     20  C   UNL     1       2.655   3.337  19.971  0.00  0.00    +0.000 C 
ATOM     21  O   UNL     1       1.667   2.428  19.446  0.00  0.00    +0.000 OA
ATOM     22  C   UNL     1       1.450   3.278  18.301  0.00  0.00    +0.000 C 
BRANCH  19  23
ATOM     23  C   UNL     1       3.939   3.926  17.866  0.00  0.00    +0.000 C 
BRANCH  23  29
ATOM     24  C   UNL     1       5.441   6.293  16.344  0.00  0.00    +0.000 C 
ATOM     25  N   UNL     1       5.810   5.666  17.586  0.00  0.00    +0.000 N 
ATOM     26  C   UNL     1       6.949   5.949  18.282  0.00  0.00    +0.000 A 
ATOM     27  N   UNL     1       7.029   5.160  19.328  0.00  0.00    +0.000 NA
ATOM     28  N   UNL     1       5.931   4.337  19.306  0.00  0.00    +0.000 NA
ATOM     29  C   UNL     1       5.177   4.660  18.273  0.00  0.00    +0.000 A 
ENDBRANCH  23  29
ENDBRANCH  19  23
ENDBRANCH   1  19
TORSDOF 5
ENDMDL
MODEL 6
REMARK VINA RESULT:      -7.6      4.329      7.902
REMARK  Name = 
REMARK  6 active torsions:
REMARK  status: ('A' for Active; 'I' for Inactive)
REMARK    1  A    between atoms: C_1  and  N_2
REMARK    2  A    between atoms: C_6  and  C_7
REMARK    3  A    between atoms: C_7  and  C_8
REMARK    4  A    between atoms: C_8  and  C_9
REMARK    5  A    between atoms: C_13  and  N_14
REMARK    6  A    between atoms: C_19  and  C_20
REMARK                            x       y       z     vdW  Elec       q    Type
REMARK                         _______ _______ _______ _____ _____    ______ ____
ROOT
ATOM      1  C   UNL     1       5.387   4.179  17.786  0.00  0.00    +0.000 A 
ATOM      2  C   UNL     1       5.819   4.358  19.116  0.00  0.00    +0.000 A 
ATOM      3  C   UNL     1       5.407   3.513  20.143  0.00  0.00    +0.000 A 
ATOM      4  C   UNL     1       4.443   2.548  19.894  0.00  0.00    +0.000 A 
ATOM      5  C   UNL     1       3.768   2.560  18.667  0.00  0.00    +0.000 A 
ATOM      6  C   UNL     1       4.344   3.251  17.592  0.00  0.00    +0.000 A 
ENDROOT
BRANCH   5   7
ATOM      7  N   UNL     1       2.322   2.322  18.629  0.00  0.00    +0.000 N 
ATOM      8  C   UNL     1       1.723   3.111  17.518  0.00  0.00    +0.000 C 
ATOM      9  C   UNL     1       1.481   4.426  18.193  0.00  0.00    +0.000 A 
ATOM     10  C   UNL     1       1.829   5.696  17.762  0.00  0.00    +0.000 A 
ATOM     11  C   UNL     1       1.965   6.701  18.731  0.00  0.00    +0.000 A 
ATOM     12  C   UNL     1       1.737   6.437  20.103  0.00  0.00    +0.000 A 
ATOM     13  C   UNL     1       1.312   5.160  20.509  0.00  0.00    +0.000 A 
ATOM     14  C   UNL     1       1.240   4.175  19.543  0.00  0.00    +0.000 A 
ATOM     15  C   UNL     1       1.611   2.751  19.783  0.00  0.00    +0.000 C 
ATOM     16  O   UNL     1       1.509   2.190  20.862  0.00  0.00    +0.000 OA
BRANCH  12  17
ATOM     17  C   UNL     1       2.056   7.464  21.152  0.00  0.00    +0.000 C 
ATOM     18  F   UNL     1       0.968   8.154  21.593  0.00  0.00    +0.000 F 
ENDBRANCH  12  17
ENDBRANCH   5   7
BRANCH   1  19
ATOM     19  C   UNL     1       6.066   4.960  16.563  0.00  0.00    +0.000 C 
ATOM     20  C   UNL     1       5.129   5.975  15.842  0.00  0.00    +0.000 C 
ATOM     21  O   UNL     1       6.039   7.068  16.081  0.00  0.00    +0.000 OA
ATOM     22  C   UNL     1       6.853   6.242  16.939  0.00  0.00    +0.000 C 
BRANCH  19  23
ATOM     23  C   UNL     1       6.754   4.055  15.522  0.00  0.00    +0.000 C 
BRANCH  23  29
ATOM     24  C   UNL     1       5.743   3.320  12.587  0.00  0.00    +0.000 C 
ATOM     25  N   UNL     1       6.709   4.317  12.965  0.00  0.00    +0.000 N 
ATOM     26  C   UNL     1       7.425   5.070  12.081  0.00  0.00    +0.000 A 
ATOM     27  N   UNL     1       8.270   5.830  12.737  0.00  0.00    +0.000 NA
ATOM     28  N   UNL     1       8.114   5.557  14.073  0.00  0.00    +0.000 NA
ATOM     29  C   UNL     1       7.152   4.667  14.217  0.00  0.00    +0.000 A 
ENDBRANCH  23  29
ENDBRANCH  19  23
ENDBRANCH   1  19
TORSDOF 5
ENDMDL
MODEL 7
REMARK VINA RESULT:      -7.5      6.262      8.860
REMARK  Name = 
REMARK  6 active torsions:
REMARK  status: ('A' for Active; 'I' for Inactive)
REMARK    1  A    between atoms: C_1  and  N_2
REMARK    2  A    between atoms: C_6  and  C_7
REMARK    3  A    between atoms: C_7  and  C_8
REMARK    4  A    between atoms: C_8  and  C_9
REMARK    5  A    between atoms: C_13  and  N_14
REMARK    6  A    between atoms: C_19  and  C_20
REMARK                            x       y       z     vdW  Elec       q    Type
REMARK                         _______ _______ _______ _____ _____    ______ ____
ROOT
ATOM      1  C   UNL     1      -3.794  11.365  18.181  0.00  0.00    +0.000 A 
ATOM      2  C   UNL     1      -3.640  10.719  16.939  0.00  0.00    +0.000 A 
ATOM      3  C   UNL     1      -2.493   9.995  16.624  0.00  0.00    +0.000 A 
ATOM      4  C   UNL     1      -1.409  10.012  17.490  0.00  0.00    +0.000 A 
ATOM      5  C   UNL     1      -1.417  10.901  18.572  0.00  0.00    +0.000 A 
ATOM      6  C   UNL     1      -2.642  11.436  18.992  0.00  0.00    +0.000 A 
ENDROOT
BRANCH   5   7
ATOM      7  N   UNL     1      -0.197  11.637  18.917  0.00  0.00    +0.000 N 
ATOM      8  C   UNL     1       0.566  10.870  19.940  0.00  0.00    +0.000 C 
ATOM      9  C   UNL     1      -0.074  11.354  21.204  0.00  0.00    +0.000 A 
ATOM     10  C   UNL     1      -0.571  10.608  22.261  0.00  0.00    +0.000 A 
ATOM     11  C   UNL     1      -1.546  11.199  23.077  0.00  0.00    +0.000 A 
ATOM     12  C   UNL     1      -1.999  12.520  22.845  0.00  0.00    +0.000 A 
ATOM     13  C   UNL     1      -1.427  13.285  21.813  0.00  0.00    +0.000 A 
ATOM     14  C   UNL     1      -0.509  12.661  20.991  0.00  0.00    +0.000 A 
ATOM     15  C   UNL     1      -0.411  12.906  19.523  0.00  0.00    +0.000 C 
ATOM     16  O   UNL     1      -0.699  13.963  18.985  0.00  0.00    +0.000 OA
BRANCH  12  17
ATOM     17  C   UNL     1      -3.166  13.083  23.605  0.00  0.00    +0.000 C 
ATOM     18  F   UNL     1      -2.807  13.889  24.644  0.00  0.00    +0.000 F 
ENDBRANCH  12  17
ENDBRANCH   5   7
BRANCH   1  19
ATOM     19  C   UNL     1      -5.205  11.956  18.659  0.00  0.00    +0.000 C 
ATOM     20  C   UNL     1      -6.042  12.630  17.530  0.00  0.00    +0.000 C 
ATOM     21  O   UNL     1      -7.164  11.756  17.765  0.00  0.00    +0.000 OA
ATOM     22  C   UNL     1      -6.384  10.950  18.673  0.00  0.00    +0.000 C 
BRANCH  19  23
ATOM     23  C   UNL     1      -5.131  12.891  19.882  0.00  0.00    +0.000 C 
BRANCH  23  29
ATOM     24  C   UNL     1      -7.846  14.528  20.233  0.00  0.00    +0.000 C 
ATOM     25  N   UNL     1      -7.333  13.477  21.072  0.00  0.00    +0.000 N 
ATOM     26  C   UNL     1      -7.916  13.066  22.235  0.00  0.00    +0.000 A 
ATOM     27  N   UNL     1      -7.169  12.146  22.798  0.00  0.00    +0.000 NA
ATOM     28  N   UNL     1      -6.069  11.965  21.997  0.00  0.00    +0.000 NA
ATOM     29  C   UNL     1      -6.179  12.744  20.938  0.00  0.00    +0.000 A 
ENDBRANCH  23  29
ENDBRANCH  19  23
ENDBRANCH   1  19
TORSDOF 5
ENDMDL
MODEL 8
REMARK VINA RESULT:      -7.4      1.538      2.230
REMARK  Name = 
REMARK  6 active torsions:
REMARK  status: ('A' for Active; 'I' for Inactive)
REMARK    1  A    between atoms: C_1  and  N_2
REMARK    2  A    between atoms: C_6  and  C_7
REMARK    3  A    between atoms: C_7  and  C_8
REMARK    4  A    between atoms: C_8  and  C_9
REMARK    5  A    between atoms: C_13  and  N_14
REMARK    6  A    between atoms: C_19  and  C_20
REMARK                            x       y       z     vdW  Elec       q    Type
REMARK                         _______ _______ _______ _____ _____    ______ ____
ROOT
ATOM      1  C   UNL     1       2.244   7.345  19.194  0.00  0.00    +0.000 A 
ATOM      2  C   UNL     1       1.747   6.329  20.035  0.00  0.00    +0.000 A 
ATOM      3  C   UNL     1       2.506   5.209  20.363  0.00  0.00    +0.000 A 
ATOM      4  C   UNL     1       3.733   5.006  19.750  0.00  0.00    +0.000 A 
ATOM      5  C   UNL     1       4.103   5.829  18.679  0.00  0.00    +0.000 A 
ATOM      6  C   UNL     1       3.450   7.060  18.522  0.00  0.00    +0.000 A 
ENDROOT
BRANCH   5   7
ATOM      7  N   UNL     1       4.748   5.244  17.499  0.00  0.00    +0.000 N 
ATOM      8  C   UNL     1       5.916   4.430  17.932  0.00  0.00    +0.000 C 
ATOM      9  C   UNL     1       6.991   5.471  17.992  0.00  0.00    +0.000 A 
ATOM     10  C   UNL     1       7.883   5.734  19.019  0.00  0.00    +0.000 A 
ATOM     11  C   UNL     1       8.442   7.018  19.087  0.00  0.00    +0.000 A 
ATOM     12  C   UNL     1       8.122   8.012  18.130  0.00  0.00    +0.000 A 
ATOM     13  C   UNL     1       7.273   7.701  17.055  0.00  0.00    +0.000 A 
ATOM     14  C   UNL     1       6.693   6.447  17.042  0.00  0.00    +0.000 A 
ATOM     15  C   UNL     1       5.298   6.185  16.585  0.00  0.00    +0.000 C 
ATOM     16  O   UNL     1       4.720   6.845  15.737  0.00  0.00    +0.000 OA
BRANCH  12  17
ATOM     17  C   UNL     1       8.580   9.432  18.308  0.00  0.00    +0.000 C 
ATOM     18  F   UNL     1       9.355   9.625  19.412  0.00  0.00    +0.000 F 
ENDBRANCH  12  17
ENDBRANCH   5   7
BRANCH   1  19
ATOM     19  C   UNL     1       1.498   8.755  19.037  0.00  0.00    +0.000 C 
ATOM     20  C   UNL     1       2.427   9.938  18.632  0.00  0.00    +0.000 C 
ATOM     21  O   UNL     1       1.639  10.227  17.460  0.00  0.00    +0.000 OA
ATOM     22  C   UNL     1       0.862   9.027  17.650  0.00  0.00    +0.000 C 
BRANCH  19  23
ATOM     23  C   UNL     1       0.631   9.163  20.245  0.00  0.00    +0.000 C 
BRANCH  23  29
ATOM     24  C   UNL     1      -1.431  11.290  19.062  0.00  0.00    +0.000 C 
ATOM     25  N   UNL     1      -0.380  11.516  20.018  0.00  0.00    +0.000 N 
ATOM     26  C   UNL     1      -0.044  12.739  20.519  0.00  0.00    +0.000 A 
ATOM     27  N   UNL     1       0.997  12.618  21.309  0.00  0.00    +0.000 NA
ATOM     28  N   UNL     1       1.358  11.294  21.311  0.00  0.00    +0.000 NA
ATOM     29  C   UNL     1       0.511  10.620  20.558  0.00  0.00    +0.000 A 
ENDBRANCH  23  29
ENDBRANCH  19  23
ENDBRANCH   1  19
TORSDOF 5
ENDMDL
MODEL 9
REMARK VINA RESULT:      -7.2      1.542      1.981
REMARK  Name = 
REMARK  6 active torsions:
REMARK  status: ('A' for Active; 'I' for Inactive)
REMARK    1  A    between atoms: C_1  and  N_2
REMARK    2  A    between atoms: C_6  and  C_7
REMARK    3  A    between atoms: C_7  and  C_8
REMARK    4  A    between atoms: C_8  and  C_9
REMARK    5  A    between atoms: C_13  and  N_14
REMARK    6  A    between atoms: C_19  and  C_20
REMARK                            x       y       z     vdW  Elec       q    Type
REMARK                         _______ _______ _______ _____ _____    ______ ____
ROOT
ATOM      1  C   UNL     1       1.820   7.765  19.688  0.00  0.00    +0.000 A 
ATOM      2  C   UNL     1       1.362   6.721  20.516  0.00  0.00    +0.000 A 
ATOM      3  C   UNL     1       2.059   5.522  20.642  0.00  0.00    +0.000 A 
ATOM      4  C   UNL     1       3.162   5.281  19.837  0.00  0.00    +0.000 A 
ATOM      5  C   UNL     1       3.445   6.163  18.787  0.00  0.00    +0.000 A 
ATOM      6  C   UNL     1       2.887   7.448  18.822  0.00  0.00    +0.000 A 
ENDROOT
BRANCH   5   7
ATOM      7  N   UNL     1       3.859   5.635  17.483  0.00  0.00    +0.000 N 
ATOM      8  C   UNL     1       4.810   4.509  17.689  0.00  0.00    +0.000 C 
ATOM      9  C   UNL     1       6.112   5.242  17.796  0.00  0.00    +0.000 A 
ATOM     10  C   UNL     1       7.096   5.120  18.764  0.00  0.00    +0.000 A 
ATOM     11  C   UNL     1       7.959   6.207  18.960  0.00  0.00    +0.000 A 
ATOM     12  C   UNL     1       7.846   7.387  18.185  0.00  0.00    +0.000 A 
ATOM     13  C   UNL     1       6.889   7.460  17.158  0.00  0.00    +0.000 A 
ATOM     14  C   UNL     1       6.016   6.398  17.023  0.00  0.00    +0.000 A 
ATOM     15  C   UNL     1       4.577   6.550  16.663  0.00  0.00    +0.000 C 
ATOM     16  O   UNL     1       4.135   7.454  15.972  0.00  0.00    +0.000 OA
BRANCH  12  17
ATOM     17  C   UNL     1       8.650   8.612  18.517  0.00  0.00    +0.000 C 
ATOM     18  F   UNL     1       8.236   9.734  17.864  0.00  0.00    +0.000 F 
ENDBRANCH  12  17
ENDBRANCH   5   7
BRANCH   1  19
ATOM     19  C   UNL     1       1.187   9.236  19.751  0.00  0.00    +0.000 C 
ATOM     20  C   UNL     1       1.511  10.135  18.519  0.00  0.00    +0.000 C 
ATOM     21  O   UNL     1       0.113  10.346  18.237  0.00  0.00    +0.000 OA
ATOM     22  C   UNL     1      -0.266   9.364  19.224  0.00  0.00    +0.000 C 
BRANCH  19  23
ATOM     23  C   UNL     1       1.480  10.008  21.052  0.00  0.00    +0.000 C 
BRANCH  23  29
ATOM     24  C   UNL     1       0.086  12.874  20.903  0.00  0.00    +0.000 C 
ATOM     25  N   UNL     1      -0.253  11.769  21.761  0.00  0.00    +0.000 N 
ATOM     26  C   UNL     1      -1.207  11.816  22.735  0.00  0.00    +0.000 A 
ATOM     27  N   UNL     1      -1.224  10.676  23.387  0.00  0.00    +0.000 NA
ATOM     28  N   UNL     1      -0.252   9.877  22.838  0.00  0.00    +0.000 NA
ATOM     29  C   UNL     1       0.316  10.521  21.837  0.00  0.00    +0.000 A 
ENDBRANCH  23  29
ENDBRANCH  19  23
ENDBRANCH   1  19
TORSDOF 5
ENDMDL
