MODEL 1
REMARK VINA RESULT:      -8.4      0.000      0.000
REMARK  Name = 
REMARK  5 active torsions:
REMARK  status: ('A' for Active; 'I' for Inactive)
REMARK    1  A    between atoms: C_2  and  C_3
REMARK    2  A    between atoms: C_7  and  C_8
REMARK    3  A    between atoms: C_8  and  O_9
REMARK    4  A    between atoms: O_9  and  C_10
REMARK    5  A    between atoms: C_21  and  N_22
REMARK                            x       y       z     vdW  Elec       q    Type
REMARK                         _______ _______ _______ _____ _____    ______ ____
ROOT
ATOM      1  C   UNL     1       1.152   9.151  20.289  0.00  0.00    +0.000 A 
ATOM      2  C   UNL     1       1.113   9.793  19.048  0.00  0.00    +0.000 A 
ATOM      3  C   UNL     1       1.736   9.216  17.942  0.00  0.00    +0.000 A 
ATOM      4  C   UNL     1       2.308   7.949  18.048  0.00  0.00    +0.000 A 
ATOM      5  C   UNL     1       2.257   7.248  19.258  0.00  0.00    +0.000 A 
ATOM      6  C   UNL     1       1.668   7.853  20.379  0.00  0.00    +0.000 A 
ENDROOT
BRANCH   1   8
ATOM      7  O   UNL     1       1.268   9.515  22.585  0.00  0.00    +0.000 OA
ATOM      8  C   UNL     1       0.684   9.809  21.542  0.00  0.00    +0.000 C 
ATOM      9  N   UNL     1      -0.327  10.777  21.484  0.00  0.00    +0.000 N 
ATOM     10  C   UNL     1      -1.092  11.140  20.287  0.00  0.00    +0.000 C 
ATOM     11  C   UNL     1      -1.319  12.636  20.177  0.00  0.00    +0.000 C 
ATOM     12  C   UNL     1      -1.959  13.213  21.440  0.00  0.00    +0.000 C 
ATOM     13  C   UNL     1      -1.059  12.845  22.633  0.00  0.00    +0.000 C 
ATOM     14  C   UNL     1      -0.832  11.337  22.737  0.00  0.00    +0.000 C 
BRANCH  12  15
ATOM     15  N   UNL     1      -3.376  12.869  21.672  0.00  0.00    +0.000 N 
ATOM     16  C   UNL     1      -4.009  13.242  22.920  0.00  0.00    +0.000 C 
ATOM     17  C   UNL     1      -5.409  12.686  22.801  0.00  0.00    +0.000 C 
ATOM     18  C   UNL     1      -5.715  12.846  21.326  0.00  0.00    +0.000 C 
ATOM     19  C   UNL     1      -4.356  12.733  20.678  0.00  0.00    +0.000 C 
ATOM     20  O   UNL     1      -4.194  12.594  19.477  0.00  0.00    +0.000 OA
ENDBRANCH  12  15
ENDBRANCH   1   8
BRANCH   5  21
ATOM     21  C   UNL     1       2.793   5.840  19.348  0.00  0.00    +0.000 C 
BRANCH  21  22
ATOM     22  O   UNL     1       4.218   5.910  19.359  0.00  0.00    +0.000 OA
BRANCH  22  23
ATOM     23  C   UNL     1       4.873   5.345  18.301  0.00  0.00    +0.000 A 
ATOM     24  C   UNL     1       4.306   5.020  17.067  0.00  0.00    +0.000 A 
ATOM     25  C   UNL     1       5.088   4.446  16.059  0.00  0.00    +0.000 A 
ATOM     26  C   UNL     1       6.439   4.193  16.287  0.00  0.00    +0.000 A 
ATOM     27  C   UNL     1       6.998   4.519  17.517  0.00  0.00    +0.000 A 
ATOM     28  F   UNL     1       8.296   4.274  17.734  0.00  0.00    +0.000 F 
ATOM     29  C   UNL     1       6.229   5.090  18.524  0.00  0.00    +0.000 A 
ENDBRANCH  22  23
ENDBRANCH  21  22
ENDBRANCH   5  21
TORSDOF 5
ENDMDL
MODEL 2
REMARK VINA RESULT:      -8.4      1.795      2.516
REMARK  Name = 
REMARK  5 active torsions:
REMARK  status: ('A' for Active; 'I' for Inactive)
REMARK    1  A    between atoms: C_2  and  C_3
REMARK    2  A    between atoms: C_7  and  C_8
REMARK    3  A    between atoms: C_8  and  O_9
REMARK    4  A    between atoms: O_9  and  C_10
REMARK    5  A    between atoms: C_21  and  N_22
REMARK                            x       y       z     vdW  Elec       q    Type
REMARK                         _______ _______ _______ _____ _____    ______ ____
ROOT
ATOM      1  C   UNL     1       1.497   7.967  20.651  0.00  0.00    +0.000 A 
ATOM      2  C   UNL     1       1.258   6.685  21.154  0.00  0.00    +0.000 A 
ATOM      3  C   UNL     1       1.564   5.564  20.385  0.00  0.00    +0.000 A 
ATOM      4  C   UNL     1       2.204   5.716  19.156  0.00  0.00    +0.000 A 
ATOM      5  C   UNL     1       2.548   6.990  18.690  0.00  0.00    +0.000 A 
ATOM      6  C   UNL     1       2.198   8.117  19.448  0.00  0.00    +0.000 A 
ENDROOT
BRANCH   1   8
ATOM      7  O   UNL     1       1.486   9.456  22.441  0.00  0.00    +0.000 OA
ATOM      8  C   UNL     1       1.008   9.198  21.336  0.00  0.00    +0.000 C 
ATOM      9  N   UNL     1       0.103  10.044  20.682  0.00  0.00    +0.000 N 
ATOM     10  C   UNL     1      -0.538   9.773  19.391  0.00  0.00    +0.000 C 
ATOM     11  C   UNL     1      -0.610  11.008  18.512  0.00  0.00    +0.000 C 
ATOM     12  C   UNL     1      -1.279  12.182  19.227  0.00  0.00    +0.000 C 
ATOM     13  C   UNL     1      -0.504  12.440  20.533  0.00  0.00    +0.000 C 
ATOM     14  C   UNL     1      -0.433  11.192  21.412  0.00  0.00    +0.000 C 
BRANCH  12  15
ATOM     15  N   UNL     1      -2.735  12.074  19.444  0.00  0.00    +0.000 N 
ATOM     16  C   UNL     1      -3.369  12.878  20.468  0.00  0.00    +0.000 C 
ATOM     17  C   UNL     1      -4.820  12.459  20.416  0.00  0.00    +0.000 C 
ATOM     18  C   UNL     1      -5.044  12.184  18.944  0.00  0.00    +0.000 C 
ATOM     19  C   UNL     1      -3.683  11.738  18.467  0.00  0.00    +0.000 C 
ATOM     20  O   UNL     1      -3.490  11.216  17.380  0.00  0.00    +0.000 OA
ENDBRANCH  12  15
ENDBRANCH   1   8
BRANCH   5  21
ATOM     21  C   UNL     1       3.324   7.148  17.405  0.00  0.00    +0.000 C 
BRANCH  21  22
ATOM     22  O   UNL     1       4.182   6.018  17.264  0.00  0.00    +0.000 OA
BRANCH  22  23
ATOM     23  C   UNL     1       5.435   6.123  17.802  0.00  0.00    +0.000 A 
ATOM     24  C   UNL     1       5.956   5.322  18.821  0.00  0.00    +0.000 A 
ATOM     25  C   UNL     1       7.260   5.528  19.284  0.00  0.00    +0.000 A 
ATOM     26  C   UNL     1       8.043   6.539  18.731  0.00  0.00    +0.000 A 
ATOM     27  C   UNL     1       7.518   7.332  17.717  0.00  0.00    +0.000 A 
ATOM     28  F   UNL     1       8.271   8.304  17.187  0.00  0.00    +0.000 F 
ATOM     29  C   UNL     1       6.224   7.134  17.250  0.00  0.00    +0.000 A 
ENDBRANCH  22  23
ENDBRANCH  21  22
ENDBRANCH   5  21
TORSDOF 5
ENDMDL
MODEL 3
REMARK VINA RESULT:      -8.4      1.227      1.642
REMARK  Name = 
REMARK  5 active torsions:
REMARK  status: ('A' for Active; 'I' for Inactive)
REMARK    1  A    between atoms: C_2  and  C_3
REMARK    2  A    between atoms: C_7  and  C_8
REMARK    3  A    between atoms: C_8  and  O_9
REMARK    4  A    between atoms: O_9  and  C_10
REMARK    5  A    between atoms: C_21  and  N_22
REMARK                            x       y       z     vdW  Elec       q    Type
REMARK                         _______ _______ _______ _____ _____    ______ ____
ROOT
ATOM      1  C   UNL     1       1.402   8.953  19.786  0.00  0.00    +0.000 A 
ATOM      2  C   UNL     1       1.560   9.320  18.446  0.00  0.00    +0.000 A 
ATOM      3  C   UNL     1       2.312   8.523  17.586  0.00  0.00    +0.000 A 
ATOM      4  C   UNL     1       2.823   7.305  18.033  0.00  0.00    +0.000 A 
ATOM      5  C   UNL     1       2.580   6.873  19.342  0.00  0.00    +0.000 A 
ATOM      6  C   UNL     1       1.859   7.701  20.216  0.00  0.00    +0.000 A 
ENDROOT
BRANCH   1   8
ATOM      7  O   UNL     1       1.306   9.901  21.910  0.00  0.00    +0.000 OA
ATOM      8  C   UNL     1       0.785   9.859  20.795  0.00  0.00    +0.000 C 
ATOM      9  N   UNL     1      -0.294  10.674  20.429  0.00  0.00    +0.000 N 
ATOM     10  C   UNL     1      -0.990  10.639  19.139  0.00  0.00    +0.000 C 
ATOM     11  C   UNL     1      -1.330  12.027  18.628  0.00  0.00    +0.000 C 
ATOM     12  C   UNL     1      -2.113  12.842  19.659  0.00  0.00    +0.000 C 
ATOM     13  C   UNL     1      -1.282  12.883  20.954  0.00  0.00    +0.000 C 
ATOM     14  C   UNL     1      -0.941  11.482  21.462  0.00  0.00    +0.000 C 
BRANCH  12  15
ATOM     15  N   UNL     1      -3.511  12.429  19.894  0.00  0.00    +0.000 N 
ATOM     16  C   UNL     1      -4.237  12.970  21.024  0.00  0.00    +0.000 C 
ATOM     17  C   UNL     1      -5.582  12.287  20.956  0.00  0.00    +0.000 C 
ATOM     18  C   UNL     1      -5.819  12.147  19.466  0.00  0.00    +0.000 C 
ATOM     19  C   UNL     1      -4.422  12.032  18.905  0.00  0.00    +0.000 C 
ATOM     20  O   UNL     1      -4.185  11.688  17.759  0.00  0.00    +0.000 OA
ENDBRANCH  12  15
ENDBRANCH   1   8
BRANCH   5  21
ATOM     21  C   UNL     1       3.053   5.514  19.797  0.00  0.00    +0.000 C 
BRANCH  21  22
ATOM     22  O   UNL     1       3.373   4.747  18.639  0.00  0.00    +0.000 OA
BRANCH  22  23
ATOM     23  C   UNL     1       4.677   4.759  18.229  0.00  0.00    +0.000 A 
ATOM     24  C   UNL     1       5.768   5.185  18.990  0.00  0.00    +0.000 A 
ATOM     25  C   UNL     1       7.060   5.145  18.455  0.00  0.00    +0.000 A 
ATOM     26  C   UNL     1       7.261   4.681  17.157  0.00  0.00    +0.000 A 
ATOM     27  C   UNL     1       6.171   4.257  16.406  0.00  0.00    +0.000 A 
ATOM     28  F   UNL     1       6.366   3.812  15.158  0.00  0.00    +0.000 F 
ATOM     29  C   UNL     1       4.884   4.293  16.929  0.00  0.00    +0.000 A 
ENDBRANCH  22  23
ENDBRANCH  21  22
ENDBRANCH   5  21
TORSDOF 5
ENDMDL
MODEL 4
REMARK VINA RESULT:      -8.4      1.976      2.745
REMARK  Name = 
REMARK  5 active torsions:
REMARK  status: ('A' for Active; 'I' for Inactive)
REMARK    1  A    between atoms: C_2  and  C_3
REMARK    2  A    between atoms: C_7  and  C_8
REMARK    3  A    between atoms: C_8  and  O_9
REMARK    4  A    between atoms: O_9  and  C_10
REMARK    5  A    between atoms: C_21  and  N_22
REMARK                            x       y       z     vdW  Elec       q    Type
REMARK                         _______ _______ _______ _____ _____    ______ ____
ROOT
ATOM      1  C   UNL     1       1.200   8.725  20.407  0.00  0.00    +0.000 A 
ATOM      2  C   UNL     1       1.014   7.608  21.226  0.00  0.00    +0.000 A 
ATOM      3  C   UNL     1       1.481   6.359  20.822  0.00  0.00    +0.000 A 
ATOM      4  C   UNL     1       2.227   6.240  19.650  0.00  0.00    +0.000 A 
ATOM      5  C   UNL     1       2.514   7.370  18.876  0.00  0.00    +0.000 A 
ATOM      6  C   UNL     1       2.003   8.618  19.265  0.00  0.00    +0.000 A 
ENDROOT
BRANCH   1   8
ATOM      7  O   UNL     1       1.002  10.703  21.619  0.00  0.00    +0.000 OA
ATOM      8  C   UNL     1       0.551  10.037  20.687  0.00  0.00    +0.000 C 
ATOM      9  N   UNL     1      -0.476  10.497  19.852  0.00  0.00    +0.000 N 
ATOM     10  C   UNL     1      -1.090   9.737  18.758  0.00  0.00    +0.000 C 
ATOM     11  C   UNL     1      -1.351  10.595  17.534  0.00  0.00    +0.000 C 
ATOM     12  C   UNL     1      -2.170  11.842  17.872  0.00  0.00    +0.000 C 
ATOM     13  C   UNL     1      -1.421  12.611  18.975  0.00  0.00    +0.000 C 
ATOM     14  C   UNL     1      -1.159  11.741  20.204  0.00  0.00    +0.000 C 
BRANCH  12  15
ATOM     15  N   UNL     1      -3.593  11.622  18.199  0.00  0.00    +0.000 N 
ATOM     16  C   UNL     1      -4.177  12.295  19.340  0.00  0.00    +0.000 C 
ATOM     17  C   UNL     1      -5.601  11.788  19.373  0.00  0.00    +0.000 C 
ATOM     18  C   UNL     1      -5.939  11.622  17.907  0.00  0.00    +0.000 C 
ATOM     19  C   UNL     1      -4.603  11.307  17.279  0.00  0.00    +0.000 C 
ATOM     20  O   UNL     1      -4.478  10.891  16.138  0.00  0.00    +0.000 OA
ENDBRANCH  12  15
ENDBRANCH   1   8
BRANCH   5  21
ATOM     21  C   UNL     1       3.398   7.257  17.658  0.00  0.00    +0.000 C 
BRANCH  21  22
ATOM     22  O   UNL     1       3.616   5.872  17.397  0.00  0.00    +0.000 OA
BRANCH  22  23
ATOM     23  C   UNL     1       4.915   5.460  17.284  0.00  0.00    +0.000 A 
ATOM     24  C   UNL     1       5.885   5.535  18.285  0.00  0.00    +0.000 A 
ATOM     25  C   UNL     1       7.184   5.075  18.045  0.00  0.00    +0.000 A 
ATOM     26  C   UNL     1       7.514   4.542  16.800  0.00  0.00    +0.000 A 
ATOM     27  C   UNL     1       6.543   4.470  15.809  0.00  0.00    +0.000 A 
ATOM     28  F   UNL     1       6.862   3.959  14.613  0.00  0.00    +0.000 F 
ATOM     29  C   UNL     1       5.249   4.924  16.039  0.00  0.00    +0.000 A 
ENDBRANCH  22  23
ENDBRANCH  21  22
ENDBRANCH   5  21
TORSDOF 5
ENDMDL
MODEL 5
REMARK VINA RESULT:      -8.3      2.361      2.725
REMARK  Name = 
REMARK  5 active torsions:
REMARK  status: ('A' for Active; 'I' for Inactive)
REMARK    1  A    between atoms: C_2  and  C_3
REMARK    2  A    between atoms: C_7  and  C_8
REMARK    3  A    between atoms: C_8  and  O_9
REMARK    4  A    between atoms: O_9  and  C_10
REMARK    5  A    between atoms: C_21  and  N_22
REMARK                            x       y       z     vdW  Elec       q    Type
REMARK                         _______ _______ _______ _____ _____    ______ ____
ROOT
ATOM      1  C   UNL     1       0.781   9.680  20.370  0.00  0.00    +0.000 A 
ATOM      2  C   UNL     1       0.537  10.335  19.159  0.00  0.00    +0.000 A 
ATOM      3  C   UNL     1       1.137   9.883  17.985  0.00  0.00    +0.000 A 
ATOM      4  C   UNL     1       1.899   8.715  17.998  0.00  0.00    +0.000 A 
ATOM      5  C   UNL     1       2.062   7.989  19.183  0.00  0.00    +0.000 A 
ATOM      6  C   UNL     1       1.492   8.473  20.370  0.00  0.00    +0.000 A 
ENDROOT
BRANCH   1   8
ATOM      7  O   UNL     1       0.958   9.880  22.682  0.00  0.00    +0.000 OA
ATOM      8  C   UNL     1       0.335  10.232  21.680  0.00  0.00    +0.000 C 
ATOM      9  N   UNL     1      -0.702  11.174  21.721  0.00  0.00    +0.000 N 
ATOM     10  C   UNL     1      -1.512  11.600  20.576  0.00  0.00    +0.000 C 
ATOM     11  C   UNL     1      -1.781  13.093  20.582  0.00  0.00    +0.000 C 
ATOM     12  C   UNL     1      -2.397  13.559  21.902  0.00  0.00    +0.000 C 
ATOM     13  C   UNL     1      -1.452  13.131  23.039  0.00  0.00    +0.000 C 
ATOM     14  C   UNL     1      -1.183  11.627  23.025  0.00  0.00    +0.000 C 
BRANCH  12  15
ATOM     15  N   UNL     1      -3.798  13.160  22.148  0.00  0.00    +0.000 N 
ATOM     16  C   UNL     1      -4.383  13.372  23.455  0.00  0.00    +0.000 C 
ATOM     17  C   UNL     1      -5.777  12.803  23.327  0.00  0.00    +0.000 C 
ATOM     18  C   UNL     1      -6.148  13.126  21.895  0.00  0.00    +0.000 C 
ATOM     19  C   UNL     1      -4.816  13.119  21.185  0.00  0.00    +0.000 C 
ATOM     20  O   UNL     1      -4.702  13.123  19.970  0.00  0.00    +0.000 OA
ENDBRANCH  12  15
ENDBRANCH   1   8
BRANCH   5  21
ATOM     21  C   UNL     1       2.808   6.677  19.178  0.00  0.00    +0.000 C 
BRANCH  21  22
ATOM     22  O   UNL     1       2.294   5.880  18.113  0.00  0.00    +0.000 OA
BRANCH  22  23
ATOM     23  C   UNL     1       2.137   4.545  18.359  0.00  0.00    +0.000 A 
ATOM     24  C   UNL     1       2.475   3.508  17.487  0.00  0.00    +0.000 A 
ATOM     25  C   UNL     1       2.267   2.176  17.860  0.00  0.00    +0.000 A 
ATOM     26  C   UNL     1       1.717   1.880  19.105  0.00  0.00    +0.000 A 
ATOM     27  C   UNL     1       1.383   2.916  19.968  0.00  0.00    +0.000 A 
ATOM     28  F   UNL     1       0.854   2.630  21.164  0.00  0.00    +0.000 F 
ATOM     29  C   UNL     1       1.587   4.243  19.607  0.00  0.00    +0.000 A 
ENDBRANCH  22  23
ENDBRANCH  21  22
ENDBRANCH   5  21
TORSDOF 5
ENDMDL
MODEL 6
REMARK VINA RESULT:      -8.3      3.858      5.218
REMARK  Name = 
REMARK  5 active torsions:
REMARK  status: ('A' for Active; 'I' for Inactive)
REMARK    1  A    between atoms: C_2  and  C_3
REMARK    2  A    between atoms: C_7  and  C_8
REMARK    3  A    between atoms: C_8  and  O_9
REMARK    4  A    between atoms: O_9  and  C_10
REMARK    5  A    between atoms: C_21  and  N_22
REMARK                            x       y       z     vdW  Elec       q    Type
REMARK                         _______ _______ _______ _____ _____    ______ ____
ROOT
ATOM      1  C   UNL     1       0.678   9.869  19.426  0.00  0.00    +0.000 A 
ATOM      2  C   UNL     1       0.465   9.517  20.762  0.00  0.00    +0.000 A 
ATOM      3  C   UNL     1       0.964   8.314  21.257  0.00  0.00    +0.000 A 
ATOM      4  C   UNL     1       1.766   7.508  20.449  0.00  0.00    +0.000 A 
ATOM      5  C   UNL     1       2.079   7.903  19.143  0.00  0.00    +0.000 A 
ATOM      6  C   UNL     1       1.536   9.094  18.637  0.00  0.00    +0.000 A 
ENDROOT
BRANCH   1   8
ATOM      7  O   UNL     1      -1.017  10.810  18.139  0.00  0.00    +0.000 OA
ATOM      8  C   UNL     1       0.003  11.036  18.790  0.00  0.00    +0.000 C 
ATOM      9  N   UNL     1       0.491  12.329  19.016  0.00  0.00    +0.000 N 
ATOM     10  C   UNL     1       1.722  12.662  19.740  0.00  0.00    +0.000 C 
ATOM     11  C   UNL     1       1.553  13.872  20.640  0.00  0.00    +0.000 C 
ATOM     12  C   UNL     1       1.013  15.083  19.878  0.00  0.00    +0.000 C 
ATOM     13  C   UNL     1      -0.308  14.665  19.208  0.00  0.00    +0.000 C 
ATOM     14  C   UNL     1      -0.132  13.445  18.305  0.00  0.00    +0.000 C 
BRANCH  12  15
ATOM     15  N   UNL     1       1.946  15.733  18.937  0.00  0.00    +0.000 N 
ATOM     16  C   UNL     1       2.891  14.927  18.193  0.00  0.00    +0.000 C 
ATOM     17  C   UNL     1       3.684  15.935  17.395  0.00  0.00    +0.000 C 
ATOM     18  C   UNL     1       2.655  16.999  17.070  0.00  0.00    +0.000 C 
ATOM     19  C   UNL     1       1.703  16.924  18.239  0.00  0.00    +0.000 C 
ATOM     20  O   UNL     1       0.851  17.768  18.466  0.00  0.00    +0.000 OA
ENDBRANCH  12  15
ENDBRANCH   1   8
BRANCH   5  21
ATOM     21  C   UNL     1       3.021   7.078  18.302  0.00  0.00    +0.000 C 
BRANCH  21  22
ATOM     22  O   UNL     1       2.264   6.047  17.672  0.00  0.00    +0.000 OA
BRANCH  22  23
ATOM     23  C   UNL     1       2.515   4.763  18.071  0.00  0.00    +0.000 A 
ATOM     24  C   UNL     1       3.765   4.243  18.412  0.00  0.00    +0.000 A 
ATOM     25  C   UNL     1       3.889   2.907  18.809  0.00  0.00    +0.000 A 
ATOM     26  C   UNL     1       2.762   2.090  18.863  0.00  0.00    +0.000 A 
ATOM     27  C   UNL     1       1.521   2.614  18.523  0.00  0.00    +0.000 A 
ATOM     28  F   UNL     1       0.439   1.827  18.574  0.00  0.00    +0.000 F 
ATOM     29  C   UNL     1       1.387   3.940  18.127  0.00  0.00    +0.000 A 
ENDBRANCH  22  23
ENDBRANCH  21  22
ENDBRANCH   5  21
TORSDOF 5
ENDMDL
MODEL 7
REMARK VINA RESULT:      -8.3      1.506      2.068
REMARK  Name = 
REMARK  5 active torsions:
REMARK  status: ('A' for Active; 'I' for Inactive)
REMARK    1  A    between atoms: C_2  and  C_3
REMARK    2  A    between atoms: C_7  and  C_8
REMARK    3  A    between atoms: C_8  and  O_9
REMARK    4  A    between atoms: O_9  and  C_10
REMARK    5  A    between atoms: C_21  and  N_22
REMARK                            x       y       z     vdW  Elec       q    Type
REMARK                         _______ _______ _______ _____ _____    ______ ____
ROOT
ATOM      1  C   UNL     1       1.519   8.058  20.629  0.00  0.00    +0.000 A 
ATOM      2  C   UNL     1       1.348   6.757  21.111  0.00  0.00    +0.000 A 
ATOM      3  C   UNL     1       1.686   5.665  20.313  0.00  0.00    +0.000 A 
ATOM      4  C   UNL     1       2.292   5.870  19.074  0.00  0.00    +0.000 A 
ATOM      5  C   UNL     1       2.569   7.167  18.627  0.00  0.00    +0.000 A 
ATOM      6  C   UNL     1       2.186   8.262  19.415  0.00  0.00    +0.000 A 
ENDROOT
BRANCH   1   8
ATOM      7  O   UNL     1       1.442   9.479  22.471  0.00  0.00    +0.000 OA
ATOM      8  C   UNL     1       0.991   9.252  21.349  0.00  0.00    +0.000 C 
ATOM      9  N   UNL     1       0.080  10.103  20.709  0.00  0.00    +0.000 N 
ATOM     10  C   UNL     1      -0.530   9.867  19.396  0.00  0.00    +0.000 C 
ATOM     11  C   UNL     1      -0.612  11.131  18.562  0.00  0.00    +0.000 C 
ATOM     12  C   UNL     1      -1.319  12.265  19.306  0.00  0.00    +0.000 C 
ATOM     13  C   UNL     1      -0.575  12.490  20.635  0.00  0.00    +0.000 C 
ATOM     14  C   UNL     1      -0.493  11.212  21.470  0.00  0.00    +0.000 C 
BRANCH  12  15
ATOM     15  N   UNL     1      -2.777  12.119  19.490  0.00  0.00    +0.000 N 
ATOM     16  C   UNL     1      -3.461  12.938  20.468  0.00  0.00    +0.000 C 
ATOM     17  C   UNL     1      -4.896  12.472  20.396  0.00  0.00    +0.000 C 
ATOM     18  C   UNL     1      -5.074  12.138  18.929  0.00  0.00    +0.000 C 
ATOM     19  C   UNL     1      -3.687  11.719  18.502  0.00  0.00    +0.000 C 
ATOM     20  O   UNL     1      -3.450  11.166  17.441  0.00  0.00    +0.000 OA
ENDBRANCH  12  15
ENDBRANCH   1   8
BRANCH   5  21
ATOM     21  C   UNL     1       3.309   7.385  17.329  0.00  0.00    +0.000 C 
BRANCH  21  22
ATOM     22  O   UNL     1       4.707   7.311  17.600  0.00  0.00    +0.000 OA
BRANCH  22  23
ATOM     23  C   UNL     1       5.422   6.371  16.911  0.00  0.00    +0.000 A 
ATOM     24  C   UNL     1       5.221   6.007  15.578  0.00  0.00    +0.000 A 
ATOM     25  C   UNL     1       6.025   5.029  14.984  0.00  0.00    +0.000 A 
ATOM     26  C   UNL     1       7.030   4.411  15.725  0.00  0.00    +0.000 A 
ATOM     27  C   UNL     1       7.225   4.778  17.051  0.00  0.00    +0.000 A 
ATOM     28  F   UNL     1       8.191   4.183  17.762  0.00  0.00    +0.000 F 
ATOM     29  C   UNL     1       6.432   5.750  17.649  0.00  0.00    +0.000 A 
ENDBRANCH  22  23
ENDBRANCH  21  22
ENDBRANCH   5  21
TORSDOF 5
ENDMDL
MODEL 8
REMARK VINA RESULT:      -8.3      3.824      5.298
REMARK  Name = 
REMARK  5 active torsions:
REMARK  status: ('A' for Active; 'I' for Inactive)
REMARK    1  A    between atoms: C_2  and  C_3
REMARK    2  A    between atoms: C_7  and  C_8
REMARK    3  A    between atoms: C_8  and  O_9
REMARK    4  A    between atoms: O_9  and  C_10
REMARK    5  A    between atoms: C_21  and  N_22
REMARK                            x       y       z     vdW  Elec       q    Type
REMARK                         _______ _______ _______ _____ _____    ______ ____
ROOT
ATOM      1  C   UNL     1       0.510   9.855  19.721  0.00  0.00    +0.000 A 
ATOM      2  C   UNL     1       0.180   9.492  21.030  0.00  0.00    +0.000 A 
ATOM      3  C   UNL     1       0.618   8.275  21.549  0.00  0.00    +0.000 A 
ATOM      4  C   UNL     1       1.471   7.466  20.801  0.00  0.00    +0.000 A 
ATOM      5  C   UNL     1       1.898   7.869  19.531  0.00  0.00    +0.000 A 
ATOM      6  C   UNL     1       1.418   9.074  18.996  0.00  0.00    +0.000 A 
ENDROOT
BRANCH   1   8
ATOM      7  O   UNL     1      -1.122  10.856  18.396  0.00  0.00    +0.000 OA
ATOM      8  C   UNL     1      -0.092  11.039  19.045  0.00  0.00    +0.000 C 
ATOM      9  N   UNL     1       0.473  12.308  19.231  0.00  0.00    +0.000 N 
ATOM     10  C   UNL     1       1.719  12.588  19.951  0.00  0.00    +0.000 C 
ATOM     11  C   UNL     1       1.622  13.834  20.811  0.00  0.00    +0.000 C 
ATOM     12  C   UNL     1       1.158  15.051  20.009  0.00  0.00    +0.000 C 
ATOM     13  C   UNL     1      -0.184  14.693  19.346  0.00  0.00    +0.000 C 
ATOM     14  C   UNL     1      -0.080  13.436  18.482  0.00  0.00    +0.000 C 
BRANCH  12  15
ATOM     15  N   UNL     1       2.132  15.614  19.052  0.00  0.00    +0.000 N 
ATOM     16  C   UNL     1       1.711  16.644  18.126  0.00  0.00    +0.000 C 
ATOM     17  C   UNL     1       2.946  16.919  17.300  0.00  0.00    +0.000 C 
ATOM     18  C   UNL     1       4.072  16.734  18.296  0.00  0.00    +0.000 C 
ATOM     19  C   UNL     1       3.515  15.711  19.258  0.00  0.00    +0.000 C 
ATOM     20  O   UNL     1       4.195  15.129  20.087  0.00  0.00    +0.000 OA
ENDBRANCH  12  15
ENDBRANCH   1   8
BRANCH   5  21
ATOM     21  C   UNL     1       2.895   7.038  18.761  0.00  0.00    +0.000 C 
BRANCH  21  22
ATOM     22  O   UNL     1       2.171   6.204  17.859  0.00  0.00    +0.000 OA
BRANCH  22  23
ATOM     23  C   UNL     1       2.477   4.871  17.866  0.00  0.00    +0.000 A 
ATOM     24  C   UNL     1       3.720   4.317  17.553  0.00  0.00    +0.000 A 
ATOM     25  C   UNL     1       3.907   2.932  17.601  0.00  0.00    +0.000 A 
ATOM     26  C   UNL     1       2.850   2.099  17.960  0.00  0.00    +0.000 A 
ATOM     27  C   UNL     1       1.616   2.657  18.272  0.00  0.00    +0.000 A 
ATOM     28  F   UNL     1       0.600   1.856  18.616  0.00  0.00    +0.000 F 
ATOM     29  C   UNL     1       1.420   4.033  18.227  0.00  0.00    +0.000 A 
ENDBRANCH  22  23
ENDBRANCH  21  22
ENDBRANCH   5  21
TORSDOF 5
ENDMDL
MODEL 9
REMARK VINA RESULT:      -8.2      2.829      3.222
REMARK  Name = 
REMARK  5 active torsions:
REMARK  status: ('A' for Active; 'I' for Inactive)
REMARK    1  A    between atoms: C_2  and  C_3
REMARK    2  A    between atoms: C_7  and  C_8
REMARK    3  A    between atoms: C_8  and  O_9
REMARK    4  A    between atoms: O_9  and  C_10
REMARK    5  A    between atoms: C_21  and  N_22
REMARK                            x       y       z     vdW  Elec       q    Type
REMARK                         _______ _______ _______ _____ _____    ______ ____
ROOT
ATOM      1  C   UNL     1       1.149  10.877  19.936  0.00  0.00    +0.000 A 
ATOM      2  C   UNL     1       1.398  10.913  18.561  0.00  0.00    +0.000 A 
ATOM      3  C   UNL     1       1.838   9.769  17.899  0.00  0.00    +0.000 A 
ATOM      4  C   UNL     1       1.930   8.559  18.587  0.00  0.00    +0.000 A 
ATOM      5  C   UNL     1       1.578   8.484  19.940  0.00  0.00    +0.000 A 
ATOM      6  C   UNL     1       1.179   9.650  20.611  0.00  0.00    +0.000 A 
ENDROOT
BRANCH   1   8
ATOM      7  O   UNL     1       1.845  12.767  21.103  0.00  0.00    +0.000 OA
ATOM      8  C   UNL     1       0.875  12.108  20.731  0.00  0.00    +0.000 C 
ATOM      9  N   UNL     1      -0.449  12.510  20.955  0.00  0.00    +0.000 N 
ATOM     10  C   UNL     1      -1.646  11.750  20.581  0.00  0.00    +0.000 C 
ATOM     11  C   UNL     1      -2.744  12.637  20.026  0.00  0.00    +0.000 C 
ATOM     12  C   UNL     1      -3.089  13.785  20.976  0.00  0.00    +0.000 C 
ATOM     13  C   UNL     1      -1.794  14.566  21.260  0.00  0.00    +0.000 C 
ATOM     14  C   UNL     1      -0.691  13.666  21.817  0.00  0.00    +0.000 C 
BRANCH  12  15
ATOM     15  N   UNL     1      -3.812  13.417  22.210  0.00  0.00    +0.000 N 
ATOM     16  C   UNL     1      -3.619  14.200  23.413  0.00  0.00    +0.000 C 
ATOM     17  C   UNL     1      -4.469  13.499  24.446  0.00  0.00    +0.000 C 
ATOM     18  C   UNL     1      -5.651  13.005  23.638  0.00  0.00    +0.000 C 
ATOM     19  C   UNL     1      -5.060  12.782  22.266  0.00  0.00    +0.000 C 
ATOM     20  O   UNL     1      -5.638  12.179  21.376  0.00  0.00    +0.000 OA
ENDBRANCH  12  15
ENDBRANCH   1   8
BRANCH   5  21
ATOM     21  C   UNL     1       1.589   7.158  20.659  0.00  0.00    +0.000 C 
BRANCH  21  22
ATOM     22  O   UNL     1       2.481   6.287  19.967  0.00  0.00    +0.000 OA
BRANCH  22  23
ATOM     23  C   UNL     1       2.055   5.005  19.756  0.00  0.00    +0.000 A 
ATOM     24  C   UNL     1       1.764   4.435  18.514  0.00  0.00    +0.000 A 
ATOM     25  C   UNL     1       1.337   3.106  18.431  0.00  0.00    +0.000 A 
ATOM     26  C   UNL     1       1.197   2.346  19.591  0.00  0.00    +0.000 A 
ATOM     27  C   UNL     1       1.489   2.920  20.823  0.00  0.00    +0.000 A 
ATOM     28  F   UNL     1       1.353   2.189  21.936  0.00  0.00    +0.000 F 
ATOM     29  C   UNL     1       1.914   4.240  20.915  0.00  0.00    +0.000 A 
ENDBRANCH  22  23
ENDBRANCH  21  22
ENDBRANCH   5  21
TORSDOF 5
ENDMDL
