MODEL 1
REMARK VINA RESULT:      -9.4      0.000      0.000
REMARK  Name = 
REMARK  3 active torsions:
REMARK  status: ('A' for Active; 'I' for Inactive)
REMARK    1  A    between atoms: C_1  and  C_2
REMARK    2  A    between atoms: C_8  and  C_9
REMARK    3  A    between atoms: C_16  and  C_18
REMARK                            x       y       z     vdW  Elec       q    Type
REMARK                         _______ _______ _______ _____ _____    ______ ____
ROOT
ATOM      1  C   UNL     1       4.302   4.687  19.069  0.00  0.00    +0.000 C 
ATOM      2  C   UNL     1       4.068   3.254  19.676  0.00  0.00    +0.000 C 
ATOM      3  O   UNL     1       4.975   2.451  19.888  0.00  0.00    +0.000 OA
ATOM      4  N   UNL     1       2.789   2.888  20.014  0.00  0.00    +0.000 N 
ATOM      5  C   UNL     1       1.633   3.680  19.687  0.00  0.00    +0.000 C 
ATOM      6  C   UNL     1       1.956   5.163  19.779  0.00  0.00    +0.000 C 
ATOM      7  N   UNL     1       3.094   5.567  18.950  0.00  0.00    +0.000 N 
ATOM      8  C   UNL     1       3.266   6.886  18.497  0.00  0.00    +0.000 C 
ATOM      9  O   UNL     1       4.233   7.243  17.824  0.00  0.00    +0.000 OA
ATOM     10  H   UNL     1       2.690   1.925  20.317  0.00  0.00    +0.000 HD
ENDROOT
BRANCH   8  11
ATOM     11  C   UNL     1       2.228   7.935  18.825  0.00  0.00    +0.000 A 
ATOM     12  C   UNL     1       1.510   8.702  17.804  0.00  0.00    +0.000 A 
ATOM     13  C   UNL     1       0.686   9.718  18.115  0.00  0.00    +0.000 A 
ATOM     14  C   UNL     1       0.368   9.963  19.475  0.00  0.00    +0.000 A 
ATOM     15  N   UNL     1      -0.416  10.864  20.028  0.00  0.00    +0.000 NA
ATOM     16  C   UNL     1      -0.460  10.530  21.356  0.00  0.00    +0.000 A 
ATOM     17  C   UNL     1       0.319   9.425  21.616  0.00  0.00    +0.000 A 
ATOM     18  N   UNL     1       0.899   9.089  20.419  0.00  0.00    +0.000 N 
ATOM     19  C   UNL     1       1.836   8.098  20.110  0.00  0.00    +0.000 A 
ENDBRANCH   8  11
BRANCH   1  27
ATOM     20  C   UNL     1       7.275   5.499  18.916  0.00  0.00    +0.000 C 
ATOM     21  C   UNL     1       6.530   4.926  17.745  0.00  0.00    +0.000 A 
ATOM     22  C   UNL     1       7.216   4.804  16.522  0.00  0.00    +0.000 A 
ATOM     23  C   UNL     1       6.577   4.311  15.394  0.00  0.00    +0.000 A 
ATOM     24  F   UNL     1       7.257   4.186  14.246  0.00  0.00    +0.000 F 
ATOM     25  C   UNL     1       5.241   3.947  15.438  0.00  0.00    +0.000 A 
ATOM     26  C   UNL     1       4.540   4.078  16.635  0.00  0.00    +0.000 A 
ATOM     27  C   UNL     1       5.167   4.558  17.810  0.00  0.00    +0.000 A 
ENDBRANCH   1  27
TORSDOF 2
ENDMDL
MODEL 2
REMARK VINA RESULT:      -9.0      0.676      1.349
REMARK  Name = 
REMARK  3 active torsions:
REMARK  status: ('A' for Active; 'I' for Inactive)
REMARK    1  A    between atoms: C_1  and  C_2
REMARK    2  A    between atoms: C_8  and  C_9
REMARK    3  A    between atoms: C_16  and  C_18
REMARK                            x       y       z     vdW  Elec       q    Type
REMARK                         _______ _______ _______ _____ _____    ______ ____
ROOT
ATOM      1  C   UNL     1       4.203   4.473  19.314  0.00  0.00    +0.000 C 
ATOM      2  C   UNL     1       3.969   2.993  19.795  0.00  0.00    +0.000 C 
ATOM      3  O   UNL     1       4.874   2.169  19.918  0.00  0.00    +0.000 OA
ATOM      4  N   UNL     1       2.695   2.605  20.123  0.00  0.00    +0.000 N 
ATOM      5  C   UNL     1       1.538   3.430  19.890  0.00  0.00    +0.000 C 
ATOM      6  C   UNL     1       1.874   4.898  20.107  0.00  0.00    +0.000 C 
ATOM      7  N   UNL     1       3.000   5.367  19.296  0.00  0.00    +0.000 N 
ATOM      8  C   UNL     1       3.173   6.720  18.959  0.00  0.00    +0.000 C 
ATOM      9  O   UNL     1       4.130   7.130  18.302  0.00  0.00    +0.000 OA
ATOM     10  H   UNL     1       2.595   1.620  20.341  0.00  0.00    +0.000 HD
ENDROOT
BRANCH   8  11
ATOM     11  C   UNL     1       2.148   7.741  19.398  0.00  0.00    +0.000 A 
ATOM     12  C   UNL     1       1.695   7.880  20.784  0.00  0.00    +0.000 A 
ATOM     13  C   UNL     1       0.691   8.704  21.134  0.00  0.00    +0.000 A 
ATOM     14  C   UNL     1       0.152   9.591  20.168  0.00  0.00    +0.000 A 
ATOM     15  N   UNL     1      -0.799  10.495  20.264  0.00  0.00    +0.000 NA
ATOM     16  C   UNL     1      -0.787  11.153  19.061  0.00  0.00    +0.000 A 
ATOM     17  C   UNL     1       0.169  10.632  18.220  0.00  0.00    +0.000 A 
ATOM     18  N   UNL     1       0.741   9.589  18.906  0.00  0.00    +0.000 N 
ATOM     19  C   UNL     1       1.711   8.664  18.510  0.00  0.00    +0.000 A 
ENDBRANCH   8  11
BRANCH   1  27
ATOM     20  C   UNL     1       7.139   5.408  19.150  0.00  0.00    +0.000 C 
ATOM     21  C   UNL     1       6.390   4.876  17.961  0.00  0.00    +0.000 A 
ATOM     22  C   UNL     1       7.053   4.853  16.720  0.00  0.00    +0.000 A 
ATOM     23  C   UNL     1       6.408   4.402  15.577  0.00  0.00    +0.000 A 
ATOM     24  F   UNL     1       7.066   4.372  14.411  0.00  0.00    +0.000 F 
ATOM     25  C   UNL     1       5.088   3.984  15.627  0.00  0.00    +0.000 A 
ATOM     26  C   UNL     1       4.409   4.017  16.844  0.00  0.00    +0.000 A 
ATOM     27  C   UNL     1       5.044   4.452  18.032  0.00  0.00    +0.000 A 
ENDBRANCH   1  27
TORSDOF 2
ENDMDL
MODEL 3
REMARK VINA RESULT:      -8.9      0.879      1.985
REMARK  Name = 
REMARK  3 active torsions:
REMARK  status: ('A' for Active; 'I' for Inactive)
REMARK    1  A    between atoms: C_1  and  C_2
REMARK    2  A    between atoms: C_8  and  C_9
REMARK    3  A    between atoms: C_16  and  C_18
REMARK                            x       y       z     vdW  Elec       q    Type
REMARK                         _______ _______ _______ _____ _____    ______ ____
ROOT
ATOM      1  C   UNL     1       4.101   4.440  19.518  0.00  0.00    +0.000 C 
ATOM      2  C   UNL     1       3.917   2.991  20.104  0.00  0.00    +0.000 C 
ATOM      3  O   UNL     1       4.831   2.171  20.186  0.00  0.00    +0.000 OA
ATOM      4  N   UNL     1       2.681   2.629  20.577  0.00  0.00    +0.000 N 
ATOM      5  C   UNL     1       1.506   3.444  20.410  0.00  0.00    +0.000 C 
ATOM      6  C   UNL     1       1.860   4.920  20.508  0.00  0.00    +0.000 C 
ATOM      7  N   UNL     1       2.900   5.336  19.566  0.00  0.00    +0.000 N 
ATOM      8  C   UNL     1       3.039   6.667  19.135  0.00  0.00    +0.000 C 
ATOM      9  O   UNL     1       3.927   7.034  18.366  0.00  0.00    +0.000 OA
ATOM     10  H   UNL     1       2.604   1.658  20.861  0.00  0.00    +0.000 HD
ENDROOT
BRANCH   8  11
ATOM     11  C   UNL     1       2.061   7.716  19.612  0.00  0.00    +0.000 A 
ATOM     12  C   UNL     1       1.628   7.837  21.006  0.00  0.00    +0.000 A 
ATOM     13  C   UNL     1       0.662   8.691  21.388  0.00  0.00    +0.000 A 
ATOM     14  C   UNL     1       0.149   9.624  20.451  0.00  0.00    +0.000 A 
ATOM     15  N   UNL     1      -0.764  10.562  20.581  0.00  0.00    +0.000 NA
ATOM     16  C   UNL     1      -0.739  11.250  19.396  0.00  0.00    +0.000 A 
ATOM     17  C   UNL     1       0.187  10.713  18.531  0.00  0.00    +0.000 A 
ATOM     18  N   UNL     1       0.723   9.631  19.184  0.00  0.00    +0.000 N 
ATOM     19  C   UNL     1       1.652   8.679  18.753  0.00  0.00    +0.000 A 
ENDBRANCH   8  11
BRANCH   1  27
ATOM     20  C   UNL     1       2.753   3.469  16.918  0.00  0.00    +0.000 C 
ATOM     21  C   UNL     1       4.190   3.900  16.973  0.00  0.00    +0.000 A 
ATOM     22  C   UNL     1       4.953   3.806  15.794  0.00  0.00    +0.000 A 
ATOM     23  C   UNL     1       6.295   4.160  15.785  0.00  0.00    +0.000 A 
ATOM     24  F   UNL     1       6.995   4.080  14.645  0.00  0.00    +0.000 F 
ATOM     25  C   UNL     1       6.922   4.592  16.942  0.00  0.00    +0.000 A 
ATOM     26  C   UNL     1       6.188   4.673  18.124  0.00  0.00    +0.000 A 
ATOM     27  C   UNL     1       4.813   4.340  18.163  0.00  0.00    +0.000 A 
ENDBRANCH   1  27
TORSDOF 2
ENDMDL
MODEL 4
REMARK VINA RESULT:      -8.7      0.483      1.447
REMARK  Name = 
REMARK  3 active torsions:
REMARK  status: ('A' for Active; 'I' for Inactive)
REMARK    1  A    between atoms: C_1  and  C_2
REMARK    2  A    between atoms: C_8  and  C_9
REMARK    3  A    between atoms: C_16  and  C_18
REMARK                            x       y       z     vdW  Elec       q    Type
REMARK                         _______ _______ _______ _____ _____    ______ ____
ROOT
ATOM      1  C   UNL     1       4.159   4.683  19.282  0.00  0.00    +0.000 C 
ATOM      2  C   UNL     1       3.968   3.278  19.965  0.00  0.00    +0.000 C 
ATOM      3  O   UNL     1       4.883   2.471  20.124  0.00  0.00    +0.000 OA
ATOM      4  N   UNL     1       2.723   2.943  20.434  0.00  0.00    +0.000 N 
ATOM      5  C   UNL     1       1.550   3.738  20.185  0.00  0.00    +0.000 C 
ATOM      6  C   UNL     1       1.895   5.219  20.187  0.00  0.00    +0.000 C 
ATOM      7  N   UNL     1       2.955   5.574  19.240  0.00  0.00    +0.000 N 
ATOM      8  C   UNL     1       3.098   6.871  18.720  0.00  0.00    +0.000 C 
ATOM      9  O   UNL     1       4.001   7.188  17.946  0.00  0.00    +0.000 OA
ATOM     10  H   UNL     1       2.643   1.994  20.784  0.00  0.00    +0.000 HD
ENDROOT
BRANCH   8  11
ATOM     11  C   UNL     1       2.105   7.947  19.100  0.00  0.00    +0.000 A 
ATOM     12  C   UNL     1       1.415   8.788  18.119  0.00  0.00    +0.000 A 
ATOM     13  C   UNL     1       0.635   9.822  18.480  0.00  0.00    +0.000 A 
ATOM     14  C   UNL     1       0.334  10.020  19.852  0.00  0.00    +0.000 A 
ATOM     15  N   UNL     1      -0.410  10.926  20.449  0.00  0.00    +0.000 NA
ATOM     16  C   UNL     1      -0.462  10.535  21.761  0.00  0.00    +0.000 A 
ATOM     17  C   UNL     1       0.272   9.389  21.967  0.00  0.00    +0.000 A 
ATOM     18  N   UNL     1       0.833   9.083  20.752  0.00  0.00    +0.000 N 
ATOM     19  C   UNL     1       1.726   8.069  20.394  0.00  0.00    +0.000 A 
ENDBRANCH   8  11
BRANCH   1  27
ATOM     20  C   UNL     1       2.878   3.507  16.733  0.00  0.00    +0.000 C 
ATOM     21  C   UNL     1       4.310   3.958  16.786  0.00  0.00    +0.000 A 
ATOM     22  C   UNL     1       5.098   3.787  15.633  0.00  0.00    +0.000 A 
ATOM     23  C   UNL     1       6.437   4.154  15.627  0.00  0.00    +0.000 A 
ATOM     24  F   UNL     1       7.162   3.999  14.510  0.00  0.00    +0.000 F 
ATOM     25  C   UNL     1       7.034   4.677  16.761  0.00  0.00    +0.000 A 
ATOM     26  C   UNL     1       6.273   4.836  17.918  0.00  0.00    +0.000 A 
ATOM     27  C   UNL     1       4.901   4.492  17.954  0.00  0.00    +0.000 A 
ENDBRANCH   1  27
TORSDOF 2
ENDMDL
MODEL 5
REMARK VINA RESULT:      -7.3      3.763      7.994
REMARK  Name = 
REMARK  3 active torsions:
REMARK  status: ('A' for Active; 'I' for Inactive)
REMARK    1  A    between atoms: C_1  and  C_2
REMARK    2  A    between atoms: C_8  and  C_9
REMARK    3  A    between atoms: C_16  and  C_18
REMARK                            x       y       z     vdW  Elec       q    Type
REMARK                         _______ _______ _______ _____ _____    ______ ____
ROOT
ATOM      1  C   UNL     1       0.188  10.235  20.065  0.00  0.00    +0.000 C 
ATOM      2  C   UNL     1      -0.360  10.326  21.538  0.00  0.00    +0.000 C 
ATOM      3  O   UNL     1      -1.290  11.059  21.872  0.00  0.00    +0.000 OA
ATOM      4  N   UNL     1       0.209   9.526  22.497  0.00  0.00    +0.000 N 
ATOM      5  C   UNL     1       1.387   8.734  22.262  0.00  0.00    +0.000 C 
ATOM      6  C   UNL     1       1.394   8.192  20.841  0.00  0.00    +0.000 C 
ATOM      7  N   UNL     1       1.273   9.232  19.817  0.00  0.00    +0.000 N 
ATOM      8  C   UNL     1       1.733   9.052  18.501  0.00  0.00    +0.000 C 
ATOM      9  O   UNL     1       1.612   9.908  17.626  0.00  0.00    +0.000 OA
ATOM     10  H   UNL     1      -0.127   9.692  23.440  0.00  0.00    +0.000 HD
ENDROOT
BRANCH   8  11
ATOM     11  C   UNL     1       2.423   7.763  18.117  0.00  0.00    +0.000 A 
ATOM     12  C   UNL     1       1.783   6.449  18.212  0.00  0.00    +0.000 A 
ATOM     13  C   UNL     1       2.453   5.304  17.989  0.00  0.00    +0.000 A 
ATOM     14  C   UNL     1       3.778   5.361  17.489  0.00  0.00    +0.000 A 
ATOM     15  N   UNL     1       4.622   4.402  17.172  0.00  0.00    +0.000 NA
ATOM     16  C   UNL     1       5.690   5.043  16.601  0.00  0.00    +0.000 A 
ATOM     17  C   UNL     1       5.502   6.406  16.587  0.00  0.00    +0.000 A 
ATOM     18  N   UNL     1       4.297   6.622  17.208  0.00  0.00    +0.000 N 
ATOM     19  C   UNL     1       3.644   7.814  17.535  0.00  0.00    +0.000 A 
ENDBRANCH   8  11
BRANCH   1  27
ATOM     20  C   UNL     1      -1.625  11.706  18.047  0.00  0.00    +0.000 C 
ATOM     21  C   UNL     1      -0.385  12.326  18.625  0.00  0.00    +0.000 A 
ATOM     22  C   UNL     1      -0.023  13.612  18.182  0.00  0.00    +0.000 A 
ATOM     23  C   UNL     1       1.128  14.229  18.653  0.00  0.00    +0.000 A 
ATOM     24  F   UNL     1       1.440  15.461  18.231  0.00  0.00    +0.000 F 
ATOM     25  C   UNL     1       1.959  13.584  19.554  0.00  0.00    +0.000 A 
ATOM     26  C   UNL     1       1.627  12.303  19.989  0.00  0.00    +0.000 A 
ATOM     27  C   UNL     1       0.450  11.654  19.545  0.00  0.00    +0.000 A 
ENDBRANCH   1  27
TORSDOF 2
ENDMDL
MODEL 6
REMARK VINA RESULT:      -7.1      3.714      7.874
REMARK  Name = 
REMARK  3 active torsions:
REMARK  status: ('A' for Active; 'I' for Inactive)
REMARK    1  A    between atoms: C_1  and  C_2
REMARK    2  A    between atoms: C_8  and  C_9
REMARK    3  A    between atoms: C_16  and  C_18
REMARK                            x       y       z     vdW  Elec       q    Type
REMARK                         _______ _______ _______ _____ _____    ______ ____
ROOT
ATOM      1  C   UNL     1       0.242  10.214  20.078  0.00  0.00    +0.000 C 
ATOM      2  C   UNL     1      -0.298  10.327  21.552  0.00  0.00    +0.000 C 
ATOM      3  O   UNL     1      -1.220  11.072  21.881  0.00  0.00    +0.000 OA
ATOM      4  N   UNL     1       0.267   9.534  22.518  0.00  0.00    +0.000 N 
ATOM      5  C   UNL     1       1.438   8.728  22.288  0.00  0.00    +0.000 C 
ATOM      6  C   UNL     1       1.434   8.169  20.873  0.00  0.00    +0.000 C 
ATOM      7  N   UNL     1       1.318   9.198  19.838  0.00  0.00    +0.000 N 
ATOM      8  C   UNL     1       1.771   8.998  18.522  0.00  0.00    +0.000 C 
ATOM      9  O   UNL     1       1.653   9.844  17.637  0.00  0.00    +0.000 OA
ATOM     10  H   UNL     1      -0.063   9.714  23.460  0.00  0.00    +0.000 HD
ENDROOT
BRANCH   8  11
ATOM     11  C   UNL     1       2.448   7.698  18.151  0.00  0.00    +0.000 A 
ATOM     12  C   UNL     1       3.860   7.607  17.770  0.00  0.00    +0.000 A 
ATOM     13  C   UNL     1       4.411   6.467  17.319  0.00  0.00    +0.000 A 
ATOM     14  C   UNL     1       3.657   5.267  17.359  0.00  0.00    +0.000 A 
ATOM     15  N   UNL     1       3.971   4.039  17.005  0.00  0.00    +0.000 NA
ATOM     16  C   UNL     1       2.910   3.271  17.409  0.00  0.00    +0.000 A 
ATOM     17  C   UNL     1       1.934   4.042  17.998  0.00  0.00    +0.000 A 
ATOM     18  N   UNL     1       2.384   5.336  17.919  0.00  0.00    +0.000 N 
ATOM     19  C   UNL     1       1.770   6.536  18.292  0.00  0.00    +0.000 A 
ENDBRANCH   8  11
BRANCH   1  27
ATOM     20  C   UNL     1      -1.581  11.688  18.072  0.00  0.00    +0.000 C 
ATOM     21  C   UNL     1      -0.325  12.298  18.625  0.00  0.00    +0.000 A 
ATOM     22  C   UNL     1       0.047  13.575  18.164  0.00  0.00    +0.000 A 
ATOM     23  C   UNL     1       1.212  14.181  18.612  0.00  0.00    +0.000 A 
ATOM     24  F   UNL     1       1.534  15.405  18.173  0.00  0.00    +0.000 F 
ATOM     25  C   UNL     1       2.049  13.535  19.507  0.00  0.00    +0.000 A 
ATOM     26  C   UNL     1       1.706  12.262  19.960  0.00  0.00    +0.000 A 
ATOM     27  C   UNL     1       0.515  11.623  19.540  0.00  0.00    +0.000 A 
ENDBRANCH   1  27
TORSDOF 2
ENDMDL
MODEL 7
REMARK VINA RESULT:      -7.0      3.781      8.176
REMARK  Name = 
REMARK  3 active torsions:
REMARK  status: ('A' for Active; 'I' for Inactive)
REMARK    1  A    between atoms: C_1  and  C_2
REMARK    2  A    between atoms: C_8  and  C_9
REMARK    3  A    between atoms: C_16  and  C_18
REMARK                            x       y       z     vdW  Elec       q    Type
REMARK                         _______ _______ _______ _____ _____    ______ ____
ROOT
ATOM      1  C   UNL     1      -0.288  10.699  20.670  0.00  0.00    +0.000 C 
ATOM      2  C   UNL     1      -1.078  11.105  21.969  0.00  0.00    +0.000 C 
ATOM      3  O   UNL     1      -1.940  11.982  21.993  0.00  0.00    +0.000 OA
ATOM      4  N   UNL     1      -0.816  10.426  23.133  0.00  0.00    +0.000 N 
ATOM      5  C   UNL     1       0.261   9.481  23.265  0.00  0.00    +0.000 C 
ATOM      6  C   UNL     1       0.452   8.702  21.972  0.00  0.00    +0.000 C 
ATOM      7  N   UNL     1       0.671   9.555  20.802  0.00  0.00    +0.000 N 
ATOM      8  C   UNL     1       1.335   9.098  19.650  0.00  0.00    +0.000 C 
ATOM      9  O   UNL     1       1.500   9.796  18.651  0.00  0.00    +0.000 OA
ATOM     10  H   UNL     1      -1.291  10.790  23.951  0.00  0.00    +0.000 HD
ENDROOT
BRANCH   8  11
ATOM     11  C   UNL     1       1.894   7.694  19.612  0.00  0.00    +0.000 A 
ATOM     12  C   UNL     1       1.507   6.649  20.563  0.00  0.00    +0.000 A 
ATOM     13  C   UNL     1       2.109   5.446  20.594  0.00  0.00    +0.000 A 
ATOM     14  C   UNL     1       3.037   5.107  19.577  0.00  0.00    +0.000 A 
ATOM     15  N   UNL     1       3.728   4.006  19.374  0.00  0.00    +0.000 NA
ATOM     16  C   UNL     1       4.338   4.189  18.161  0.00  0.00    +0.000 A 
ATOM     17  C   UNL     1       4.028   5.420  17.629  0.00  0.00    +0.000 A 
ATOM     18  N   UNL     1       3.234   6.039  18.563  0.00  0.00    +0.000 N 
ATOM     19  C   UNL     1       2.692   7.327  18.583  0.00  0.00    +0.000 A 
ENDBRANCH   8  11
BRANCH   1  27
ATOM     20  C   UNL     1      -1.485  12.000  18.141  0.00  0.00    +0.000 C 
ATOM     21  C   UNL     1      -0.289  12.564  18.854  0.00  0.00    +0.000 A 
ATOM     22  C   UNL     1       0.328  13.704  18.306  0.00  0.00    +0.000 A 
ATOM     23  C   UNL     1       1.455  14.256  18.899  0.00  0.00    +0.000 A 
ATOM     24  F   UNL     1       2.012  15.354  18.370  0.00  0.00    +0.000 F 
ATOM     25  C   UNL     1       2.013  13.684  20.030  0.00  0.00    +0.000 A 
ATOM     26  C   UNL     1       1.427  12.543  20.575  0.00  0.00    +0.000 A 
ATOM     27  C   UNL     1       0.265  11.967  20.009  0.00  0.00    +0.000 A 
ENDBRANCH   1  27
TORSDOF 2
ENDMDL
MODEL 8
REMARK VINA RESULT:      -7.0      1.513      1.584
REMARK  Name = 
REMARK  3 active torsions:
REMARK  status: ('A' for Active; 'I' for Inactive)
REMARK    1  A    between atoms: C_1  and  C_2
REMARK    2  A    between atoms: C_8  and  C_9
REMARK    3  A    between atoms: C_16  and  C_18
REMARK                            x       y       z     vdW  Elec       q    Type
REMARK                         _______ _______ _______ _____ _____    ______ ____
ROOT
ATOM      1  C   UNL     1       4.524   5.654  18.522  0.00  0.00    +0.000 C 
ATOM      2  C   UNL     1       4.469   4.358  19.414  0.00  0.00    +0.000 C 
ATOM      3  O   UNL     1       5.453   3.664  19.663  0.00  0.00    +0.000 OA
ATOM      4  N   UNL     1       3.266   3.997  19.968  0.00  0.00    +0.000 N 
ATOM      5  C   UNL     1       2.024   4.645  19.640  0.00  0.00    +0.000 C 
ATOM      6  C   UNL     1       2.240   6.132  19.408  0.00  0.00    +0.000 C 
ATOM      7  N   UNL     1       3.246   6.425  18.385  0.00  0.00    +0.000 N 
ATOM      8  C   UNL     1       3.265   7.636  17.672  0.00  0.00    +0.000 C 
ATOM      9  O   UNL     1       4.122   7.905  16.831  0.00  0.00    +0.000 OA
ATOM     10  H   UNL     1       3.276   3.109  20.459  0.00  0.00    +0.000 HD
ENDROOT
BRANCH   8  11
ATOM     11  C   UNL     1       2.191   8.671  17.919  0.00  0.00    +0.000 A 
ATOM     12  C   UNL     1       0.764   8.412  17.713  0.00  0.00    +0.000 A 
ATOM     13  C   UNL     1      -0.165   9.380  17.813  0.00  0.00    +0.000 A 
ATOM     14  C   UNL     1       0.216  10.661  18.288  0.00  0.00    +0.000 A 
ATOM     15  N   UNL     1      -0.494  11.749  18.495  0.00  0.00    +0.000 NA
ATOM     16  C   UNL     1       0.367  12.626  19.101  0.00  0.00    +0.000 A 
ATOM     17  C   UNL     1       1.618  12.071  19.248  0.00  0.00    +0.000 A 
ATOM     18  N   UNL     1       1.543  10.825  18.676  0.00  0.00    +0.000 N 
ATOM     19  C   UNL     1       2.530   9.856  18.476  0.00  0.00    +0.000 A 
ENDBRANCH   8  11
BRANCH   1  27
ATOM     20  C   UNL     1       7.334   6.701  17.794  0.00  0.00    +0.000 C 
ATOM     21  C   UNL     1       6.543   5.802  16.886  0.00  0.00    +0.000 A 
ATOM     22  C   UNL     1       7.101   5.472  15.637  0.00  0.00    +0.000 A 
ATOM     23  C   UNL     1       6.409   4.671  14.739  0.00  0.00    +0.000 A 
ATOM     24  F   UNL     1       6.969   4.355  13.564  0.00  0.00    +0.000 F 
ATOM     25  C   UNL     1       5.143   4.196  15.042  0.00  0.00    +0.000 A 
ATOM     26  C   UNL     1       4.568   4.528  16.267  0.00  0.00    +0.000 A 
ATOM     27  C   UNL     1       5.254   5.325  17.214  0.00  0.00    +0.000 A 
ENDBRANCH   1  27
TORSDOF 2
ENDMDL
MODEL 9
REMARK VINA RESULT:      -7.0      1.528      1.817
REMARK  Name = 
REMARK  3 active torsions:
REMARK  status: ('A' for Active; 'I' for Inactive)
REMARK    1  A    between atoms: C_1  and  C_2
REMARK    2  A    between atoms: C_8  and  C_9
REMARK    3  A    between atoms: C_16  and  C_18
REMARK                            x       y       z     vdW  Elec       q    Type
REMARK                         _______ _______ _______ _____ _____    ______ ____
ROOT
ATOM      1  C   UNL     1       4.411   5.770  18.568  0.00  0.00    +0.000 C 
ATOM      2  C   UNL     1       4.361   4.518  19.520  0.00  0.00    +0.000 C 
ATOM      3  O   UNL     1       5.333   3.800  19.749  0.00  0.00    +0.000 OA
ATOM      4  N   UNL     1       3.179   4.225  20.153  0.00  0.00    +0.000 N 
ATOM      5  C   UNL     1       1.943   4.902  19.862  0.00  0.00    +0.000 C 
ATOM      6  C   UNL     1       2.196   6.369  19.551  0.00  0.00    +0.000 C 
ATOM      7  N   UNL     1       3.155   6.580  18.464  0.00  0.00    +0.000 N 
ATOM      8  C   UNL     1       3.176   7.757  17.696  0.00  0.00    +0.000 C 
ATOM      9  O   UNL     1       3.995   7.957  16.800  0.00  0.00    +0.000 OA
ATOM     10  H   UNL     1       3.185   3.360  20.683  0.00  0.00    +0.000 HD
ENDROOT
BRANCH   8  11
ATOM     11  C   UNL     1       2.152   8.840  17.951  0.00  0.00    +0.000 A 
ATOM     12  C   UNL     1       2.491  10.152  18.506  0.00  0.00    +0.000 A 
ATOM     13  C   UNL     1       1.552  11.053  18.846  0.00  0.00    +0.000 A 
ATOM     14  C   UNL     1       0.197  10.804  18.514  0.00  0.00    +0.000 A 
ATOM     15  N   UNL     1      -0.886  11.525  18.712  0.00  0.00    +0.000 NA
ATOM     16  C   UNL     1      -1.883  10.859  18.049  0.00  0.00    +0.000 A 
ATOM     17  C   UNL     1      -1.405   9.713  17.456  0.00  0.00    +0.000 A 
ATOM     18  N   UNL     1      -0.077   9.642  17.799  0.00  0.00    +0.000 N 
ATOM     19  C   UNL     1       0.877   8.655  17.536  0.00  0.00    +0.000 A 
ENDBRANCH   8  11
BRANCH   1  27
ATOM     20  C   UNL     1       7.194   6.714  17.628  0.00  0.00    +0.000 C 
ATOM     21  C   UNL     1       6.335   5.788  16.815  0.00  0.00    +0.000 A 
ATOM     22  C   UNL     1       6.813   5.381  15.555  0.00  0.00    +0.000 A 
ATOM     23  C   UNL     1       6.055   4.551  14.742  0.00  0.00    +0.000 A 
ATOM     24  F   UNL     1       6.539   4.162  13.555  0.00  0.00    +0.000 F 
ATOM     25  C   UNL     1       4.800   4.121  15.141  0.00  0.00    +0.000 A 
ATOM     26  C   UNL     1       4.303   4.529  16.377  0.00  0.00    +0.000 A 
ATOM     27  C   UNL     1       5.058   5.358  17.240  0.00  0.00    +0.000 A 
ENDBRANCH   1  27
TORSDOF 2
ENDMDL
