MODEL 1
REMARK VINA RESULT:      -8.5      0.000      0.000
REMARK  Name = 
REMARK  8 active torsions:
REMARK  status: ('A' for Active; 'I' for Inactive)
REMARK    1  A    between atoms: C_1  and  C_2
REMARK    2  A    between atoms: C_2  and  C_3
REMARK    3  A    between atoms: C_3  and  C_4
REMARK    4  A    between atoms: C_4  and  N_5
REMARK    5  A    between atoms: C_9  and  C_10
REMARK    6  A    between atoms: C_10  and  N_11
REMARK    7  A    between atoms: C_15  and  C_16
REMARK    8  A    between atoms: C_15  and  C_22
REMARK                            x       y       z     vdW  Elec       q    Type
REMARK                         _______ _______ _______ _____ _____    ______ ____
ROOT
ATOM      1  N   UNL     1       5.199   3.977  17.710  0.00  0.00    +0.000 N 
ATOM      2  C   UNL     1       5.834   4.693  18.668  0.00  0.00    +0.000 C 
ATOM      3  O   UNL     1       7.029   4.922  18.755  0.00  0.00    +0.000 OA
ATOM      4  N   UNL     1       4.900   5.238  19.513  0.00  0.00    +0.000 N 
ATOM      5  C   UNL     1       3.550   5.164  18.975  0.00  0.00    +0.000 C 
ATOM      6  C   UNL     1       3.894   4.385  17.663  0.00  0.00    +0.000 C 
ATOM      7  O   UNL     1       3.130   4.149  16.732  0.00  0.00    +0.000 OA
ATOM      8  H   UNL     1       5.197   5.985  20.124  0.00  0.00    +0.000 HD
ENDROOT
BRANCH   5   9
ATOM      9  C   UNL     1       2.619   4.297  19.835  0.00  0.00    +0.000 A 
ATOM     10  C   UNL     1       1.385   3.821  19.356  0.00  0.00    +0.000 A 
ATOM     11  C   UNL     1       0.577   2.997  20.144  0.00  0.00    +0.000 A 
ATOM     12  C   UNL     1       0.977   2.646  21.431  0.00  0.00    +0.000 A 
ATOM     13  C   UNL     1       2.189   3.108  21.929  0.00  0.00    +0.000 A 
ATOM     14  C   UNL     1       3.009   3.912  21.134  0.00  0.00    +0.000 A 
ENDBRANCH   5   9
BRANCH   5  15
ATOM     15  C   UNL     1       3.052   6.609  18.796  0.00  0.00    +0.000 A 
ATOM     16  C   UNL     1       2.176   7.230  19.702  0.00  0.00    +0.000 A 
ATOM     17  C   UNL     1       1.651   8.501  19.443  0.00  0.00    +0.000 A 
ATOM     18  C   UNL     1       1.984   9.171  18.265  0.00  0.00    +0.000 A 
ATOM     19  C   UNL     1       2.848   8.579  17.356  0.00  0.00    +0.000 A 
ATOM     20  C   UNL     1       3.374   7.318  17.607  0.00  0.00    +0.000 A 
ENDBRANCH   5  15
BRANCH   1  21
ATOM     21  C   UNL     1       5.858   3.315  16.614  0.00  0.00    +0.000 C 
BRANCH  21  26
ATOM     22  N   UNL     1       6.178   4.552  14.338  0.00  0.00    +0.000 N 
ATOM     23  N   UNL     1       7.022   5.503  13.886  0.00  0.00    +0.000 NA
ATOM     24  N   UNL     1       7.854   5.752  14.880  0.00  0.00    +0.000 NA
ATOM     25  N   UNL     1       7.557   4.977  15.962  0.00  0.00    +0.000 NA
ATOM     26  C   UNL     1       6.520   4.224  15.633  0.00  0.00    +0.000 A 
BRANCH  22  27
ATOM     27  C   UNL     1       5.257   3.988  13.381  0.00  0.00    +0.000 C 
BRANCH  27  28
ATOM     28  C   UNL     1       5.869   3.182  12.231  0.00  0.00    +0.000 C 
BRANCH  28  30
ATOM     29  C   UNL     1       3.641   3.306  10.920  0.00  0.00    +0.000 C 
ATOM     30  C   UNL     1       4.911   2.524  11.229  0.00  0.00    +0.000 C 
ENDBRANCH  28  30
ENDBRANCH  27  28
ENDBRANCH  22  27
ENDBRANCH  21  26
ENDBRANCH   1  21
TORSDOF 7
ENDMDL
MODEL 2
REMARK VINA RESULT:      -8.5      0.474      1.013
REMARK  Name = 
REMARK  8 active torsions:
REMARK  status: ('A' for Active; 'I' for Inactive)
REMARK    1  A    between atoms: C_1  and  C_2
REMARK    2  A    between atoms: C_2  and  C_3
REMARK    3  A    between atoms: C_3  and  C_4
REMARK    4  A    between atoms: C_4  and  N_5
REMARK    5  A    between atoms: C_9  and  C_10
REMARK    6  A    between atoms: C_10  and  N_11
REMARK    7  A    between atoms: C_15  and  C_16
REMARK    8  A    between atoms: C_15  and  C_22
REMARK                            x       y       z     vdW  Elec       q    Type
REMARK                         _______ _______ _______ _____ _____    ______ ____
ROOT
ATOM      1  N   UNL     1       5.544   4.320  18.156  0.00  0.00    +0.000 N 
ATOM      2  C   UNL     1       5.923   5.150  19.157  0.00  0.00    +0.000 C 
ATOM      3  O   UNL     1       7.051   5.530  19.421  0.00  0.00    +0.000 OA
ATOM      4  N   UNL     1       4.803   5.610  19.803  0.00  0.00    +0.000 N 
ATOM      5  C   UNL     1       3.580   5.345  19.060  0.00  0.00    +0.000 C 
ATOM      6  C   UNL     1       4.227   4.559  17.874  0.00  0.00    +0.000 C 
ATOM      7  O   UNL     1       3.664   4.190  16.848  0.00  0.00    +0.000 OA
ATOM      8  H   UNL     1       4.904   6.414  20.406  0.00  0.00    +0.000 HD
ENDROOT
BRANCH   5   9
ATOM      9  C   UNL     1       2.625   4.406  19.813  0.00  0.00    +0.000 A 
ATOM     10  C   UNL     1       1.467   3.880  19.211  0.00  0.00    +0.000 A 
ATOM     11  C   UNL     1       0.638   2.993  19.904  0.00  0.00    +0.000 A 
ATOM     12  C   UNL     1       0.939   2.628  21.213  0.00  0.00    +0.000 A 
ATOM     13  C   UNL     1       2.074   3.140  21.831  0.00  0.00    +0.000 A 
ATOM     14  C   UNL     1       2.916   4.008  21.133  0.00  0.00    +0.000 A 
ENDBRANCH   5   9
BRANCH   5  15
ATOM     15  C   UNL     1       2.955   6.708  18.712  0.00  0.00    +0.000 A 
ATOM     16  C   UNL     1       3.318   7.442  17.571  0.00  0.00    +0.000 A 
ATOM     17  C   UNL     1       2.816   8.730  17.352  0.00  0.00    +0.000 A 
ATOM     18  C   UNL     1       1.950   9.312  18.277  0.00  0.00    +0.000 A 
ATOM     19  C   UNL     1       1.575   8.607  19.410  0.00  0.00    +0.000 A 
ATOM     20  C   UNL     1       2.068   7.326  19.634  0.00  0.00    +0.000 A 
ENDBRANCH   5  15
BRANCH   1  21
ATOM     21  C   UNL     1       6.451   3.698  17.226  0.00  0.00    +0.000 C 
BRANCH  21  26
ATOM     22  N   UNL     1       6.418   4.495  14.740  0.00  0.00    +0.000 N 
ATOM     23  N   UNL     1       6.956   5.535  14.070  0.00  0.00    +0.000 NA
ATOM     24  N   UNL     1       7.675   6.201  14.953  0.00  0.00    +0.000 NA
ATOM     25  N   UNL     1       7.606   5.607  16.178  0.00  0.00    +0.000 NA
ATOM     26  C   UNL     1       6.831   4.542  16.054  0.00  0.00    +0.000 A 
BRANCH  22  27
ATOM     27  C   UNL     1       5.703   3.514  13.959  0.00  0.00    +0.000 C 
BRANCH  27  28
ATOM     28  C   UNL     1       5.672   3.733  12.442  0.00  0.00    +0.000 C 
BRANCH  28  30
ATOM     29  C   UNL     1       3.764   3.558  10.704  0.00  0.00    +0.000 C 
ATOM     30  C   UNL     1       4.751   2.832  11.608  0.00  0.00    +0.000 C 
ENDBRANCH  28  30
ENDBRANCH  27  28
ENDBRANCH  22  27
ENDBRANCH  21  26
ENDBRANCH   1  21
TORSDOF 7
ENDMDL
MODEL 3
REMARK VINA RESULT:      -8.4      0.498      1.148
REMARK  Name = 
REMARK  8 active torsions:
REMARK  status: ('A' for Active; 'I' for Inactive)
REMARK    1  A    between atoms: C_1  and  C_2
REMARK    2  A    between atoms: C_2  and  C_3
REMARK    3  A    between atoms: C_3  and  C_4
REMARK    4  A    between atoms: C_4  and  N_5
REMARK    5  A    between atoms: C_9  and  C_10
REMARK    6  A    between atoms: C_10  and  N_11
REMARK    7  A    between atoms: C_15  and  C_16
REMARK    8  A    between atoms: C_15  and  C_22
REMARK                            x       y       z     vdW  Elec       q    Type
REMARK                         _______ _______ _______ _____ _____    ______ ____
ROOT
ATOM      1  N   UNL     1       5.262   3.944  17.711  0.00  0.00    +0.000 N 
ATOM      2  C   UNL     1       5.886   4.661  18.675  0.00  0.00    +0.000 C 
ATOM      3  O   UNL     1       7.074   4.919  18.758  0.00  0.00    +0.000 OA
ATOM      4  N   UNL     1       4.943   5.170  19.534  0.00  0.00    +0.000 N 
ATOM      5  C   UNL     1       3.592   5.071  19.004  0.00  0.00    +0.000 C 
ATOM      6  C   UNL     1       3.946   4.320  17.679  0.00  0.00    +0.000 C 
ATOM      7  O   UNL     1       3.183   4.078  16.749  0.00  0.00    +0.000 OA
ATOM      8  H   UNL     1       5.226   5.916  20.155  0.00  0.00    +0.000 HD
ENDROOT
BRANCH   5   9
ATOM      9  C   UNL     1       2.689   4.167  19.857  0.00  0.00    +0.000 A 
ATOM     10  C   UNL     1       3.125   3.607  21.072  0.00  0.00    +0.000 A 
ATOM     11  C   UNL     1       2.269   2.824  21.851  0.00  0.00    +0.000 A 
ATOM     12  C   UNL     1       0.967   2.572  21.425  0.00  0.00    +0.000 A 
ATOM     13  C   UNL     1       0.515   3.109  20.226  0.00  0.00    +0.000 A 
ATOM     14  C   UNL     1       1.362   3.911  19.458  0.00  0.00    +0.000 A 
ENDBRANCH   5   9
BRANCH   5  15
ATOM     15  C   UNL     1       3.057   6.505  18.850  0.00  0.00    +0.000 A 
ATOM     16  C   UNL     1       2.263   7.130  19.826  0.00  0.00    +0.000 A 
ATOM     17  C   UNL     1       1.696   8.389  19.597  0.00  0.00    +0.000 A 
ATOM     18  C   UNL     1       1.904   9.042  18.382  0.00  0.00    +0.000 A 
ATOM     19  C   UNL     1       2.686   8.446  17.403  0.00  0.00    +0.000 A 
ATOM     20  C   UNL     1       3.253   7.197  17.624  0.00  0.00    +0.000 A 
ENDBRANCH   5  15
BRANCH   1  21
ATOM     21  C   UNL     1       5.930   3.315  16.601  0.00  0.00    +0.000 C 
BRANCH  21  26
ATOM     22  N   UNL     1       6.200   4.527  14.305  0.00  0.00    +0.000 N 
ATOM     23  N   UNL     1       6.973   5.535  13.850  0.00  0.00    +0.000 NA
ATOM     24  N   UNL     1       7.758   5.872  14.856  0.00  0.00    +0.000 NA
ATOM     25  N   UNL     1       7.501   5.099  15.948  0.00  0.00    +0.000 NA
ATOM     26  C   UNL     1       6.537   4.255  15.614  0.00  0.00    +0.000 A 
BRANCH  22  27
ATOM     27  C   UNL     1       5.351   3.868  13.342  0.00  0.00    +0.000 C 
BRANCH  27  28
ATOM     28  C   UNL     1       6.031   3.342  12.073  0.00  0.00    +0.000 C 
BRANCH  28  30
ATOM     29  C   UNL     1       6.650   1.086  10.966  0.00  0.00    +0.000 C 
ATOM     30  C   UNL     1       5.556   1.994  11.513  0.00  0.00    +0.000 C 
ENDBRANCH  28  30
ENDBRANCH  27  28
ENDBRANCH  22  27
ENDBRANCH  21  26
ENDBRANCH   1  21
TORSDOF 7
ENDMDL
MODEL 4
REMARK VINA RESULT:      -7.9      2.336      6.914
REMARK  Name = 
REMARK  8 active torsions:
REMARK  status: ('A' for Active; 'I' for Inactive)
REMARK    1  A    between atoms: C_1  and  C_2
REMARK    2  A    between atoms: C_2  and  C_3
REMARK    3  A    between atoms: C_3  and  C_4
REMARK    4  A    between atoms: C_4  and  N_5
REMARK    5  A    between atoms: C_9  and  C_10
REMARK    6  A    between atoms: C_10  and  N_11
REMARK    7  A    between atoms: C_15  and  C_16
REMARK    8  A    between atoms: C_15  and  C_22
REMARK                            x       y       z     vdW  Elec       q    Type
REMARK                         _______ _______ _______ _____ _____    ______ ____
ROOT
ATOM      1  N   UNL     1       3.691   4.367  17.239  0.00  0.00    +0.000 N 
ATOM      2  C   UNL     1       4.386   3.205  17.277  0.00  0.00    +0.000 C 
ATOM      3  O   UNL     1       3.950   2.085  17.478  0.00  0.00    +0.000 OA
ATOM      4  N   UNL     1       5.693   3.456  16.942  0.00  0.00    +0.000 N 
ATOM      5  C   UNL     1       5.877   4.775  16.355  0.00  0.00    +0.000 C 
ATOM      6  C   UNL     1       4.399   5.269  16.494  0.00  0.00    +0.000 C 
ATOM      7  O   UNL     1       3.928   6.303  16.031  0.00  0.00    +0.000 OA
ATOM      8  H   UNL     1       6.274   2.669  16.692  0.00  0.00    +0.000 HD
ENDROOT
BRANCH   5   9
ATOM      9  C   UNL     1       6.781   5.678  17.207  0.00  0.00    +0.000 A 
ATOM     10  C   UNL     1       6.993   7.034  16.893  0.00  0.00    +0.000 A 
ATOM     11  C   UNL     1       7.786   7.845  17.710  0.00  0.00    +0.000 A 
ATOM     12  C   UNL     1       8.396   7.315  18.844  0.00  0.00    +0.000 A 
ATOM     13  C   UNL     1       8.207   5.978  19.171  0.00  0.00    +0.000 A 
ATOM     14  C   UNL     1       7.396   5.172  18.370  0.00  0.00    +0.000 A 
ENDBRANCH   5   9
BRANCH   5  15
ATOM     15  C   UNL     1       6.392   4.567  14.920  0.00  0.00    +0.000 A 
ATOM     16  C   UNL     1       7.481   5.280  14.391  0.00  0.00    +0.000 A 
ATOM     17  C   UNL     1       7.843   5.150  13.046  0.00  0.00    +0.000 A 
ATOM     18  C   UNL     1       7.116   4.312  12.201  0.00  0.00    +0.000 A 
ATOM     19  C   UNL     1       6.038   3.596  12.700  0.00  0.00    +0.000 A 
ATOM     20  C   UNL     1       5.673   3.719  14.035  0.00  0.00    +0.000 A 
ENDBRANCH   5  15
BRANCH   1  21
ATOM     21  C   UNL     1       2.274   4.477  17.474  0.00  0.00    +0.000 C 
BRANCH  21  26
ATOM     22  N   UNL     1       1.936   5.154  19.972  0.00  0.00    +0.000 N 
ATOM     23  N   UNL     1       1.322   4.590  21.033  0.00  0.00    +0.000 NA
ATOM     24  N   UNL     1       0.873   3.423  20.613  0.00  0.00    +0.000 NA
ATOM     25  N   UNL     1       1.187   3.229  19.301  0.00  0.00    +0.000 NA
ATOM     26  C   UNL     1       1.853   4.298  18.895  0.00  0.00    +0.000 A 
BRANCH  22  27
ATOM     27  C   UNL     1       2.654   6.383  20.210  0.00  0.00    +0.000 C 
BRANCH  27  28
ATOM     28  C   UNL     1       1.987   7.674  19.723  0.00  0.00    +0.000 C 
BRANCH  28  30
ATOM     29  C   UNL     1       1.677   9.468  17.883  0.00  0.00    +0.000 C 
ATOM     30  C   UNL     1       2.251   8.113  18.276  0.00  0.00    +0.000 C 
ENDBRANCH  28  30
ENDBRANCH  27  28
ENDBRANCH  22  27
ENDBRANCH  21  26
ENDBRANCH   1  21
TORSDOF 7
ENDMDL
MODEL 5
REMARK VINA RESULT:      -7.8      2.155      3.784
REMARK  Name = 
REMARK  8 active torsions:
REMARK  status: ('A' for Active; 'I' for Inactive)
REMARK    1  A    between atoms: C_1  and  C_2
REMARK    2  A    between atoms: C_2  and  C_3
REMARK    3  A    between atoms: C_3  and  C_4
REMARK    4  A    between atoms: C_4  and  N_5
REMARK    5  A    between atoms: C_9  and  C_10
REMARK    6  A    between atoms: C_10  and  N_11
REMARK    7  A    between atoms: C_15  and  C_16
REMARK    8  A    between atoms: C_15  and  C_22
REMARK                            x       y       z     vdW  Elec       q    Type
REMARK                         _______ _______ _______ _____ _____    ______ ____
ROOT
ATOM      1  N   UNL     1       5.550   4.375  18.352  0.00  0.00    +0.000 N 
ATOM      2  C   UNL     1       5.710   5.039  19.521  0.00  0.00    +0.000 C 
ATOM      3  O   UNL     1       6.757   5.374  20.048  0.00  0.00    +0.000 OA
ATOM      4  N   UNL     1       4.476   5.390  20.008  0.00  0.00    +0.000 N 
ATOM      5  C   UNL     1       3.421   5.244  19.017  0.00  0.00    +0.000 C 
ATOM      6  C   UNL     1       4.301   4.653  17.867  0.00  0.00    +0.000 C 
ATOM      7  O   UNL     1       3.950   4.448  16.709  0.00  0.00    +0.000 OA
ATOM      8  H   UNL     1       4.439   6.091  20.735  0.00  0.00    +0.000 HD
ENDROOT
BRANCH   5   9
ATOM      9  C   UNL     1       2.372   4.197  19.423  0.00  0.00    +0.000 A 
ATOM     10  C   UNL     1       2.203   3.788  20.758  0.00  0.00    +0.000 A 
ATOM     11  C   UNL     1       1.212   2.866  21.107  0.00  0.00    +0.000 A 
ATOM     12  C   UNL     1       0.383   2.324  20.128  0.00  0.00    +0.000 A 
ATOM     13  C   UNL     1       0.535   2.708  18.802  0.00  0.00    +0.000 A 
ATOM     14  C   UNL     1       1.509   3.646  18.455  0.00  0.00    +0.000 A 
ENDBRANCH   5   9
BRANCH   5  15
ATOM     15  C   UNL     1       2.830   6.642  18.770  0.00  0.00    +0.000 A 
ATOM     16  C   UNL     1       3.154   7.419  17.645  0.00  0.00    +0.000 A 
ATOM     17  C   UNL     1       2.691   8.732  17.516  0.00  0.00    +0.000 A 
ATOM     18  C   UNL     1       1.902   9.299  18.517  0.00  0.00    +0.000 A 
ATOM     19  C   UNL     1       1.567   8.553  19.637  0.00  0.00    +0.000 A 
ATOM     20  C   UNL     1       2.022   7.247  19.771  0.00  0.00    +0.000 A 
ENDBRANCH   5  15
BRANCH   1  21
ATOM     21  C   UNL     1       6.632   3.907  17.524  0.00  0.00    +0.000 C 
BRANCH  21  26
ATOM     22  N   UNL     1       7.357   6.201  16.510  0.00  0.00    +0.000 N 
ATOM     23  N   UNL     1       7.811   6.605  15.305  0.00  0.00    +0.000 NA
ATOM     24  N   UNL     1       7.799   5.532  14.536  0.00  0.00    +0.000 NA
ATOM     25  N   UNL     1       7.346   4.448  15.228  0.00  0.00    +0.000 NA
ATOM     26  C   UNL     1       7.064   4.855  16.455  0.00  0.00    +0.000 A 
BRANCH  22  27
ATOM     27  C   UNL     1       7.126   7.227  17.498  0.00  0.00    +0.000 C 
BRANCH  27  28
ATOM     28  C   UNL     1       7.955   8.509  17.365  0.00  0.00    +0.000 C 
BRANCH  28  30
ATOM     29  C   UNL     1       9.190  10.473  18.512  0.00  0.00    +0.000 C 
ATOM     30  C   UNL     1       8.622   9.065  18.631  0.00  0.00    +0.000 C 
ENDBRANCH  28  30
ENDBRANCH  27  28
ENDBRANCH  22  27
ENDBRANCH  21  26
ENDBRANCH   1  21
TORSDOF 7
ENDMDL
MODEL 6
REMARK VINA RESULT:      -7.8      0.895      3.816
REMARK  Name = 
REMARK  8 active torsions:
REMARK  status: ('A' for Active; 'I' for Inactive)
REMARK    1  A    between atoms: C_1  and  C_2
REMARK    2  A    between atoms: C_2  and  C_3
REMARK    3  A    between atoms: C_3  and  C_4
REMARK    4  A    between atoms: C_4  and  N_5
REMARK    5  A    between atoms: C_9  and  C_10
REMARK    6  A    between atoms: C_10  and  N_11
REMARK    7  A    between atoms: C_15  and  C_16
REMARK    8  A    between atoms: C_15  and  C_22
REMARK                            x       y       z     vdW  Elec       q    Type
REMARK                         _______ _______ _______ _____ _____    ______ ____
ROOT
ATOM      1  N   UNL     1       5.026   4.540  17.581  0.00  0.00    +0.000 N 
ATOM      2  C   UNL     1       3.969   3.973  16.952  0.00  0.00    +0.000 C 
ATOM      3  O   UNL     1       3.992   3.127  16.075  0.00  0.00    +0.000 OA
ATOM      4  N   UNL     1       2.809   4.424  17.533  0.00  0.00    +0.000 N 
ATOM      5  C   UNL     1       3.044   5.094  18.803  0.00  0.00    +0.000 C 
ATOM      6  C   UNL     1       4.605   5.003  18.798  0.00  0.00    +0.000 C 
ATOM      7  O   UNL     1       5.359   5.306  19.718  0.00  0.00    +0.000 OA
ATOM      8  H   UNL     1       1.958   3.916  17.341  0.00  0.00    +0.000 HD
ENDROOT
BRANCH   5   9
ATOM      9  C   UNL     1       2.635   6.574  18.774  0.00  0.00    +0.000 A 
ATOM     10  C   UNL     1       2.006   7.198  19.866  0.00  0.00    +0.000 A 
ATOM     11  C   UNL     1       1.684   8.558  19.830  0.00  0.00    +0.000 A 
ATOM     12  C   UNL     1       1.968   9.316  18.697  0.00  0.00    +0.000 A 
ATOM     13  C   UNL     1       2.584   8.721  17.602  0.00  0.00    +0.000 A 
ATOM     14  C   UNL     1       2.928   7.368  17.646  0.00  0.00    +0.000 A 
ENDBRANCH   5   9
BRANCH   5  15
ATOM     15  C   UNL     1       2.320   4.278  19.889  0.00  0.00    +0.000 A 
ATOM     16  C   UNL     1       2.850   4.083  21.175  0.00  0.00    +0.000 A 
ATOM     17  C   UNL     1       2.221   3.236  22.094  0.00  0.00    +0.000 A 
ATOM     18  C   UNL     1       1.054   2.560  21.740  0.00  0.00    +0.000 A 
ATOM     19  C   UNL     1       0.510   2.737  20.477  0.00  0.00    +0.000 A 
ATOM     20  C   UNL     1       1.129   3.578  19.559  0.00  0.00    +0.000 A 
ENDBRANCH   5  15
BRANCH   1  21
ATOM     21  C   UNL     1       6.404   4.251  17.280  0.00  0.00    +0.000 C 
BRANCH  21  26
ATOM     22  N   UNL     1       6.727   4.616  14.715  0.00  0.00    +0.000 N 
ATOM     23  N   UNL     1       7.329   5.557  13.959  0.00  0.00    +0.000 NA
ATOM     24  N   UNL     1       7.883   6.403  14.807  0.00  0.00    +0.000 NA
ATOM     25  N   UNL     1       7.646   6.020  16.094  0.00  0.00    +0.000 NA
ATOM     26  C   UNL     1       6.932   4.907  16.047  0.00  0.00    +0.000 A 
BRANCH  22  27
ATOM     27  C   UNL     1       6.172   3.478  14.022  0.00  0.00    +0.000 C 
BRANCH  27  28
ATOM     28  C   UNL     1       6.317   3.466  12.496  0.00  0.00    +0.000 C 
BRANCH  28  30
ATOM     29  C   UNL     1       4.059   3.217  11.255  0.00  0.00    +0.000 C 
ATOM     30  C   UNL     1       5.365   2.567  11.695  0.00  0.00    +0.000 C 
ENDBRANCH  28  30
ENDBRANCH  27  28
ENDBRANCH  22  27
ENDBRANCH  21  26
ENDBRANCH   1  21
TORSDOF 7
ENDMDL
MODEL 7
REMARK VINA RESULT:      -7.7     10.168     12.693
REMARK  Name = 
REMARK  8 active torsions:
REMARK  status: ('A' for Active; 'I' for Inactive)
REMARK    1  A    between atoms: C_1  and  C_2
REMARK    2  A    between atoms: C_2  and  C_3
REMARK    3  A    between atoms: C_3  and  C_4
REMARK    4  A    between atoms: C_4  and  N_5
REMARK    5  A    between atoms: C_9  and  C_10
REMARK    6  A    between atoms: C_10  and  N_11
REMARK    7  A    between atoms: C_15  and  C_16
REMARK    8  A    between atoms: C_15  and  C_22
REMARK                            x       y       z     vdW  Elec       q    Type
REMARK                         _______ _______ _______ _____ _____    ______ ____
ROOT
ATOM      1  N   UNL     1      -5.038  13.183  21.689  0.00  0.00    +0.000 N 
ATOM      2  C   UNL     1      -4.425  14.200  21.038  0.00  0.00    +0.000 C 
ATOM      3  O   UNL     1      -4.944  15.061  20.348  0.00  0.00    +0.000 OA
ATOM      4  N   UNL     1      -3.090  14.193  21.357  0.00  0.00    +0.000 N 
ATOM      5  C   UNL     1      -2.792  13.342  22.498  0.00  0.00    +0.000 C 
ATOM      6  C   UNL     1      -4.237  12.791  22.727  0.00  0.00    +0.000 C 
ATOM      7  O   UNL     1      -4.617  12.102  23.669  0.00  0.00    +0.000 OA
ATOM      8  H   UNL     1      -2.552  15.023  21.148  0.00  0.00    +0.000 HD
ENDROOT
BRANCH   5   9
ATOM      9  C   UNL     1      -1.868  12.169  22.133  0.00  0.00    +0.000 A 
ATOM     10  C   UNL     1      -1.394  11.263  23.099  0.00  0.00    +0.000 A 
ATOM     11  C   UNL     1      -0.590  10.179  22.733  0.00  0.00    +0.000 A 
ATOM     12  C   UNL     1      -0.232   9.989  21.401  0.00  0.00    +0.000 A 
ATOM     13  C   UNL     1      -0.684  10.874  20.430  0.00  0.00    +0.000 A 
ATOM     14  C   UNL     1      -1.506  11.944  20.790  0.00  0.00    +0.000 A 
ENDBRANCH   5   9
BRANCH   5  15
ATOM     15  C   UNL     1      -2.226  14.247  23.607  0.00  0.00    +0.000 A 
ATOM     16  C   UNL     1      -2.898  14.475  24.819  0.00  0.00    +0.000 A 
ATOM     17  C   UNL     1      -2.410  15.398  25.752  0.00  0.00    +0.000 A 
ATOM     18  C   UNL     1      -1.247  16.118  25.483  0.00  0.00    +0.000 A 
ATOM     19  C   UNL     1      -0.565  15.910  24.294  0.00  0.00    +0.000 A 
ATOM     20  C   UNL     1      -1.042  14.994  23.364  0.00  0.00    +0.000 A 
ENDBRANCH   5  15
BRANCH   1  21
ATOM     21  C   UNL     1      -6.454  12.921  21.643  0.00  0.00    +0.000 C 
BRANCH  21  26
ATOM     22  N   UNL     1      -6.512  11.142  19.733  0.00  0.00    +0.000 N 
ATOM     23  N   UNL     1      -7.007   9.892  19.616  0.00  0.00    +0.000 NA
ATOM     24  N   UNL     1      -7.615   9.635  20.758  0.00  0.00    +0.000 NA
ATOM     25  N   UNL     1      -7.518  10.697  21.606  0.00  0.00    +0.000 NA
ATOM     26  C   UNL     1      -6.838  11.642  20.976  0.00  0.00    +0.000 A 
BRANCH  22  27
ATOM     27  C   UNL     1      -5.926  11.726  18.551  0.00  0.00    +0.000 C 
BRANCH  27  28
ATOM     28  C   UNL     1      -4.409  11.581  18.391  0.00  0.00    +0.000 C 
BRANCH  28  30
ATOM     29  C   UNL     1      -2.768   9.801  17.477  0.00  0.00    +0.000 C 
ATOM     30  C   UNL     1      -3.889  10.789  17.184  0.00  0.00    +0.000 C 
ENDBRANCH  28  30
ENDBRANCH  27  28
ENDBRANCH  22  27
ENDBRANCH  21  26
ENDBRANCH   1  21
TORSDOF 7
ENDMDL
MODEL 8
REMARK VINA RESULT:      -7.7      1.883      3.294
REMARK  Name = 
REMARK  8 active torsions:
REMARK  status: ('A' for Active; 'I' for Inactive)
REMARK    1  A    between atoms: C_1  and  C_2
REMARK    2  A    between atoms: C_2  and  C_3
REMARK    3  A    between atoms: C_3  and  C_4
REMARK    4  A    between atoms: C_4  and  N_5
REMARK    5  A    between atoms: C_9  and  C_10
REMARK    6  A    between atoms: C_10  and  N_11
REMARK    7  A    between atoms: C_15  and  C_16
REMARK    8  A    between atoms: C_15  and  C_22
REMARK                            x       y       z     vdW  Elec       q    Type
REMARK                         _______ _______ _______ _____ _____    ______ ____
ROOT
ATOM      1  N   UNL     1       5.518   4.392  18.377  0.00  0.00    +0.000 N 
ATOM      2  C   UNL     1       5.810   5.182  19.437  0.00  0.00    +0.000 C 
ATOM      3  O   UNL     1       6.909   5.574  19.792  0.00  0.00    +0.000 OA
ATOM      4  N   UNL     1       4.640   5.587  20.029  0.00  0.00    +0.000 N 
ATOM      5  C   UNL     1       3.474   5.331  19.196  0.00  0.00    +0.000 C 
ATOM      6  C   UNL     1       4.216   4.616  18.020  0.00  0.00    +0.000 C 
ATOM      7  O   UNL     1       3.730   4.282  16.944  0.00  0.00    +0.000 OA
ATOM      8  H   UNL     1       4.682   6.365  20.673  0.00  0.00    +0.000 HD
ENDROOT
BRANCH   5   9
ATOM      9  C   UNL     1       2.496   4.338  19.840  0.00  0.00    +0.000 A 
ATOM     10  C   UNL     1       1.409   3.793  19.133  0.00  0.00    +0.000 A 
ATOM     11  C   UNL     1       0.559   2.858  19.729  0.00  0.00    +0.000 A 
ATOM     12  C   UNL     1       0.768   2.461  21.048  0.00  0.00    +0.000 A 
ATOM     13  C   UNL     1       1.832   2.989  21.769  0.00  0.00    +0.000 A 
ATOM     14  C   UNL     1       2.696   3.906  21.167  0.00  0.00    +0.000 A 
ENDBRANCH   5   9
BRANCH   5  15
ATOM     15  C   UNL     1       2.840   6.694  18.869  0.00  0.00    +0.000 A 
ATOM     16  C   UNL     1       3.123   7.403  17.690  0.00  0.00    +0.000 A 
ATOM     17  C   UNL     1       2.621   8.693  17.484  0.00  0.00    +0.000 A 
ATOM     18  C   UNL     1       1.833   9.303  18.460  0.00  0.00    +0.000 A 
ATOM     19  C   UNL     1       1.537   8.623  19.632  0.00  0.00    +0.000 A 
ATOM     20  C   UNL     1       2.032   7.341  19.843  0.00  0.00    +0.000 A 
ENDBRANCH   5  15
BRANCH   1  21
ATOM     21  C   UNL     1       6.497   3.834  17.481  0.00  0.00    +0.000 C 
BRANCH  21  26
ATOM     22  N   UNL     1       6.542   5.694  15.650  0.00  0.00    +0.000 N 
ATOM     23  N   UNL     1       6.600   5.697  14.302  0.00  0.00    +0.000 NA
ATOM     24  N   UNL     1       6.575   4.430  13.936  0.00  0.00    +0.000 NA
ATOM     25  N   UNL     1       6.503   3.614  15.026  0.00  0.00    +0.000 NA
ATOM     26  C   UNL     1       6.477   4.392  16.096  0.00  0.00    +0.000 A 
BRANCH  22  27
ATOM     27  C   UNL     1       6.399   6.975  16.300  0.00  0.00    +0.000 C 
BRANCH  27  28
ATOM     28  C   UNL     1       7.582   7.448  17.152  0.00  0.00    +0.000 C 
BRANCH  28  30
ATOM     29  C   UNL     1       8.787   9.392  18.364  0.00  0.00    +0.000 C 
ATOM     30  C   UNL     1       7.485   8.835  17.803  0.00  0.00    +0.000 C 
ENDBRANCH  28  30
ENDBRANCH  27  28
ENDBRANCH  22  27
ENDBRANCH  21  26
ENDBRANCH   1  21
TORSDOF 7
ENDMDL
MODEL 9
REMARK VINA RESULT:      -7.7      2.335      6.894
REMARK  Name = 
REMARK  8 active torsions:
REMARK  status: ('A' for Active; 'I' for Inactive)
REMARK    1  A    between atoms: C_1  and  C_2
REMARK    2  A    between atoms: C_2  and  C_3
REMARK    3  A    between atoms: C_3  and  C_4
REMARK    4  A    between atoms: C_4  and  N_5
REMARK    5  A    between atoms: C_9  and  C_10
REMARK    6  A    between atoms: C_10  and  N_11
REMARK    7  A    between atoms: C_15  and  C_16
REMARK    8  A    between atoms: C_15  and  C_22
REMARK                            x       y       z     vdW  Elec       q    Type
REMARK                         _______ _______ _______ _____ _____    ______ ____
ROOT
ATOM      1  N   UNL     1       3.638   4.232  17.471  0.00  0.00    +0.000 N 
ATOM      2  C   UNL     1       4.360   3.092  17.365  0.00  0.00    +0.000 C 
ATOM      3  O   UNL     1       3.969   1.947  17.515  0.00  0.00    +0.000 OA
ATOM      4  N   UNL     1       5.629   3.405  16.944  0.00  0.00    +0.000 N 
ATOM      5  C   UNL     1       5.733   4.768  16.445  0.00  0.00    +0.000 C 
ATOM      6  C   UNL     1       4.261   5.207  16.741  0.00  0.00    +0.000 C 
ATOM      7  O   UNL     1       3.729   6.258  16.397  0.00  0.00    +0.000 OA
ATOM      8  H   UNL     1       6.206   2.655  16.588  0.00  0.00    +0.000 HD
ENDROOT
BRANCH   5   9
ATOM      9  C   UNL     1       6.684   5.633  17.286  0.00  0.00    +0.000 A 
ATOM     10  C   UNL     1       6.918   6.989  16.994  0.00  0.00    +0.000 A 
ATOM     11  C   UNL     1       7.754   7.765  17.801  0.00  0.00    +0.000 A 
ATOM     12  C   UNL     1       8.386   7.197  18.905  0.00  0.00    +0.000 A 
ATOM     13  C   UNL     1       8.176   5.859  19.211  0.00  0.00    +0.000 A 
ATOM     14  C   UNL     1       7.322   5.088  18.419  0.00  0.00    +0.000 A 
ENDBRANCH   5   9
BRANCH   5  15
ATOM     15  C   UNL     1       6.131   4.681  14.962  0.00  0.00    +0.000 A 
ATOM     16  C   UNL     1       5.384   3.961  14.014  0.00  0.00    +0.000 A 
ATOM     17  C   UNL     1       5.843   3.806  12.701  0.00  0.00    +0.000 A 
ATOM     18  C   UNL     1       7.063   4.359  12.314  0.00  0.00    +0.000 A 
ATOM     19  C   UNL     1       7.818   5.075  13.231  0.00  0.00    +0.000 A 
ATOM     20  C   UNL     1       7.368   5.235  14.536  0.00  0.00    +0.000 A 
ENDBRANCH   5  15
BRANCH   1  21
ATOM     21  C   UNL     1       2.244   4.284  17.828  0.00  0.00    +0.000 C 
BRANCH  21  26
ATOM     22  N   UNL     1       1.574   4.638  20.326  0.00  0.00    +0.000 N 
ATOM     23  N   UNL     1       1.291   3.816  21.358  0.00  0.00    +0.000 NA
ATOM     24  N   UNL     1       1.469   2.590  20.904  0.00  0.00    +0.000 NA
ATOM     25  N   UNL     1       1.862   2.612  19.599  0.00  0.00    +0.000 NA
ATOM     26  C   UNL     1       1.935   3.881  19.232  0.00  0.00    +0.000 A 
BRANCH  22  27
ATOM     27  C   UNL     1       1.604   6.053  20.608  0.00  0.00    +0.000 C 
BRANCH  27  28
ATOM     28  C   UNL     1       2.453   6.922  19.673  0.00  0.00    +0.000 C 
BRANCH  28  30
ATOM     29  C   UNL     1       1.781   8.640  17.859  0.00  0.00    +0.000 C 
ATOM     30  C   UNL     1       1.940   8.329  19.341  0.00  0.00    +0.000 C 
ENDBRANCH  28  30
ENDBRANCH  27  28
ENDBRANCH  22  27
ENDBRANCH  21  26
ENDBRANCH   1  21
TORSDOF 7
ENDMDL
