MODEL 1
REMARK VINA RESULT:      -8.9      0.000      0.000
REMARK  Name = 
REMARK  4 active torsions:
REMARK  status: ('A' for Active; 'I' for Inactive)
REMARK    1  A    between atoms: C_1  and  N_2
REMARK    2  A    between atoms: C_4  and  C_5
REMARK    3  A    between atoms: N_7  and  C_8
REMARK    4  A    between atoms: C_8  and  C_9
REMARK                            x       y       z     vdW  Elec       q    Type
REMARK                         _______ _______ _______ _____ _____    ______ ____
ROOT
ATOM      1  C   UNL     1      -0.564  11.916  18.930  0.00  0.00    +0.000 C 
ATOM      2  O   UNL     1       0.016  12.835  18.379  0.00  0.00    +0.000 OA
ATOM      3  N   UNL     1      -0.059  10.634  19.044  0.00  0.00    +0.000 N 
ATOM      4  H   UNL     1      -0.538   9.985  19.661  0.00  0.00    +0.000 HD
ENDROOT
BRANCH   1   8
ATOM      5  C   UNL     1      -3.079  13.032  22.876  0.00  0.00    +0.000 C 
ATOM      6  N   UNL     1      -3.127  12.701  21.466  0.00  0.00    +0.000 N 
ATOM      7  N   UNL     1      -1.928  12.470  20.836  0.00  0.00    +0.000 NA
ATOM      8  C   UNL     1      -1.936  12.126  19.578  0.00  0.00    +0.000 A 
ATOM      9  C   UNL     1      -3.176  11.927  18.796  0.00  0.00    +0.000 A 
ATOM     10  C   UNL     1      -3.205  11.446  17.479  0.00  0.00    +0.000 A 
ATOM     11  C   UNL     1      -4.427  11.252  16.825  0.00  0.00    +0.000 A 
ATOM     12  C   UNL     1      -5.625  11.544  17.471  0.00  0.00    +0.000 A 
ATOM     13  C   UNL     1      -5.603  12.029  18.777  0.00  0.00    +0.000 A 
ATOM     14  C   UNL     1      -4.379  12.207  19.439  0.00  0.00    +0.000 A 
ATOM     15  C   UNL     1      -4.371  12.640  20.846  0.00  0.00    +0.000 A 
ATOM     16  O   UNL     1      -5.433  12.894  21.409  0.00  0.00    +0.000 OA
ENDBRANCH   1   8
BRANCH   3  17
ATOM     17  C   UNL     1       1.236  10.334  18.492  0.00  0.00    +0.000 C 
BRANCH  17  18
ATOM     18  C   UNL     1       1.750   8.970  18.827  0.00  0.00    +0.000 A 
ATOM     19  C   UNL     1       2.400   8.188  17.880  0.00  0.00    +0.000 A 
ATOM     20  C   UNL     1       2.746   6.873  18.192  0.00  0.00    +0.000 A 
ATOM     21  C   UNL     1       2.474   6.344  19.456  0.00  0.00    +0.000 A 
ATOM     22  N   UNL     1       2.755   5.014  19.758  0.00  0.00    +0.000 N 
ATOM     23  C   UNL     1       3.895   4.351  19.138  0.00  0.00    +0.000 C 
ATOM     24  C   UNL     1       3.390   3.285  18.167  0.00  0.00    +0.000 C 
ATOM     25  C   UNL     1       2.886   2.018  18.855  0.00  0.00    +0.000 C 
ATOM     26  C   UNL     1       1.792   2.233  19.903  0.00  0.00    +0.000 C 
ATOM     27  C   UNL     1       2.286   2.978  21.144  0.00  0.00    +0.000 C 
ATOM     28  C   UNL     1       2.230   4.507  21.025  0.00  0.00    +0.000 C 
ATOM     29  N   UNL     1       1.876   7.119  20.389  0.00  0.00    +0.000 NA
ATOM     30  C   UNL     1       1.533   8.391  20.067  0.00  0.00    +0.000 A 
ENDBRANCH  17  18
ENDBRANCH   3  17
TORSDOF 3
ENDMDL
MODEL 2
REMARK VINA RESULT:      -8.8      1.554      2.580
REMARK  Name = 
REMARK  4 active torsions:
REMARK  status: ('A' for Active; 'I' for Inactive)
REMARK    1  A    between atoms: C_1  and  N_2
REMARK    2  A    between atoms: C_4  and  C_5
REMARK    3  A    between atoms: N_7  and  C_8
REMARK    4  A    between atoms: C_8  and  C_9
REMARK                            x       y       z     vdW  Elec       q    Type
REMARK                         _______ _______ _______ _____ _____    ______ ____
ROOT
ATOM      1  C   UNL     1      -0.401  11.561  18.479  0.00  0.00    +0.000 C 
ATOM      2  O   UNL     1       0.160  12.492  19.030  0.00  0.00    +0.000 OA
ATOM      3  N   UNL     1       0.232  10.403  18.071  0.00  0.00    +0.000 N 
ATOM      4  H   UNL     1      -0.345   9.621  17.775  0.00  0.00    +0.000 HD
ENDROOT
BRANCH   1   8
ATOM      5  C   UNL     1      -4.001  10.888  15.360  0.00  0.00    +0.000 C 
ATOM      6  N   UNL     1      -3.626  11.235  16.717  0.00  0.00    +0.000 N 
ATOM      7  N   UNL     1      -2.284  11.248  17.011  0.00  0.00    +0.000 NA
ATOM      8  C   UNL     1      -1.908  11.599  18.209  0.00  0.00    +0.000 A 
ATOM      9  C   UNL     1      -2.852  12.028  19.267  0.00  0.00    +0.000 A 
ATOM     10  C   UNL     1      -2.457  12.517  20.520  0.00  0.00    +0.000 A 
ATOM     11  C   UNL     1      -3.416  12.937  21.448  0.00  0.00    +0.000 A 
ATOM     12  C   UNL     1      -4.772  12.862  21.142  0.00  0.00    +0.000 A 
ATOM     13  C   UNL     1      -5.171  12.370  19.901  0.00  0.00    +0.000 A 
ATOM     14  C   UNL     1      -4.209  11.966  18.963  0.00  0.00    +0.000 A 
ATOM     15  C   UNL     1      -4.639  11.527  17.625  0.00  0.00    +0.000 A 
ATOM     16  O   UNL     1      -5.837  11.465  17.362  0.00  0.00    +0.000 OA
ENDBRANCH   1   8
BRANCH   3  17
ATOM     17  C   UNL     1       1.645  10.252  18.300  0.00  0.00    +0.000 C 
BRANCH  17  18
ATOM     18  C   UNL     1       2.066   8.868  18.681  0.00  0.00    +0.000 A 
ATOM     19  C   UNL     1       2.780   8.062  17.804  0.00  0.00    +0.000 A 
ATOM     20  C   UNL     1       3.038   6.733  18.144  0.00  0.00    +0.000 A 
ATOM     21  C   UNL     1       2.613   6.215  19.369  0.00  0.00    +0.000 A 
ATOM     22  N   UNL     1       2.806   4.874  19.692  0.00  0.00    +0.000 N 
ATOM     23  C   UNL     1       3.978   4.166  19.193  0.00  0.00    +0.000 C 
ATOM     24  C   UNL     1       3.536   3.122  18.168  0.00  0.00    +0.000 C 
ATOM     25  C   UNL     1       2.911   1.876  18.792  0.00  0.00    +0.000 C 
ATOM     26  C   UNL     1       1.722   2.134  19.719  0.00  0.00    +0.000 C 
ATOM     27  C   UNL     1       2.112   2.858  21.010  0.00  0.00    +0.000 C 
ATOM     28  C   UNL     1       2.130   4.387  20.894  0.00  0.00    +0.000 C 
ATOM     29  N   UNL     1       1.950   7.012  20.237  0.00  0.00    +0.000 NA
ATOM     30  C   UNL     1       1.695   8.297  19.888  0.00  0.00    +0.000 A 
ENDBRANCH  17  18
ENDBRANCH   3  17
TORSDOF 3
ENDMDL
MODEL 3
REMARK VINA RESULT:      -8.8      0.906      1.200
REMARK  Name = 
REMARK  4 active torsions:
REMARK  status: ('A' for Active; 'I' for Inactive)
REMARK    1  A    between atoms: C_1  and  N_2
REMARK    2  A    between atoms: C_4  and  C_5
REMARK    3  A    between atoms: N_7  and  C_8
REMARK    4  A    between atoms: C_8  and  C_9
REMARK                            x       y       z     vdW  Elec       q    Type
REMARK                         _______ _______ _______ _____ _____    ______ ____
ROOT
ATOM      1  C   UNL     1      -0.145  11.553  19.033  0.00  0.00    +0.000 C 
ATOM      2  O   UNL     1       0.576  12.248  19.727  0.00  0.00    +0.000 OA
ATOM      3  N   UNL     1       0.311  10.549  18.200  0.00  0.00    +0.000 N 
ATOM      4  H   UNL     1      -0.374   9.919  17.792  0.00  0.00    +0.000 HD
ENDROOT
BRANCH   1   8
ATOM      5  C   UNL     1      -4.060  12.940  21.460  0.00  0.00    +0.000 C 
ATOM      6  N   UNL     1      -3.528  12.439  20.208  0.00  0.00    +0.000 N 
ATOM      7  N   UNL     1      -2.172  12.227  20.144  0.00  0.00    +0.000 NA
ATOM      8  C   UNL     1      -1.665  11.735  19.048  0.00  0.00    +0.000 A 
ATOM      9  C   UNL     1      -2.481  11.350  17.874  0.00  0.00    +0.000 A 
ATOM     10  C   UNL     1      -1.966  10.714  16.735  0.00  0.00    +0.000 A 
ATOM     11  C   UNL     1      -2.816  10.350  15.685  0.00  0.00    +0.000 A 
ATOM     12  C   UNL     1      -4.179  10.626  15.755  0.00  0.00    +0.000 A 
ATOM     13  C   UNL     1      -4.696  11.264  16.880  0.00  0.00    +0.000 A 
ATOM     14  C   UNL     1      -3.846  11.612  17.942  0.00  0.00    +0.000 A 
ATOM     15  C   UNL     1      -4.415  12.210  19.161  0.00  0.00    +0.000 A 
ATOM     16  O   UNL     1      -5.620  12.449  19.215  0.00  0.00    +0.000 OA
ENDBRANCH   1   8
BRANCH   3  17
ATOM     17  C   UNL     1       1.723  10.276  18.130  0.00  0.00    +0.000 C 
BRANCH  17  18
ATOM     18  C   UNL     1       2.110   8.901  18.574  0.00  0.00    +0.000 A 
ATOM     19  C   UNL     1       2.792   8.034  17.730  0.00  0.00    +0.000 A 
ATOM     20  C   UNL     1       3.018   6.717  18.131  0.00  0.00    +0.000 A 
ATOM     21  C   UNL     1       2.593   6.270  19.385  0.00  0.00    +0.000 A 
ATOM     22  N   UNL     1       2.754   4.942  19.770  0.00  0.00    +0.000 N 
ATOM     23  C   UNL     1       3.901   4.178  19.294  0.00  0.00    +0.000 C 
ATOM     24  C   UNL     1       3.418   3.099  18.327  0.00  0.00    +0.000 C 
ATOM     25  C   UNL     1       2.768   1.902  19.017  0.00  0.00    +0.000 C 
ATOM     26  C   UNL     1       1.596   2.237  19.943  0.00  0.00    +0.000 C 
ATOM     27  C   UNL     1       2.021   3.012  21.192  0.00  0.00    +0.000 C 
ATOM     28  C   UNL     1       2.079   4.532  21.002  0.00  0.00    +0.000 C 
ATOM     29  N   UNL     1       1.963   7.127  20.220  0.00  0.00    +0.000 NA
ATOM     30  C   UNL     1       1.738   8.400  19.811  0.00  0.00    +0.000 A 
ENDBRANCH  17  18
ENDBRANCH   3  17
TORSDOF 3
ENDMDL
MODEL 4
REMARK VINA RESULT:      -8.6      1.117      2.506
REMARK  Name = 
REMARK  4 active torsions:
REMARK  status: ('A' for Active; 'I' for Inactive)
REMARK    1  A    between atoms: C_1  and  N_2
REMARK    2  A    between atoms: C_4  and  C_5
REMARK    3  A    between atoms: N_7  and  C_8
REMARK    4  A    between atoms: C_8  and  C_9
REMARK                            x       y       z     vdW  Elec       q    Type
REMARK                         _______ _______ _______ _____ _____    ______ ____
ROOT
ATOM      1  C   UNL     1      -0.436  11.879  18.653  0.00  0.00    +0.000 C 
ATOM      2  O   UNL     1       0.271  12.863  18.527  0.00  0.00    +0.000 OA
ATOM      3  N   UNL     1       0.023  10.577  18.586  0.00  0.00    +0.000 N 
ATOM      4  H   UNL     1      -0.608   9.832  18.867  0.00  0.00    +0.000 HD
ENDROOT
BRANCH   1   8
ATOM      5  C   UNL     1      -4.925  11.649  16.940  0.00  0.00    +0.000 C 
ATOM      6  N   UNL     1      -4.084  11.865  18.100  0.00  0.00    +0.000 N 
ATOM      7  N   UNL     1      -2.725  11.784  17.912  0.00  0.00    +0.000 NA
ATOM      8  C   UNL     1      -1.937  12.018  18.924  0.00  0.00    +0.000 A 
ATOM      9  C   UNL     1      -2.427  12.408  20.265  0.00  0.00    +0.000 A 
ATOM     10  C   UNL     1      -1.591  12.774  21.330  0.00  0.00    +0.000 A 
ATOM     11  C   UNL     1      -2.140  13.167  22.556  0.00  0.00    +0.000 A 
ATOM     12  C   UNL     1      -3.521  13.189  22.734  0.00  0.00    +0.000 A 
ATOM     13  C   UNL     1      -4.356  12.820  21.682  0.00  0.00    +0.000 A 
ATOM     14  C   UNL     1      -3.806  12.443  20.447  0.00  0.00    +0.000 A 
ATOM     15  C   UNL     1      -4.700  12.136  19.318  0.00  0.00    +0.000 A 
ATOM     16  O   UNL     1      -5.917  12.158  19.483  0.00  0.00    +0.000 OA
ENDBRANCH   1   8
BRANCH   3  17
ATOM     17  C   UNL     1       1.424  10.334  18.361  0.00  0.00    +0.000 C 
BRANCH  17  18
ATOM     18  C   UNL     1       1.883   8.962  18.745  0.00  0.00    +0.000 A 
ATOM     19  C   UNL     1       2.560   8.148  17.846  0.00  0.00    +0.000 A 
ATOM     20  C   UNL     1       2.853   6.829  18.196  0.00  0.00    +0.000 A 
ATOM     21  C   UNL     1       2.501   6.330  19.453  0.00  0.00    +0.000 A 
ATOM     22  N   UNL     1       2.729   4.998  19.789  0.00  0.00    +0.000 N 
ATOM     23  C   UNL     1       3.882   4.295  19.241  0.00  0.00    +0.000 C 
ATOM     24  C   UNL     1       3.400   3.226  18.262  0.00  0.00    +0.000 C 
ATOM     25  C   UNL     1       2.826   1.984  18.941  0.00  0.00    +0.000 C 
ATOM     26  C   UNL     1       1.685   2.246  19.926  0.00  0.00    +0.000 C 
ATOM     27  C   UNL     1       2.133   2.999  21.180  0.00  0.00    +0.000 C 
ATOM     28  C   UNL     1       2.125   4.526  21.035  0.00  0.00    +0.000 C 
ATOM     29  N   UNL     1       1.875   7.135  20.340  0.00  0.00    +0.000 NA
ATOM     30  C   UNL     1       1.585   8.410  19.980  0.00  0.00    +0.000 A 
ENDBRANCH  17  18
ENDBRANCH   3  17
TORSDOF 3
ENDMDL
MODEL 5
REMARK VINA RESULT:      -8.4      3.387      4.965
REMARK  Name = 
REMARK  4 active torsions:
REMARK  status: ('A' for Active; 'I' for Inactive)
REMARK    1  A    between atoms: C_1  and  N_2
REMARK    2  A    between atoms: C_4  and  C_5
REMARK    3  A    between atoms: N_7  and  C_8
REMARK    4  A    between atoms: C_8  and  C_9
REMARK                            x       y       z     vdW  Elec       q    Type
REMARK                         _______ _______ _______ _____ _____    ______ ____
ROOT
ATOM      1  C   UNL     1       1.305  12.605  19.810  0.00  0.00    +0.000 C 
ATOM      2  O   UNL     1       1.464  12.353  20.992  0.00  0.00    +0.000 OA
ATOM      3  N   UNL     1       0.711  11.745  18.906  0.00  0.00    +0.000 N 
ATOM      4  H   UNL     1       0.474  12.108  17.986  0.00  0.00    +0.000 HD
ENDROOT
BRANCH   1   8
ATOM      5  C   UNL     1       4.799  15.206  17.770  0.00  0.00    +0.000 C 
ATOM      6  N   UNL     1       3.419  15.171  18.212  0.00  0.00    +0.000 N 
ATOM      7  N   UNL     1       2.972  14.001  18.776  0.00  0.00    +0.000 NA
ATOM      8  C   UNL     1       1.749  13.948  19.224  0.00  0.00    +0.000 A 
ATOM      9  C   UNL     1       0.821  15.101  19.198  0.00  0.00    +0.000 A 
ATOM     10  C   UNL     1      -0.455  15.095  19.780  0.00  0.00    +0.000 A 
ATOM     11  C   UNL     1      -1.254  16.244  19.743  0.00  0.00    +0.000 A 
ATOM     12  C   UNL     1      -0.794  17.400  19.117  0.00  0.00    +0.000 A 
ATOM     13  C   UNL     1       0.470  17.410  18.532  0.00  0.00    +0.000 A 
ATOM     14  C   UNL     1       1.278  16.264  18.585  0.00  0.00    +0.000 A 
ATOM     15  C   UNL     1       2.643  16.312  18.037  0.00  0.00    +0.000 A 
ATOM     16  O   UNL     1       3.042  17.337  17.488  0.00  0.00    +0.000 OA
ENDBRANCH   1   8
BRANCH   3  17
ATOM     17  C   UNL     1       0.233  10.465  19.357  0.00  0.00    +0.000 C 
BRANCH  17  18
ATOM     18  C   UNL     1       1.214   9.347  19.199  0.00  0.00    +0.000 A 
ATOM     19  C   UNL     1       1.974   9.210  18.044  0.00  0.00    +0.000 A 
ATOM     20  C   UNL     1       2.779   8.082  17.879  0.00  0.00    +0.000 A 
ATOM     21  C   UNL     1       2.853   7.106  18.875  0.00  0.00    +0.000 A 
ATOM     22  N   UNL     1       3.600   5.945  18.694  0.00  0.00    +0.000 N 
ATOM     23  C   UNL     1       4.817   5.979  17.892  0.00  0.00    +0.000 C 
ATOM     24  C   UNL     1       4.592   5.188  16.605  0.00  0.00    +0.000 C 
ATOM     25  C   UNL     1       4.632   3.673  16.800  0.00  0.00    +0.000 C 
ATOM     26  C   UNL     1       3.660   3.123  17.846  0.00  0.00    +0.000 C 
ATOM     27  C   UNL     1       4.015   3.542  19.275  0.00  0.00    +0.000 C 
ATOM     28  C   UNL     1       3.431   4.895  19.698  0.00  0.00    +0.000 C 
ATOM     29  N   UNL     1       2.141   7.260  20.014  0.00  0.00    +0.000 NA
ATOM     30  C   UNL     1       1.352   8.354  20.155  0.00  0.00    +0.000 A 
ENDBRANCH  17  18
ENDBRANCH   3  17
TORSDOF 3
ENDMDL
MODEL 6
REMARK VINA RESULT:      -8.4      1.241      1.509
REMARK  Name = 
REMARK  4 active torsions:
REMARK  status: ('A' for Active; 'I' for Inactive)
REMARK    1  A    between atoms: C_1  and  N_2
REMARK    2  A    between atoms: C_4  and  C_5
REMARK    3  A    between atoms: N_7  and  C_8
REMARK    4  A    between atoms: C_8  and  C_9
REMARK                            x       y       z     vdW  Elec       q    Type
REMARK                         _______ _______ _______ _____ _____    ______ ____
ROOT
ATOM      1  C   UNL     1      -1.748  12.616  20.024  0.00  0.00    +0.000 C 
ATOM      2  O   UNL     1      -1.327  13.619  19.476  0.00  0.00    +0.000 OA
ATOM      3  N   UNL     1      -0.997  11.476  20.241  0.00  0.00    +0.000 N 
ATOM      4  H   UNL     1      -1.382  10.759  20.849  0.00  0.00    +0.000 HD
ENDROOT
BRANCH   1   8
ATOM      5  C   UNL     1      -4.746  13.068  23.759  0.00  0.00    +0.000 C 
ATOM      6  N   UNL     1      -4.614  12.807  22.339  0.00  0.00    +0.000 N 
ATOM      7  N   UNL     1      -3.345  12.823  21.814  0.00  0.00    +0.000 NA
ATOM      8  C   UNL     1      -3.185  12.549  20.550  0.00  0.00    +0.000 A 
ATOM      9  C   UNL     1      -4.299  12.178  19.649  0.00  0.00    +0.000 A 
ATOM     10  C   UNL     1      -4.131  11.769  18.318  0.00  0.00    +0.000 A 
ATOM     11  C   UNL     1      -5.238  11.398  17.548  0.00  0.00    +0.000 A 
ATOM     12  C   UNL     1      -6.520  11.442  18.090  0.00  0.00    +0.000 A 
ATOM     13  C   UNL     1      -6.695  11.854  19.410  0.00  0.00    +0.000 A 
ATOM     14  C   UNL     1      -5.583  12.209  20.188  0.00  0.00    +0.000 A 
ATOM     15  C   UNL     1      -5.771  12.562  21.605  0.00  0.00    +0.000 A 
ATOM     16  O   UNL     1      -6.905  12.598  22.077  0.00  0.00    +0.000 OA
ENDBRANCH   1   8
BRANCH   3  17
ATOM     17  C   UNL     1       0.375  11.441  19.809  0.00  0.00    +0.000 C 
BRANCH  17  18
ATOM     18  C   UNL     1       0.984  10.075  19.790  0.00  0.00    +0.000 A 
ATOM     19  C   UNL     1       1.622   9.582  18.659  0.00  0.00    +0.000 A 
ATOM     20  C   UNL     1       2.058   8.257  18.636  0.00  0.00    +0.000 A 
ATOM     21  C   UNL     1       1.889   7.430  19.749  0.00  0.00    +0.000 A 
ATOM     22  N   UNL     1       2.260   6.089  19.715  0.00  0.00    +0.000 N 
ATOM     23  C   UNL     1       3.400   5.668  18.909  0.00  0.00    +0.000 C 
ATOM     24  C   UNL     1       2.901   4.827  17.735  0.00  0.00    +0.000 C 
ATOM     25  C   UNL     1       2.509   3.402  18.123  0.00  0.00    +0.000 C 
ATOM     26  C   UNL     1       1.465   3.292  19.237  0.00  0.00    +0.000 C 
ATOM     27  C   UNL     1       1.986   3.758  20.598  0.00  0.00    +0.000 C 
ATOM     28  C   UNL     1       1.837   5.264  20.847  0.00  0.00    +0.000 C 
ATOM     29  N   UNL     1       1.301   7.923  20.862  0.00  0.00    +0.000 NA
ATOM     30  C   UNL     1       0.869   9.209  20.865  0.00  0.00    +0.000 A 
ENDBRANCH  17  18
ENDBRANCH   3  17
TORSDOF 3
ENDMDL
MODEL 7
REMARK VINA RESULT:      -8.3      2.000      3.044
REMARK  Name = 
REMARK  4 active torsions:
REMARK  status: ('A' for Active; 'I' for Inactive)
REMARK    1  A    between atoms: C_1  and  N_2
REMARK    2  A    between atoms: C_4  and  C_5
REMARK    3  A    between atoms: N_7  and  C_8
REMARK    4  A    between atoms: C_8  and  C_9
REMARK                            x       y       z     vdW  Elec       q    Type
REMARK                         _______ _______ _______ _____ _____    ______ ____
ROOT
ATOM      1  C   UNL     1      -1.003  11.484  19.499  0.00  0.00    +0.000 C 
ATOM      2  O   UNL     1      -0.189  12.389  19.437  0.00  0.00    +0.000 OA
ATOM      3  N   UNL     1      -0.743  10.239  20.040  0.00  0.00    +0.000 N 
ATOM      4  H   UNL     1      -1.527   9.612  20.197  0.00  0.00    +0.000 HD
ENDROOT
BRANCH   1   8
ATOM      5  C   UNL     1      -5.443  13.151  20.306  0.00  0.00    +0.000 C 
ATOM      6  N   UNL     1      -4.544  12.512  19.365  0.00  0.00    +0.000 N 
ATOM      7  N   UNL     1      -3.255  12.286  19.785  0.00  0.00    +0.000 NA
ATOM      8  C   UNL     1      -2.432  11.674  18.981  0.00  0.00    +0.000 A 
ATOM      9  C   UNL     1      -2.822  11.165  17.647  0.00  0.00    +0.000 A 
ATOM     10  C   UNL     1      -1.983  10.404  16.820  0.00  0.00    +0.000 A 
ATOM     11  C   UNL     1      -2.446   9.930  15.588  0.00  0.00    +0.000 A 
ATOM     12  C   UNL     1      -3.741  10.219  15.165  0.00  0.00    +0.000 A 
ATOM     13  C   UNL     1      -4.578  10.980  15.978  0.00  0.00    +0.000 A 
ATOM     14  C   UNL     1      -4.119  11.440  17.222  0.00  0.00    +0.000 A 
ATOM     15  C   UNL     1      -5.038  12.172  18.109  0.00  0.00    +0.000 A 
ATOM     16  O   UNL     1      -6.180  12.422  17.729  0.00  0.00    +0.000 OA
ENDBRANCH   1   8
BRANCH   3  17
ATOM     17  C   UNL     1       0.563   9.963  20.580  0.00  0.00    +0.000 C 
BRANCH  17  18
ATOM     18  C   UNL     1       1.339   8.931  19.824  0.00  0.00    +0.000 A 
ATOM     19  C   UNL     1       1.711   7.730  20.415  0.00  0.00    +0.000 A 
ATOM     20  C   UNL     1       2.547   6.852  19.723  0.00  0.00    +0.000 A 
ATOM     21  C   UNL     1       2.987   7.153  18.433  0.00  0.00    +0.000 A 
ATOM     22  N   UNL     1       3.873   6.317  17.759  0.00  0.00    +0.000 N 
ATOM     23  C   UNL     1       3.831   4.878  17.983  0.00  0.00    +0.000 C 
ATOM     24  C   UNL     1       5.097   4.447  18.723  0.00  0.00    +0.000 C 
ATOM     25  C   UNL     1       6.337   4.383  17.832  0.00  0.00    +0.000 C 
ATOM     26  C   UNL     1       6.667   5.673  17.078  0.00  0.00    +0.000 C 
ATOM     27  C   UNL     1       5.637   6.022  16.002  0.00  0.00    +0.000 C 
ATOM     28  C   UNL     1       4.441   6.834  16.514  0.00  0.00    +0.000 C 
ATOM     29  N   UNL     1       2.594   8.306  17.845  0.00  0.00    +0.000 NA
ATOM     30  C   UNL     1       1.792   9.156  18.535  0.00  0.00    +0.000 A 
ENDBRANCH  17  18
ENDBRANCH   3  17
TORSDOF 3
ENDMDL
MODEL 8
REMARK VINA RESULT:      -8.2      0.951      1.124
REMARK  Name = 
REMARK  4 active torsions:
REMARK  status: ('A' for Active; 'I' for Inactive)
REMARK    1  A    between atoms: C_1  and  N_2
REMARK    2  A    between atoms: C_4  and  C_5
REMARK    3  A    between atoms: N_7  and  C_8
REMARK    4  A    between atoms: C_8  and  C_9
REMARK                            x       y       z     vdW  Elec       q    Type
REMARK                         _______ _______ _______ _____ _____    ______ ____
ROOT
ATOM      1  C   UNL     1       0.508  11.931  19.321  0.00  0.00    +0.000 C 
ATOM      2  O   UNL     1       1.450  12.691  19.175  0.00  0.00    +0.000 OA
ATOM      3  N   UNL     1       0.465  10.642  18.823  0.00  0.00    +0.000 N 
ATOM      4  H   UNL     1      -0.287  10.034  19.136  0.00  0.00    +0.000 HD
ENDROOT
BRANCH   1   8
ATOM      5  C   UNL     1      -1.303  13.751  23.389  0.00  0.00    +0.000 C 
ATOM      6  N   UNL     1      -1.583  13.266  22.052  0.00  0.00    +0.000 N 
ATOM      7  N   UNL     1      -0.512  12.840  21.303  0.00  0.00    +0.000 NA
ATOM      8  C   UNL     1      -0.731  12.356  20.113  0.00  0.00    +0.000 A 
ATOM      9  C   UNL     1      -2.084  12.199  19.534  0.00  0.00    +0.000 A 
ATOM     10  C   UNL     1      -2.345  11.576  18.305  0.00  0.00    +0.000 A 
ATOM     11  C   UNL     1      -3.660  11.435  17.849  0.00  0.00    +0.000 A 
ATOM     12  C   UNL     1      -4.723  11.924  18.605  0.00  0.00    +0.000 A 
ATOM     13  C   UNL     1      -4.470  12.551  19.823  0.00  0.00    +0.000 A 
ATOM     14  C   UNL     1      -3.153  12.675  20.289  0.00  0.00    +0.000 A 
ATOM     15  C   UNL     1      -2.904  13.264  21.615  0.00  0.00    +0.000 A 
ATOM     16  O   UNL     1      -3.847  13.691  22.277  0.00  0.00    +0.000 OA
ENDBRANCH   1   8
BRANCH   3  17
ATOM     17  C   UNL     1       1.590  10.132  18.085  0.00  0.00    +0.000 C 
BRANCH  17  18
ATOM     18  C   UNL     1       2.055   8.779  18.522  0.00  0.00    +0.000 A 
ATOM     19  C   UNL     1       2.812   7.969  17.686  0.00  0.00    +0.000 A 
ATOM     20  C   UNL     1       3.112   6.664  18.077  0.00  0.00    +0.000 A 
ATOM     21  C   UNL     1       2.687   6.174  19.315  0.00  0.00    +0.000 A 
ATOM     22  N   UNL     1       2.924   4.854  19.689  0.00  0.00    +0.000 N 
ATOM     23  C   UNL     1       4.129   4.172  19.233  0.00  0.00    +0.000 C 
ATOM     24  C   UNL     1       3.741   3.077  18.241  0.00  0.00    +0.000 C 
ATOM     25  C   UNL     1       3.153   1.831  18.900  0.00  0.00    +0.000 C 
ATOM     26  C   UNL     1       1.940   2.078  19.800  0.00  0.00    +0.000 C 
ATOM     27  C   UNL     1       2.282   2.862  21.069  0.00  0.00    +0.000 C 
ATOM     28  C   UNL     1       2.246   4.385  20.898  0.00  0.00    +0.000 C 
ATOM     29  N   UNL     1       1.982   6.977  20.143  0.00  0.00    +0.000 NA
ATOM     30  C   UNL     1       1.686   8.238  19.743  0.00  0.00    +0.000 A 
ENDBRANCH  17  18
ENDBRANCH   3  17
TORSDOF 3
ENDMDL
MODEL 9
REMARK VINA RESULT:      -8.2      2.864      9.622
REMARK  Name = 
REMARK  4 active torsions:
REMARK  status: ('A' for Active; 'I' for Inactive)
REMARK    1  A    between atoms: C_1  and  N_2
REMARK    2  A    between atoms: C_4  and  C_5
REMARK    3  A    between atoms: N_7  and  C_8
REMARK    4  A    between atoms: C_8  and  C_9
REMARK                            x       y       z     vdW  Elec       q    Type
REMARK                         _______ _______ _______ _____ _____    ______ ____
ROOT
ATOM      1  C   UNL     1       2.122   7.619  19.055  0.00  0.00    +0.000 C 
ATOM      2  O   UNL     1       2.176   7.981  20.217  0.00  0.00    +0.000 OA
ATOM      3  N   UNL     1       1.809   8.450  17.995  0.00  0.00    +0.000 N 
ATOM      4  H   UNL     1       1.952   8.097  17.053  0.00  0.00    +0.000 HD
ENDROOT
BRANCH   1   8
ATOM      5  C   UNL     1       1.113   2.949  19.615  0.00  0.00    +0.000 C 
ATOM      6  N   UNL     1       1.908   3.938  18.915  0.00  0.00    +0.000 N 
ATOM      7  N   UNL     1       1.700   5.256  19.244  0.00  0.00    +0.000 NA
ATOM      8  C   UNL     1       2.429   6.170  18.667  0.00  0.00    +0.000 A 
ATOM      9  C   UNL     1       3.506   5.862  17.699  0.00  0.00    +0.000 A 
ATOM     10  C   UNL     1       4.373   6.821  17.158  0.00  0.00    +0.000 A 
ATOM     11  C   UNL     1       5.390   6.437  16.277  0.00  0.00    +0.000 A 
ATOM     12  C   UNL     1       5.544   5.100  15.920  0.00  0.00    +0.000 A 
ATOM     13  C   UNL     1       4.682   4.142  16.449  0.00  0.00    +0.000 A 
ATOM     14  C   UNL     1       3.673   4.525  17.346  0.00  0.00    +0.000 A 
ATOM     15  C   UNL     1       2.821   3.495  17.963  0.00  0.00    +0.000 A 
ATOM     16  O   UNL     1       2.964   2.317  17.644  0.00  0.00    +0.000 OA
ENDBRANCH   1   8
BRANCH   3  17
ATOM     17  C   UNL     1       1.530   9.839  18.246  0.00  0.00    +0.000 C 
BRANCH  17  18
ATOM     18  C   UNL     1       0.077  10.158  18.409  0.00  0.00    +0.000 A 
ATOM     19  C   UNL     1      -0.843   9.871  17.409  0.00  0.00    +0.000 A 
ATOM     20  C   UNL     1      -2.163  10.303  17.542  0.00  0.00    +0.000 A 
ATOM     21  C   UNL     1      -2.576  10.995  18.683  0.00  0.00    +0.000 A 
ATOM     22  N   UNL     1      -3.873  11.488  18.798  0.00  0.00    +0.000 N 
ATOM     23  C   UNL     1      -4.982  10.775  18.178  0.00  0.00    +0.000 C 
ATOM     24  C   UNL     1      -5.527  11.605  17.018  0.00  0.00    +0.000 C 
ATOM     25  C   UNL     1      -6.389  12.786  17.459  0.00  0.00    +0.000 C 
ATOM     26  C   UNL     1      -5.720  13.756  18.435  0.00  0.00    +0.000 C 
ATOM     27  C   UNL     1      -5.463  13.140  19.812  0.00  0.00    +0.000 C 
ATOM     28  C   UNL     1      -4.134  12.383  19.926  0.00  0.00    +0.000 C 
ATOM     29  N   UNL     1      -1.687  11.240  19.672  0.00  0.00    +0.000 NA
ATOM     30  C   UNL     1      -0.405  10.826  19.523  0.00  0.00    +0.000 A 
ENDBRANCH  17  18
ENDBRANCH   3  17
TORSDOF 3
ENDMDL
