MODEL 1
REMARK VINA RESULT:      -8.8      0.000      0.000
REMARK  Name = 
REMARK  8 active torsions:
REMARK  status: ('A' for Active; 'I' for Inactive)
REMARK    1  A    between atoms: C_1  and  N_2
REMARK    2  A    between atoms: N_2  and  C_3
REMARK    3  A    between atoms: C_8  and  C_9
REMARK    4  A    between atoms: N_15  and  C_16
REMARK    5  A    between atoms: C_20  and  C_21
REMARK    6  A    between atoms: C_21  and  C_22
REMARK    7  A    between atoms: C_22  and  C_23
REMARK    8  A    between atoms: N_27  and  C_28
REMARK                            x       y       z     vdW  Elec       q    Type
REMARK                         _______ _______ _______ _____ _____    ______ ____
ROOT
ATOM      1  C   UNL     1       0.503  11.483  20.582  0.00  0.00    +0.000 A 
ATOM      2  N   UNL     1       0.852  11.839  19.311  0.00  0.00    +0.000 NA
ATOM      3  C   UNL     1       1.291  10.909  18.437  0.00  0.00    +0.000 A 
ATOM      4  C   UNL     1       1.416   9.603  18.805  0.00  0.00    +0.000 A 
ATOM      5  C   UNL     1       1.011   9.243  20.081  0.00  0.00    +0.000 A 
ATOM      6  C   UNL     1       0.535  10.158  21.009  0.00  0.00    +0.000 A 
ATOM      7  C   UNL     1       1.364   7.829  20.263  0.00  0.00    +0.000 C 
ATOM      8  O   UNL     1       1.096   7.223  21.281  0.00  0.00    +0.000 OA
ATOM      9  N   UNL     1       2.068   7.427  19.124  0.00  0.00    +0.000 N 
ATOM     10  C   UNL     1       2.027   8.455  18.092  0.00  0.00    +0.000 C 
ENDROOT
BRANCH   9  11
ATOM     11  C   UNL     1       2.966   6.325  19.059  0.00  0.00    +0.000 A 
ATOM     12  C   UNL     1       2.668   5.105  19.675  0.00  0.00    +0.000 A 
ATOM     13  C   UNL     1       3.615   4.086  19.748  0.00  0.00    +0.000 A 
ATOM     14  C   UNL     1       4.888   4.282  19.223  0.00  0.00    +0.000 A 
ATOM     15  C   UNL     1       5.251   5.489  18.600  0.00  0.00    +0.000 A 
ATOM     16  C   UNL     1       4.240   6.471  18.482  0.00  0.00    +0.000 A 
BRANCH  15  17
ATOM     17  C   UNL     1       6.773   5.774  18.148  0.00  0.00    +0.000 C 
ATOM     18  C   UNL     1       7.724   6.154  19.350  0.00  0.00    +0.000 C 
ATOM     19  C   UNL     1       8.374   7.221  18.462  0.00  0.00    +0.000 C 
ATOM     20  C   UNL     1       7.096   7.221  17.609  0.00  0.00    +0.000 C 
BRANCH  17  21
ATOM     21  C   UNL     1       7.335   4.608  17.307  0.00  0.00    +0.000 C 
BRANCH  21  22
ATOM     22  C   UNL     1       7.000   4.682  15.854  0.00  0.00    +0.000 A 
ATOM     23  N   UNL     1       7.698   5.301  14.923  0.00  0.00    +0.000 NA
ATOM     24  N   UNL     1       7.105   5.064  13.707  0.00  0.00    +0.000 NA
ATOM     25  C   UNL     1       6.060   4.302  13.918  0.00  0.00    +0.000 A 
ATOM     26  N   UNL     1       5.941   4.052  15.250  0.00  0.00    +0.000 N 
ATOM     27  C   UNL     1       4.911   3.257  15.864  0.00  0.00    +0.000 C 
ENDBRANCH  21  22
ENDBRANCH  17  21
ENDBRANCH  15  17
ENDBRANCH   9  11
BRANCH   6  28
ATOM     28  C   UNL     1       0.163   9.717  22.385  0.00  0.00    +0.000 C 
ATOM     29  F   UNL     1      -0.694   8.649  22.424  0.00  0.00    +0.000 F 
ATOM     30  F   UNL     1       1.239   9.294  23.111  0.00  0.00    +0.000 F 
ATOM     31  F   UNL     1      -0.449  10.688  23.118  0.00  0.00    +0.000 F 
ENDBRANCH   6  28
BRANCH   1  33
ATOM     32  C   UNL     1      -0.635  13.577  21.023  0.00  0.00    +0.000 C 
ATOM     33  N   UNL     1       0.234  12.511  21.486  0.00  0.00    +0.000 N 
ATOM     34  H   UNL     1      -0.013  12.165  22.412  0.00  0.00    +0.000 HD
ENDBRANCH   1  33
TORSDOF 6
ENDMDL
MODEL 2
REMARK VINA RESULT:      -8.8      2.303      3.508
REMARK  Name = 
REMARK  8 active torsions:
REMARK  status: ('A' for Active; 'I' for Inactive)
REMARK    1  A    between atoms: C_1  and  N_2
REMARK    2  A    between atoms: N_2  and  C_3
REMARK    3  A    between atoms: C_8  and  C_9
REMARK    4  A    between atoms: N_15  and  C_16
REMARK    5  A    between atoms: C_20  and  C_21
REMARK    6  A    between atoms: C_21  and  C_22
REMARK    7  A    between atoms: C_22  and  C_23
REMARK    8  A    between atoms: N_27  and  C_28
REMARK                            x       y       z     vdW  Elec       q    Type
REMARK                         _______ _______ _______ _____ _____    ______ ____
ROOT
ATOM      1  C   UNL     1      -0.120  10.284  20.915  0.00  0.00    +0.000 A 
ATOM      2  N   UNL     1      -0.100   9.483  22.021  0.00  0.00    +0.000 NA
ATOM      3  C   UNL     1       0.624   8.344  22.027  0.00  0.00    +0.000 A 
ATOM      4  C   UNL     1       1.333   7.957  20.930  0.00  0.00    +0.000 A 
ATOM      5  C   UNL     1       1.348   8.802  19.831  0.00  0.00    +0.000 A 
ATOM      6  C   UNL     1       0.636   9.991  19.783  0.00  0.00    +0.000 A 
ATOM      7  C   UNL     1       2.067   8.102  18.758  0.00  0.00    +0.000 C 
ATOM      8  O   UNL     1       2.271   8.616  17.676  0.00  0.00    +0.000 OA
ATOM      9  N   UNL     1       2.359   6.817  19.224  0.00  0.00    +0.000 N 
ATOM     10  C   UNL     1       2.048   6.690  20.642  0.00  0.00    +0.000 C 
ENDROOT
BRANCH   9  11
ATOM     11  C   UNL     1       2.625   5.685  18.403  0.00  0.00    +0.000 A 
ATOM     12  C   UNL     1       1.859   4.519  18.499  0.00  0.00    +0.000 A 
ATOM     13  C   UNL     1       2.221   3.363  17.812  0.00  0.00    +0.000 A 
ATOM     14  C   UNL     1       3.373   3.349  17.033  0.00  0.00    +0.000 A 
ATOM     15  C   UNL     1       4.190   4.487  16.904  0.00  0.00    +0.000 A 
ATOM     16  C   UNL     1       3.749   5.660  17.558  0.00  0.00    +0.000 A 
BRANCH  15  17
ATOM     17  C   UNL     1       5.609   4.417  16.142  0.00  0.00    +0.000 C 
ATOM     18  C   UNL     1       5.760   5.491  14.995  0.00  0.00    +0.000 C 
ATOM     19  C   UNL     1       6.432   4.426  14.123  0.00  0.00    +0.000 C 
ATOM     20  C   UNL     1       5.743   3.355  14.983  0.00  0.00    +0.000 C 
BRANCH  17  21
ATOM     21  C   UNL     1       6.784   4.465  17.142  0.00  0.00    +0.000 C 
BRANCH  21  22
ATOM     22  C   UNL     1       7.314   5.837  17.399  0.00  0.00    +0.000 A 
ATOM     23  N   UNL     1       7.432   6.807  16.513  0.00  0.00    +0.000 NA
ATOM     24  N   UNL     1       7.877   7.933  17.161  0.00  0.00    +0.000 NA
ATOM     25  C   UNL     1       8.018   7.632  18.429  0.00  0.00    +0.000 A 
ATOM     26  N   UNL     1       7.695   6.325  18.624  0.00  0.00    +0.000 N 
ATOM     27  C   UNL     1       7.733   5.633  19.884  0.00  0.00    +0.000 C 
ENDBRANCH  21  22
ENDBRANCH  17  21
ENDBRANCH  15  17
ENDBRANCH   9  11
BRANCH   6  28
ATOM     28  C   UNL     1       0.650  10.834  18.551  0.00  0.00    +0.000 C 
ATOM     29  F   UNL     1       1.904  11.150  18.097  0.00  0.00    +0.000 F 
ATOM     30  F   UNL     1       0.068  10.213  17.483  0.00  0.00    +0.000 F 
ATOM     31  F   UNL     1       0.018  12.030  18.705  0.00  0.00    +0.000 F 
ENDBRANCH   6  28
BRANCH   1  33
ATOM     32  C   UNL     1      -0.815  12.392  21.887  0.00  0.00    +0.000 C 
ATOM     33  N   UNL     1      -1.026  11.344  20.906  0.00  0.00    +0.000 N 
ATOM     34  H   UNL     1      -1.203  11.701  19.968  0.00  0.00    +0.000 HD
ENDBRANCH   1  33
TORSDOF 6
ENDMDL
MODEL 3
REMARK VINA RESULT:      -8.7      1.272      2.647
REMARK  Name = 
REMARK  8 active torsions:
REMARK  status: ('A' for Active; 'I' for Inactive)
REMARK    1  A    between atoms: C_1  and  N_2
REMARK    2  A    between atoms: N_2  and  C_3
REMARK    3  A    between atoms: C_8  and  C_9
REMARK    4  A    between atoms: N_15  and  C_16
REMARK    5  A    between atoms: C_20  and  C_21
REMARK    6  A    between atoms: C_21  and  C_22
REMARK    7  A    between atoms: C_22  and  C_23
REMARK    8  A    between atoms: N_27  and  C_28
REMARK                            x       y       z     vdW  Elec       q    Type
REMARK                         _______ _______ _______ _____ _____    ______ ____
ROOT
ATOM      1  C   UNL     1       0.910  11.329  20.312  0.00  0.00    +0.000 A 
ATOM      2  N   UNL     1       1.309  11.660  19.049  0.00  0.00    +0.000 NA
ATOM      3  C   UNL     1       1.688  10.701  18.179  0.00  0.00    +0.000 A 
ATOM      4  C   UNL     1       1.703   9.388  18.542  0.00  0.00    +0.000 A 
ATOM      5  C   UNL     1       1.249   9.058  19.810  0.00  0.00    +0.000 A 
ATOM      6  C   UNL     1       0.831  10.004  20.734  0.00  0.00    +0.000 A 
ATOM      7  C   UNL     1       1.486   7.620  19.992  0.00  0.00    +0.000 C 
ATOM      8  O   UNL     1       1.154   7.033  21.002  0.00  0.00    +0.000 OA
ATOM      9  N   UNL     1       2.177   7.167  18.863  0.00  0.00    +0.000 N 
ATOM     10  C   UNL     1       2.234   8.198  17.835  0.00  0.00    +0.000 C 
ENDROOT
BRANCH   9  11
ATOM     11  C   UNL     1       2.986   5.997  18.809  0.00  0.00    +0.000 A 
ATOM     12  C   UNL     1       3.152   5.174  19.927  0.00  0.00    +0.000 A 
ATOM     13  C   UNL     1       4.069   4.125  19.918  0.00  0.00    +0.000 A 
ATOM     14  C   UNL     1       4.853   3.898  18.792  0.00  0.00    +0.000 A 
ATOM     15  C   UNL     1       4.739   4.697  17.640  0.00  0.00    +0.000 A 
ATOM     16  C   UNL     1       3.747   5.704  17.664  0.00  0.00    +0.000 A 
BRANCH  15  17
ATOM     17  C   UNL     1       5.765   4.539  16.406  0.00  0.00    +0.000 C 
ATOM     18  C   UNL     1       5.434   5.488  15.189  0.00  0.00    +0.000 C 
ATOM     19  C   UNL     1       5.760   4.334  14.235  0.00  0.00    +0.000 C 
ATOM     20  C   UNL     1       5.484   3.362  15.394  0.00  0.00    +0.000 C 
BRANCH  17  21
ATOM     21  C   UNL     1       7.229   4.681  16.874  0.00  0.00    +0.000 C 
BRANCH  21  22
ATOM     22  C   UNL     1       7.602   6.060  17.310  0.00  0.00    +0.000 A 
ATOM     23  N   UNL     1       7.647   7.134  16.547  0.00  0.00    +0.000 NA
ATOM     24  N   UNL     1       7.948   8.215  17.339  0.00  0.00    +0.000 NA
ATOM     25  C   UNL     1       8.076   7.782  18.569  0.00  0.00    +0.000 A 
ATOM     26  N   UNL     1       7.888   6.435  18.599  0.00  0.00    +0.000 N 
ATOM     27  C   UNL     1       7.956   5.606  19.772  0.00  0.00    +0.000 C 
ENDBRANCH  21  22
ENDBRANCH  17  21
ENDBRANCH  15  17
ENDBRANCH   9  11
BRANCH   6  28
ATOM     28  C   UNL     1       0.401   9.590  22.101  0.00  0.00    +0.000 C 
ATOM     29  F   UNL     1      -0.136  10.600  22.854  0.00  0.00    +0.000 F 
ATOM     30  F   UNL     1      -0.584   8.645  22.079  0.00  0.00    +0.000 F 
ATOM     31  F   UNL     1       1.414   9.086  22.858  0.00  0.00    +0.000 F 
ENDBRANCH   6  28
BRANCH   1  33
ATOM     32  C   UNL     1       0.824  13.721  20.692  0.00  0.00    +0.000 C 
ATOM     33  N   UNL     1       0.708  12.372  21.216  0.00  0.00    +0.000 N 
ATOM     34  H   UNL     1      -0.120  12.236  21.793  0.00  0.00    +0.000 HD
ENDBRANCH   1  33
TORSDOF 6
ENDMDL
MODEL 4
REMARK VINA RESULT:      -8.7      3.824      9.314
REMARK  Name = 
REMARK  8 active torsions:
REMARK  status: ('A' for Active; 'I' for Inactive)
REMARK    1  A    between atoms: C_1  and  N_2
REMARK    2  A    between atoms: N_2  and  C_3
REMARK    3  A    between atoms: C_8  and  C_9
REMARK    4  A    between atoms: N_15  and  C_16
REMARK    5  A    between atoms: C_20  and  C_21
REMARK    6  A    between atoms: C_21  and  C_22
REMARK    7  A    between atoms: C_22  and  C_23
REMARK    8  A    between atoms: N_27  and  C_28
REMARK                            x       y       z     vdW  Elec       q    Type
REMARK                         _______ _______ _______ _____ _____    ______ ____
ROOT
ATOM      1  C   UNL     1       3.400   4.289  18.499  0.00  0.00    +0.000 A 
ATOM      2  N   UNL     1       3.993   4.861  17.410  0.00  0.00    +0.000 NA
ATOM      3  C   UNL     1       3.903   6.191  17.202  0.00  0.00    +0.000 A 
ATOM      4  C   UNL     1       3.205   6.990  18.057  0.00  0.00    +0.000 A 
ATOM      5  C   UNL     1       2.649   6.408  19.186  0.00  0.00    +0.000 A 
ATOM      6  C   UNL     1       2.730   5.050  19.454  0.00  0.00    +0.000 A 
ATOM      7  C   UNL     1       1.857   7.445  19.860  0.00  0.00    +0.000 C 
ATOM      8  O   UNL     1       1.277   7.236  20.907  0.00  0.00    +0.000 OA
ATOM      9  N   UNL     1       1.880   8.581  19.044  0.00  0.00    +0.000 N 
ATOM     10  C   UNL     1       2.826   8.419  17.948  0.00  0.00    +0.000 C 
ENDROOT
BRANCH   9  11
ATOM     11  C   UNL     1       0.917   9.629  19.066  0.00  0.00    +0.000 A 
ATOM     12  C   UNL     1       0.883  10.566  20.103  0.00  0.00    +0.000 A 
ATOM     13  C   UNL     1      -0.157  11.488  20.205  0.00  0.00    +0.000 A 
ATOM     14  C   UNL     1      -1.194  11.470  19.280  0.00  0.00    +0.000 A 
ATOM     15  C   UNL     1      -1.222  10.545  18.220  0.00  0.00    +0.000 A 
ATOM     16  C   UNL     1      -0.113   9.675  18.110  0.00  0.00    +0.000 A 
BRANCH  15  17
ATOM     17  C   UNL     1      -2.507  10.416  17.255  0.00  0.00    +0.000 C 
ATOM     18  C   UNL     1      -2.315   9.367  16.091  0.00  0.00    +0.000 C 
ATOM     19  C   UNL     1      -3.013  10.340  15.135  0.00  0.00    +0.000 C 
ATOM     20  C   UNL     1      -2.636  11.478  16.096  0.00  0.00    +0.000 C 
BRANCH  17  21
ATOM     21  C   UNL     1      -3.794  10.154  18.067  0.00  0.00    +0.000 C 
BRANCH  21  22
ATOM     22  C   UNL     1      -4.792  11.263  18.007  0.00  0.00    +0.000 A 
ATOM     23  N   UNL     1      -5.744  11.408  17.106  0.00  0.00    +0.000 NA
ATOM     24  N   UNL     1      -6.501  12.502  17.448  0.00  0.00    +0.000 NA
ATOM     25  C   UNL     1      -6.000  13.001  18.552  0.00  0.00    +0.000 A 
ATOM     26  N   UNL     1      -4.917  12.270  18.931  0.00  0.00    +0.000 N 
ATOM     27  C   UNL     1      -4.104  12.518  20.090  0.00  0.00    +0.000 C 
ENDBRANCH  21  22
ENDBRANCH  17  21
ENDBRANCH  15  17
ENDBRANCH   9  11
BRANCH   6  28
ATOM     28  C   UNL     1       2.067   4.474  20.661  0.00  0.00    +0.000 C 
ATOM     29  F   UNL     1       2.325   3.145  20.867  0.00  0.00    +0.000 F 
ATOM     30  F   UNL     1       2.479   5.066  21.819  0.00  0.00    +0.000 F 
ATOM     31  F   UNL     1       0.709   4.570  20.629  0.00  0.00    +0.000 F 
ENDBRANCH   6  28
BRANCH   1  33
ATOM     32  C   UNL     1       2.457   2.221  17.657  0.00  0.00    +0.000 C 
ATOM     33  N   UNL     1       3.373   2.896  18.558  0.00  0.00    +0.000 N 
ATOM     34  H   UNL     1       4.306   2.486  18.564  0.00  0.00    +0.000 HD
ENDBRANCH   1  33
TORSDOF 6
ENDMDL
MODEL 5
REMARK VINA RESULT:      -8.4      3.146      9.159
REMARK  Name = 
REMARK  8 active torsions:
REMARK  status: ('A' for Active; 'I' for Inactive)
REMARK    1  A    between atoms: C_1  and  N_2
REMARK    2  A    between atoms: N_2  and  C_3
REMARK    3  A    between atoms: C_8  and  C_9
REMARK    4  A    between atoms: N_15  and  C_16
REMARK    5  A    between atoms: C_20  and  C_21
REMARK    6  A    between atoms: C_21  and  C_22
REMARK    7  A    between atoms: C_22  and  C_23
REMARK    8  A    between atoms: N_27  and  C_28
REMARK                            x       y       z     vdW  Elec       q    Type
REMARK                         _______ _______ _______ _____ _____    ______ ____
ROOT
ATOM      1  C   UNL     1       5.247   4.451  17.926  0.00  0.00    +0.000 A 
ATOM      2  N   UNL     1       4.745   3.596  18.864  0.00  0.00    +0.000 NA
ATOM      3  C   UNL     1       3.666   3.942  19.597  0.00  0.00    +0.000 A 
ATOM      4  C   UNL     1       3.066   5.154  19.434  0.00  0.00    +0.000 A 
ATOM      5  C   UNL     1       3.552   5.995  18.445  0.00  0.00    +0.000 A 
ATOM      6  C   UNL     1       4.645   5.677  17.653  0.00  0.00    +0.000 A 
ATOM      7  C   UNL     1       2.825   7.265  18.562  0.00  0.00    +0.000 C 
ATOM      8  O   UNL     1       3.013   8.190  17.797  0.00  0.00    +0.000 OA
ATOM      9  N   UNL     1       2.007   7.173  19.693  0.00  0.00    +0.000 N 
ATOM     10  C   UNL     1       2.000   5.816  20.225  0.00  0.00    +0.000 C 
ENDROOT
BRANCH   9  11
ATOM     11  C   UNL     1       1.494   8.277  20.429  0.00  0.00    +0.000 A 
ATOM     12  C   UNL     1       1.361   8.228  21.820  0.00  0.00    +0.000 A 
ATOM     13  C   UNL     1       0.711   9.244  22.517  0.00  0.00    +0.000 A 
ATOM     14  C   UNL     1       0.162  10.319  21.827  0.00  0.00    +0.000 A 
ATOM     15  C   UNL     1       0.254  10.421  20.427  0.00  0.00    +0.000 A 
ATOM     16  C   UNL     1       0.984   9.407  19.764  0.00  0.00    +0.000 A 
BRANCH  15  17
ATOM     17  C   UNL     1      -0.529  11.575  19.618  0.00  0.00    +0.000 C 
ATOM     18  C   UNL     1      -1.808  12.113  20.372  0.00  0.00    +0.000 C 
ATOM     19  C   UNL     1      -2.555  12.135  19.033  0.00  0.00    +0.000 C 
ATOM     20  C   UNL     1      -1.546  11.100  18.509  0.00  0.00    +0.000 C 
BRANCH  17  21
ATOM     21  C   UNL     1       0.425  12.715  19.204  0.00  0.00    +0.000 C 
BRANCH  21  22
ATOM     22  C   UNL     1       0.777  13.652  20.312  0.00  0.00    +0.000 A 
ATOM     23  N   UNL     1       1.638  13.422  21.285  0.00  0.00    +0.000 NA
ATOM     24  N   UNL     1       1.742  14.558  22.049  0.00  0.00    +0.000 NA
ATOM     25  C   UNL     1       0.948  15.461  21.527  0.00  0.00    +0.000 A 
ATOM     26  N   UNL     1       0.307  14.934  20.449  0.00  0.00    +0.000 N 
ATOM     27  C   UNL     1      -0.648  15.623  19.624  0.00  0.00    +0.000 C 
ENDBRANCH  21  22
ENDBRANCH  17  21
ENDBRANCH  15  17
ENDBRANCH   9  11
BRANCH   6  28
ATOM     28  C   UNL     1       5.153   6.646  16.637  0.00  0.00    +0.000 C 
ATOM     29  F   UNL     1       5.865   6.073  15.617  0.00  0.00    +0.000 F 
ATOM     30  F   UNL     1       4.148   7.310  15.996  0.00  0.00    +0.000 F 
ATOM     31  F   UNL     1       5.982   7.592  17.159  0.00  0.00    +0.000 F 
ENDBRANCH   6  28
BRANCH   1  33
ATOM     32  C   UNL     1       7.662   4.653  17.954  0.00  0.00    +0.000 C 
ATOM     33  N   UNL     1       6.465   4.114  17.335  0.00  0.00    +0.000 N 
ATOM     34  H   UNL     1       6.536   3.120  17.122  0.00  0.00    +0.000 HD
ENDBRANCH   1  33
TORSDOF 6
ENDMDL
MODEL 6
REMARK VINA RESULT:      -8.4      2.510      4.474
REMARK  Name = 
REMARK  8 active torsions:
REMARK  status: ('A' for Active; 'I' for Inactive)
REMARK    1  A    between atoms: C_1  and  N_2
REMARK    2  A    between atoms: N_2  and  C_3
REMARK    3  A    between atoms: C_8  and  C_9
REMARK    4  A    between atoms: N_15  and  C_16
REMARK    5  A    between atoms: C_20  and  C_21
REMARK    6  A    between atoms: C_21  and  C_22
REMARK    7  A    between atoms: C_22  and  C_23
REMARK    8  A    between atoms: N_27  and  C_28
REMARK                            x       y       z     vdW  Elec       q    Type
REMARK                         _______ _______ _______ _____ _____    ______ ____
ROOT
ATOM      1  C   UNL     1      -2.207  11.904  22.189  0.00  0.00    +0.000 A 
ATOM      2  N   UNL     1      -1.856  11.175  23.289  0.00  0.00    +0.000 NA
ATOM      3  C   UNL     1      -0.773  10.370  23.258  0.00  0.00    +0.000 A 
ATOM      4  C   UNL     1      -0.021  10.248  22.130  0.00  0.00    +0.000 A 
ATOM      5  C   UNL     1      -0.355  11.029  21.035  0.00  0.00    +0.000 A 
ATOM      6  C   UNL     1      -1.445  11.886  21.023  0.00  0.00    +0.000 A 
ATOM      7  C   UNL     1       0.520  10.619  19.928  0.00  0.00    +0.000 C 
ATOM      8  O   UNL     1       0.481  11.159  18.840  0.00  0.00    +0.000 OA
ATOM      9  N   UNL     1       1.271   9.528  20.376  0.00  0.00    +0.000 N 
ATOM     10  C   UNL     1       1.086   9.315  21.805  0.00  0.00    +0.000 C 
ENDROOT
BRANCH   9  11
ATOM     11  C   UNL     1       1.887   8.555  19.538  0.00  0.00    +0.000 A 
ATOM     12  C   UNL     1       2.272   8.860  18.229  0.00  0.00    +0.000 A 
ATOM     13  C   UNL     1       2.724   7.867  17.363  0.00  0.00    +0.000 A 
ATOM     14  C   UNL     1       2.777   6.545  17.789  0.00  0.00    +0.000 A 
ATOM     15  C   UNL     1       2.395   6.174  19.091  0.00  0.00    +0.000 A 
ATOM     16  C   UNL     1       2.011   7.220  19.961  0.00  0.00    +0.000 A 
BRANCH  15  17
ATOM     17  C   UNL     1       2.294   4.624  19.524  0.00  0.00    +0.000 C 
ATOM     18  C   UNL     1       1.381   3.762  18.568  0.00  0.00    +0.000 C 
ATOM     19  C   UNL     1       0.809   3.051  19.799  0.00  0.00    +0.000 C 
ATOM     20  C   UNL     1       1.237   4.264  20.639  0.00  0.00    +0.000 C 
BRANCH  17  21
ATOM     21  C   UNL     1       3.695   4.002  19.707  0.00  0.00    +0.000 C 
BRANCH  21  22
ATOM     22  C   UNL     1       4.521   3.976  18.464  0.00  0.00    +0.000 A 
ATOM     23  N   UNL     1       4.218   3.359  17.338  0.00  0.00    +0.000 NA
ATOM     24  N   UNL     1       5.190   3.647  16.411  0.00  0.00    +0.000 NA
ATOM     25  C   UNL     1       6.065   4.435  16.986  0.00  0.00    +0.000 A 
ATOM     26  N   UNL     1       5.700   4.654  18.279  0.00  0.00    +0.000 N 
ATOM     27  C   UNL     1       6.417   5.464  19.225  0.00  0.00    +0.000 C 
ENDBRANCH  21  22
ENDBRANCH  17  21
ENDBRANCH  15  17
ENDBRANCH   9  11
BRANCH   6  28
ATOM     28  C   UNL     1      -1.785  12.664  19.795  0.00  0.00    +0.000 C 
ATOM     29  F   UNL     1      -2.783  13.586  19.969  0.00  0.00    +0.000 F 
ATOM     30  F   UNL     1      -0.736  13.407  19.337  0.00  0.00    +0.000 F 
ATOM     31  F   UNL     1      -2.200  11.885  18.759  0.00  0.00    +0.000 F 
ENDBRANCH   6  28
BRANCH   1  33
ATOM     32  C   UNL     1      -4.046  12.738  23.528  0.00  0.00    +0.000 C 
ATOM     33  N   UNL     1      -3.431  12.571  22.224  0.00  0.00    +0.000 N 
ATOM     34  H   UNL     1      -3.429  13.425  21.669  0.00  0.00    +0.000 HD
ENDBRANCH   1  33
TORSDOF 6
ENDMDL
MODEL 7
REMARK VINA RESULT:      -8.3      2.558      4.505
REMARK  Name = 
REMARK  8 active torsions:
REMARK  status: ('A' for Active; 'I' for Inactive)
REMARK    1  A    between atoms: C_1  and  N_2
REMARK    2  A    between atoms: N_2  and  C_3
REMARK    3  A    between atoms: C_8  and  C_9
REMARK    4  A    between atoms: N_15  and  C_16
REMARK    5  A    between atoms: C_20  and  C_21
REMARK    6  A    between atoms: C_21  and  C_22
REMARK    7  A    between atoms: C_22  and  C_23
REMARK    8  A    between atoms: N_27  and  C_28
REMARK                            x       y       z     vdW  Elec       q    Type
REMARK                         _______ _______ _______ _____ _____    ______ ____
ROOT
ATOM      1  C   UNL     1      -1.740  12.495  22.307  0.00  0.00    +0.000 A 
ATOM      2  N   UNL     1      -1.889  11.531  23.263  0.00  0.00    +0.000 NA
ATOM      3  C   UNL     1      -1.099  10.437  23.260  0.00  0.00    +0.000 A 
ATOM      4  C   UNL     1      -0.152  10.258  22.297  0.00  0.00    +0.000 A 
ATOM      5  C   UNL     1       0.026  11.265  21.361  0.00  0.00    +0.000 A 
ATOM      6  C   UNL     1      -0.747  12.416  21.334  0.00  0.00    +0.000 A 
ATOM      7  C   UNL     1       1.000  10.774  20.378  0.00  0.00    +0.000 C 
ATOM      8  O   UNL     1       1.385  11.459  19.452  0.00  0.00    +0.000 OA
ATOM      9  N   UNL     1       1.285   9.444  20.705  0.00  0.00    +0.000 N 
ATOM     10  C   UNL     1       0.699   9.083  21.989  0.00  0.00    +0.000 C 
ENDROOT
BRANCH   9  11
ATOM     11  C   UNL     1       1.798   8.469  19.805  0.00  0.00    +0.000 A 
ATOM     12  C   UNL     1       1.951   8.743  18.442  0.00  0.00    +0.000 A 
ATOM     13  C   UNL     1       2.298   7.740  17.541  0.00  0.00    +0.000 A 
ATOM     14  C   UNL     1       2.477   6.436  17.988  0.00  0.00    +0.000 A 
ATOM     15  C   UNL     1       2.329   6.094  19.344  0.00  0.00    +0.000 A 
ATOM     16  C   UNL     1       2.047   7.154  20.237  0.00  0.00    +0.000 A 
BRANCH  15  17
ATOM     17  C   UNL     1       2.367   4.557  19.830  0.00  0.00    +0.000 C 
ATOM     18  C   UNL     1       0.943   3.876  19.875  0.00  0.00    +0.000 C 
ATOM     19  C   UNL     1       1.336   3.201  21.193  0.00  0.00    +0.000 C 
ATOM     20  C   UNL     1       2.389   4.304  21.387  0.00  0.00    +0.000 C 
BRANCH  17  21
ATOM     21  C   UNL     1       3.380   3.734  19.006  0.00  0.00    +0.000 C 
BRANCH  21  22
ATOM     22  C   UNL     1       4.754   4.317  18.965  0.00  0.00    +0.000 A 
ATOM     23  N   UNL     1       5.477   4.684  20.004  0.00  0.00    +0.000 NA
ATOM     24  N   UNL     1       6.710   5.089  19.553  0.00  0.00    +0.000 NA
ATOM     25  C   UNL     1       6.718   4.957  18.249  0.00  0.00    +0.000 A 
ATOM     26  N   UNL     1       5.508   4.495  17.832  0.00  0.00    +0.000 N 
ATOM     27  C   UNL     1       5.138   4.231  16.468  0.00  0.00    +0.000 C 
ENDBRANCH  21  22
ENDBRANCH  17  21
ENDBRANCH  15  17
ENDBRANCH   9  11
BRANCH   6  28
ATOM     28  C   UNL     1      -0.542  13.442  20.269  0.00  0.00    +0.000 C 
ATOM     29  F   UNL     1      -0.832  13.007  19.003  0.00  0.00    +0.000 F 
ATOM     30  F   UNL     1      -1.348  14.532  20.428  0.00  0.00    +0.000 F 
ATOM     31  F   UNL     1       0.737  13.903  20.201  0.00  0.00    +0.000 F 
ENDBRANCH   6  28
BRANCH   1  33
ATOM     32  C   UNL     1      -2.829  14.344  23.434  0.00  0.00    +0.000 C 
ATOM     33  N   UNL     1      -2.702  13.504  22.257  0.00  0.00    +0.000 N 
ATOM     34  H   UNL     1      -2.670  14.034  21.388  0.00  0.00    +0.000 HD
ENDBRANCH   1  33
TORSDOF 6
ENDMDL
MODEL 8
REMARK VINA RESULT:      -8.2      3.204      8.761
REMARK  Name = 
REMARK  8 active torsions:
REMARK  status: ('A' for Active; 'I' for Inactive)
REMARK    1  A    between atoms: C_1  and  N_2
REMARK    2  A    between atoms: N_2  and  C_3
REMARK    3  A    between atoms: C_8  and  C_9
REMARK    4  A    between atoms: N_15  and  C_16
REMARK    5  A    between atoms: C_20  and  C_21
REMARK    6  A    between atoms: C_21  and  C_22
REMARK    7  A    between atoms: C_22  and  C_23
REMARK    8  A    between atoms: N_27  and  C_28
REMARK                            x       y       z     vdW  Elec       q    Type
REMARK                         _______ _______ _______ _____ _____    ______ ____
ROOT
ATOM      1  C   UNL     1       5.339   4.514  18.206  0.00  0.00    +0.000 A 
ATOM      2  N   UNL     1       4.811   3.714  19.179  0.00  0.00    +0.000 NA
ATOM      3  C   UNL     1       3.693   4.086  19.837  0.00  0.00    +0.000 A 
ATOM      4  C   UNL     1       3.078   5.270  19.564  0.00  0.00    +0.000 A 
ATOM      5  C   UNL     1       3.592   6.051  18.541  0.00  0.00    +0.000 A 
ATOM      6  C   UNL     1       4.727   5.704  17.822  0.00  0.00    +0.000 A 
ATOM      7  C   UNL     1       2.836   7.310  18.537  0.00  0.00    +0.000 C 
ATOM      8  O   UNL     1       3.041   8.185  17.719  0.00  0.00    +0.000 OA
ATOM      9  N   UNL     1       1.970   7.277  19.634  0.00  0.00    +0.000 N 
ATOM     10  C   UNL     1       1.964   5.961  20.258  0.00  0.00    +0.000 C 
ENDROOT
BRANCH   9  11
ATOM     11  C   UNL     1       1.402   8.418  20.268  0.00  0.00    +0.000 A 
ATOM     12  C   UNL     1       1.356   8.531  21.661  0.00  0.00    +0.000 A 
ATOM     13  C   UNL     1       0.658   9.568  22.276  0.00  0.00    +0.000 A 
ATOM     14  C   UNL     1      -0.026  10.499  21.503  0.00  0.00    +0.000 A 
ATOM     15  C   UNL     1      -0.026  10.435  20.098  0.00  0.00    +0.000 A 
ATOM     16  C   UNL     1       0.753   9.410  19.511  0.00  0.00    +0.000 A 
BRANCH  15  17
ATOM     17  C   UNL     1      -0.957  11.410  19.214  0.00  0.00    +0.000 C 
ATOM     18  C   UNL     1      -2.256  11.892  19.970  0.00  0.00    +0.000 C 
ATOM     19  C   UNL     1      -3.050  11.696  18.674  0.00  0.00    +0.000 C 
ATOM     20  C   UNL     1      -1.959  10.719  18.210  0.00  0.00    +0.000 C 
BRANCH  17  21
ATOM     21  C   UNL     1      -0.145  12.591  18.640  0.00  0.00    +0.000 C 
BRANCH  21  22
ATOM     22  C   UNL     1       0.870  13.152  19.581  0.00  0.00    +0.000 A 
ATOM     23  N   UNL     1       0.633  13.643  20.782  0.00  0.00    +0.000 NA
ATOM     24  N   UNL     1       1.835  13.975  21.358  0.00  0.00    +0.000 NA
ATOM     25  C   UNL     1       2.781  13.677  20.502  0.00  0.00    +0.000 A 
ATOM     26  N   UNL     1       2.225  13.176  19.366  0.00  0.00    +0.000 N 
ATOM     27  C   UNL     1       2.948  12.742  18.201  0.00  0.00    +0.000 C 
ENDBRANCH  21  22
ENDBRANCH  17  21
ENDBRANCH  15  17
ENDBRANCH   9  11
BRANCH   6  28
ATOM     28  C   UNL     1       5.262   6.612  16.766  0.00  0.00    +0.000 C 
ATOM     29  F   UNL     1       4.299   7.262  16.039  0.00  0.00    +0.000 F 
ATOM     30  F   UNL     1       6.019   7.626  17.278  0.00  0.00    +0.000 F 
ATOM     31  F   UNL     1       6.031   5.974  15.842  0.00  0.00    +0.000 F 
ENDBRANCH   6  28
BRANCH   1  33
ATOM     32  C   UNL     1       7.745   4.775  18.325  0.00  0.00    +0.000 C 
ATOM     33  N   UNL     1       6.588   4.164  17.696  0.00  0.00    +0.000 N 
ATOM     34  H   UNL     1       6.689   3.159  17.559  0.00  0.00    +0.000 HD
ENDBRANCH   1  33
TORSDOF 6
ENDMDL
MODEL 9
REMARK VINA RESULT:      -8.2      3.657      8.916
REMARK  Name = 
REMARK  8 active torsions:
REMARK  status: ('A' for Active; 'I' for Inactive)
REMARK    1  A    between atoms: C_1  and  N_2
REMARK    2  A    between atoms: N_2  and  C_3
REMARK    3  A    between atoms: C_8  and  C_9
REMARK    4  A    between atoms: N_15  and  C_16
REMARK    5  A    between atoms: C_20  and  C_21
REMARK    6  A    between atoms: C_21  and  C_22
REMARK    7  A    between atoms: C_22  and  C_23
REMARK    8  A    between atoms: N_27  and  C_28
REMARK                            x       y       z     vdW  Elec       q    Type
REMARK                         _______ _______ _______ _____ _____    ______ ____
ROOT
ATOM      1  C   UNL     1       5.456   4.459  18.188  0.00  0.00    +0.000 A 
ATOM      2  N   UNL     1       4.945   3.670  19.178  0.00  0.00    +0.000 NA
ATOM      3  C   UNL     1       3.825   4.037  19.836  0.00  0.00    +0.000 A 
ATOM      4  C   UNL     1       3.192   5.207  19.544  0.00  0.00    +0.000 A 
ATOM      5  C   UNL     1       3.689   5.977  18.504  0.00  0.00    +0.000 A 
ATOM      6  C   UNL     1       4.824   5.633  17.786  0.00  0.00    +0.000 A 
ATOM      7  C   UNL     1       2.914   7.224  18.481  0.00  0.00    +0.000 C 
ATOM      8  O   UNL     1       3.102   8.086  17.646  0.00  0.00    +0.000 OA
ATOM      9  N   UNL     1       2.054   7.198  19.584  0.00  0.00    +0.000 N 
ATOM     10  C   UNL     1       2.071   5.894  20.232  0.00  0.00    +0.000 C 
ENDROOT
BRANCH   9  11
ATOM     11  C   UNL     1       1.472   8.343  20.199  0.00  0.00    +0.000 A 
ATOM     12  C   UNL     1       1.119   8.342  21.552  0.00  0.00    +0.000 A 
ATOM     13  C   UNL     1       0.406   9.400  22.110  0.00  0.00    +0.000 A 
ATOM     14  C   UNL     1       0.014  10.470  21.313  0.00  0.00    +0.000 A 
ATOM     15  C   UNL     1       0.331  10.525  19.944  0.00  0.00    +0.000 A 
ATOM     16  C   UNL     1       1.117   9.467  19.433  0.00  0.00    +0.000 A 
BRANCH  15  17
ATOM     17  C   UNL     1      -0.271  11.678  18.991  0.00  0.00    +0.000 C 
ATOM     18  C   UNL     1       0.809  12.729  18.518  0.00  0.00    +0.000 C 
ATOM     19  C   UNL     1      -0.219  13.844  18.738  0.00  0.00    +0.000 C 
ATOM     20  C   UNL     1      -0.958  12.905  19.705  0.00  0.00    +0.000 C 
BRANCH  17  21
ATOM     21  C   UNL     1      -1.052  11.073  17.804  0.00  0.00    +0.000 C 
BRANCH  21  22
ATOM     22  C   UNL     1      -2.529  11.274  17.878  0.00  0.00    +0.000 A 
ATOM     23  N   UNL     1      -3.216  11.634  18.944  0.00  0.00    +0.000 NA
ATOM     24  N   UNL     1      -4.531  11.793  18.580  0.00  0.00    +0.000 NA
ATOM     25  C   UNL     1      -4.622  11.530  17.299  0.00  0.00    +0.000 A 
ATOM     26  N   UNL     1      -3.397  11.181  16.819  0.00  0.00    +0.000 N 
ATOM     27  C   UNL     1      -3.104  10.819  15.458  0.00  0.00    +0.000 C 
ENDBRANCH  21  22
ENDBRANCH  17  21
ENDBRANCH  15  17
ENDBRANCH   9  11
BRANCH   6  28
ATOM     28  C   UNL     1       5.341   6.529  16.710  0.00  0.00    +0.000 C 
ATOM     29  F   UNL     1       4.365   7.107  15.940  0.00  0.00    +0.000 F 
ATOM     30  F   UNL     1       6.037   7.595  17.202  0.00  0.00    +0.000 F 
ATOM     31  F   UNL     1       6.160   5.897  15.825  0.00  0.00    +0.000 F 
ENDBRANCH   6  28
BRANCH   1  33
ATOM     32  C   UNL     1       7.862   4.717  18.323  0.00  0.00    +0.000 C 
ATOM     33  N   UNL     1       6.708   4.119  17.677  0.00  0.00    +0.000 N 
ATOM     34  H   UNL     1       6.810   3.117  17.523  0.00  0.00    +0.000 HD
ENDBRANCH   1  33
TORSDOF 6
ENDMDL
