MODEL 1
REMARK VINA RESULT:      -8.1      0.000      0.000
REMARK  Name = 
REMARK  3 active torsions:
REMARK  status: ('A' for Active; 'I' for Inactive)
REMARK    1  A    between atoms: C_1  and  C_2
REMARK    2  A    between atoms: N_4  and  C_5
REMARK    3  A    between atoms: C_18  and  C_20
REMARK                            x       y       z     vdW  Elec       q    Type
REMARK                         _______ _______ _______ _____ _____    ______ ____
ROOT
ATOM      1  C   UNL     1       0.043   9.242  17.669  0.00  0.00    +0.000 C 
ATOM      2  C   UNL     1       1.288   9.748  18.419  0.00  0.00    +0.000 C 
ATOM      3  C   UNL     1       2.492   8.816  18.138  0.00  0.00    +0.000 C 
ATOM      4  N   UNL     1       2.279   7.540  18.829  0.00  0.00    +0.000 N 
ATOM      5  C   UNL     1       2.169   7.684  20.291  0.00  0.00    +0.000 C 
ATOM      6  C   UNL     1       0.956   8.587  20.610  0.00  0.00    +0.000 C 
ATOM      7  N   UNL     1       1.012   9.873  19.880  0.00  0.00    +0.000 N 
ATOM      8  C   UNL     1       0.847  11.038  20.628  0.00  0.00    +0.000 C 
ATOM      9  O   UNL     1       0.706  11.009  21.853  0.00  0.00    +0.000 OA
ENDROOT
BRANCH   8  10
ATOM     10  C   UNL     1       0.889  12.389  20.022  0.00  0.00    +0.000 A 
ATOM     11  C   UNL     1      -0.205  13.026  19.456  0.00  0.00    +0.000 A 
ATOM     12  N   UNL     1      -0.166  14.247  18.870  0.00  0.00    +0.000 NA
ATOM     13  C   UNL     1       1.010  14.901  18.917  0.00  0.00    +0.000 A 
ATOM     14  C   UNL     1       2.152  14.380  19.527  0.00  0.00    +0.000 A 
ATOM     15  C   UNL     1       2.090  13.109  20.087  0.00  0.00    +0.000 A 
ATOM     16  N   UNL     1       3.349  15.100  19.535  0.00  0.00    +0.000 N 
ATOM     17  C   UNL     1       3.401  16.374  19.032  0.00  0.00    +0.000 C 
ATOM     18  O   UNL     1       4.458  16.990  18.938  0.00  0.00    +0.000 OA
ATOM     19  C   UNL     1       2.034  16.978  18.708  0.00  0.00    +0.000 C 
ATOM     20  O   UNL     1       1.012  16.102  18.260  0.00  0.00    +0.000 OA
ATOM     21  H   UNL     1       4.212  14.694  19.873  0.00  0.00    +0.000 HD
ENDBRANCH   8  10
BRANCH   4  22
ATOM     22  C   UNL     1       2.557   6.327  18.215  0.00  0.00    +0.000 A 
ATOM     23  C   UNL     1       1.589   5.302  18.221  0.00  0.00    +0.000 A 
ATOM     24  C   UNL     1       1.827   4.051  17.655  0.00  0.00    +0.000 A 
ATOM     25  C   UNL     1       3.044   3.796  17.041  0.00  0.00    +0.000 A 
ATOM     26  C   UNL     1       4.038   4.780  17.011  0.00  0.00    +0.000 A 
ATOM     27  C   UNL     1       5.272   4.527  16.417  0.00  0.00    +0.000 A 
ATOM     28  N   UNL     1       6.313   5.396  16.372  0.00  0.00    +0.000 NA
ATOM     29  C   UNL     1       6.116   6.572  16.985  0.00  0.00    +0.000 A 
ATOM     30  C   UNL     1       4.934   6.918  17.617  0.00  0.00    +0.000 A 
ATOM     31  C   UNL     1       3.827   6.041  17.613  0.00  0.00    +0.000 A 
ENDBRANCH   4  22
TORSDOF 2
ENDMDL
MODEL 2
REMARK VINA RESULT:      -7.9      1.058      1.910
REMARK  Name = 
REMARK  3 active torsions:
REMARK  status: ('A' for Active; 'I' for Inactive)
REMARK    1  A    between atoms: C_1  and  C_2
REMARK    2  A    between atoms: N_4  and  C_5
REMARK    3  A    between atoms: C_18  and  C_20
REMARK                            x       y       z     vdW  Elec       q    Type
REMARK                         _______ _______ _______ _____ _____    ______ ____
ROOT
ATOM      1  C   UNL     1       0.113   9.187  17.639  0.00  0.00    +0.000 C 
ATOM      2  C   UNL     1       1.351   9.666  18.419  0.00  0.00    +0.000 C 
ATOM      3  C   UNL     1       2.545   8.716  18.153  0.00  0.00    +0.000 C 
ATOM      4  N   UNL     1       2.297   7.438  18.829  0.00  0.00    +0.000 N 
ATOM      5  C   UNL     1       2.160   7.572  20.290  0.00  0.00    +0.000 C 
ATOM      6  C   UNL     1       0.957   8.493  20.593  0.00  0.00    +0.000 C 
ATOM      7  N   UNL     1       1.048   9.784  19.875  0.00  0.00    +0.000 N 
ATOM      8  C   UNL     1       0.887  10.945  20.629  0.00  0.00    +0.000 C 
ATOM      9  O   UNL     1       0.723  10.909  21.851  0.00  0.00    +0.000 OA
ENDROOT
BRANCH   8  10
ATOM     10  C   UNL     1       0.964  12.300  20.036  0.00  0.00    +0.000 A 
ATOM     11  C   UNL     1       2.043  12.772  19.303  0.00  0.00    +0.000 A 
ATOM     12  N   UNL     1       2.135  14.021  18.787  0.00  0.00    +0.000 NA
ATOM     13  C   UNL     1       1.062  14.819  18.945  0.00  0.00    +0.000 A 
ATOM     14  C   UNL     1      -0.102  14.417  19.602  0.00  0.00    +0.000 A 
ATOM     15  C   UNL     1      -0.151  13.141  20.154  0.00  0.00    +0.000 A 
ATOM     16  N   UNL     1      -1.180  15.292  19.745  0.00  0.00    +0.000 N 
ATOM     17  C   UNL     1      -1.157  16.531  19.158  0.00  0.00    +0.000 C 
ATOM     18  O   UNL     1      -2.047  17.354  19.350  0.00  0.00    +0.000 OA
ATOM     19  C   UNL     1      -0.001  16.741  18.181  0.00  0.00    +0.000 C 
ATOM     20  O   UNL     1       1.228  16.088  18.457  0.00  0.00    +0.000 OA
ATOM     21  H   UNL     1      -1.985  15.058  20.313  0.00  0.00    +0.000 HD
ENDBRANCH   8  10
BRANCH   4  22
ATOM     22  C   UNL     1       2.567   6.226  18.210  0.00  0.00    +0.000 A 
ATOM     23  C   UNL     1       1.603   5.197  18.236  0.00  0.00    +0.000 A 
ATOM     24  C   UNL     1       1.834   3.947  17.667  0.00  0.00    +0.000 A 
ATOM     25  C   UNL     1       3.039   3.695  17.029  0.00  0.00    +0.000 A 
ATOM     26  C   UNL     1       4.029   4.683  16.979  0.00  0.00    +0.000 A 
ATOM     27  C   UNL     1       5.252   4.433  16.361  0.00  0.00    +0.000 A 
ATOM     28  N   UNL     1       6.289   5.306  16.294  0.00  0.00    +0.000 NA
ATOM     29  C   UNL     1       6.101   6.482  16.911  0.00  0.00    +0.000 A 
ATOM     30  C   UNL     1       4.929   6.825  17.565  0.00  0.00    +0.000 A 
ATOM     31  C   UNL     1       3.826   5.944  17.584  0.00  0.00    +0.000 A 
ENDBRANCH   4  22
TORSDOF 2
ENDMDL
MODEL 3
REMARK VINA RESULT:      -7.8      3.597      9.116
REMARK  Name = 
REMARK  3 active torsions:
REMARK  status: ('A' for Active; 'I' for Inactive)
REMARK    1  A    between atoms: C_1  and  C_2
REMARK    2  A    between atoms: N_4  and  C_5
REMARK    3  A    between atoms: C_18  and  C_20
REMARK                            x       y       z     vdW  Elec       q    Type
REMARK                         _______ _______ _______ _____ _____    ______ ____
ROOT
ATOM      1  C   UNL     1      -0.410   8.413  21.241  0.00  0.00    +0.000 C 
ATOM      2  C   UNL     1       0.834   9.172  20.746  0.00  0.00    +0.000 C 
ATOM      3  C   UNL     1       0.997  10.494  21.535  0.00  0.00    +0.000 C 
ATOM      4  N   UNL     1      -0.053  11.430  21.120  0.00  0.00    +0.000 N 
ATOM      5  C   UNL     1       0.003  11.765  19.687  0.00  0.00    +0.000 C 
ATOM      6  C   UNL     1      -0.186  10.469  18.867  0.00  0.00    +0.000 C 
ATOM      7  N   UNL     1       0.761   9.408  19.275  0.00  0.00    +0.000 N 
ATOM      8  C   UNL     1       1.497   8.788  18.266  0.00  0.00    +0.000 C 
ATOM      9  O   UNL     1       1.404   9.136  17.086  0.00  0.00    +0.000 OA
ENDROOT
BRANCH   8  10
ATOM     10  C   UNL     1       2.484   7.719  18.540  0.00  0.00    +0.000 A 
ATOM     11  C   UNL     1       2.379   6.806  19.579  0.00  0.00    +0.000 A 
ATOM     12  N   UNL     1       3.296   5.847  19.855  0.00  0.00    +0.000 NA
ATOM     13  C   UNL     1       4.336   5.743  19.007  0.00  0.00    +0.000 A 
ATOM     14  C   UNL     1       4.497   6.565  17.889  0.00  0.00    +0.000 A 
ATOM     15  C   UNL     1       3.559   7.564  17.653  0.00  0.00    +0.000 A 
ATOM     16  N   UNL     1       5.603   6.418  17.049  0.00  0.00    +0.000 N 
ATOM     17  C   UNL     1       6.501   5.401  17.247  0.00  0.00    +0.000 C 
ATOM     18  O   UNL     1       7.531   5.310  16.586  0.00  0.00    +0.000 OA
ATOM     19  C   UNL     1       6.054   4.359  18.272  0.00  0.00    +0.000 C 
ATOM     20  O   UNL     1       5.262   4.799  19.363  0.00  0.00    +0.000 OA
ATOM     21  H   UNL     1       5.795   7.074  16.302  0.00  0.00    +0.000 HD
ENDBRANCH   8  10
BRANCH   4  22
ATOM     22  C   UNL     1      -0.743  12.203  22.044  0.00  0.00    +0.000 A 
ATOM     23  C   UNL     1      -1.931  11.708  22.620  0.00  0.00    +0.000 A 
ATOM     24  C   UNL     1      -2.685  12.456  23.523  0.00  0.00    +0.000 A 
ATOM     25  C   UNL     1      -2.256  13.720  23.895  0.00  0.00    +0.000 A 
ATOM     26  C   UNL     1      -1.085  14.255  23.348  0.00  0.00    +0.000 A 
ATOM     27  C   UNL     1      -0.656  15.535  23.697  0.00  0.00    +0.000 A 
ATOM     28  N   UNL     1       0.439  16.158  23.195  0.00  0.00    +0.000 NA
ATOM     29  C   UNL     1       1.124  15.475  22.266  0.00  0.00    +0.000 A 
ATOM     30  C   UNL     1       0.776  14.205  21.839  0.00  0.00    +0.000 A 
ATOM     31  C   UNL     1      -0.327  13.528  22.403  0.00  0.00    +0.000 A 
ENDBRANCH   4  22
TORSDOF 2
ENDMDL
MODEL 4
REMARK VINA RESULT:      -7.6      4.436      9.443
REMARK  Name = 
REMARK  3 active torsions:
REMARK  status: ('A' for Active; 'I' for Inactive)
REMARK    1  A    between atoms: C_1  and  C_2
REMARK    2  A    between atoms: N_4  and  C_5
REMARK    3  A    between atoms: C_18  and  C_20
REMARK                            x       y       z     vdW  Elec       q    Type
REMARK                         _______ _______ _______ _____ _____    ______ ____
ROOT
ATOM      1  C   UNL     1      -1.936   9.886  16.836  0.00  0.00    +0.000 C 
ATOM      2  C   UNL     1      -1.567  10.063  18.319  0.00  0.00    +0.000 C 
ATOM      3  C   UNL     1      -2.834  10.396  19.144  0.00  0.00    +0.000 C 
ATOM      4  N   UNL     1      -3.265  11.762  18.825  0.00  0.00    +0.000 N 
ATOM      5  C   UNL     1      -2.250  12.780  19.148  0.00  0.00    +0.000 C 
ATOM      6  C   UNL     1      -0.978  12.493  18.318  0.00  0.00    +0.000 C 
ATOM      7  N   UNL     1      -0.508  11.100  18.483  0.00  0.00    +0.000 N 
ATOM      8  C   UNL     1       0.835  10.915  18.807  0.00  0.00    +0.000 C 
ATOM      9  O   UNL     1       1.595  11.868  18.998  0.00  0.00    +0.000 OA
ENDROOT
BRANCH   8  10
ATOM     10  C   UNL     1       1.431   9.575  19.008  0.00  0.00    +0.000 A 
ATOM     11  C   UNL     1       1.209   8.780  20.123  0.00  0.00    +0.000 A 
ATOM     12  N   UNL     1       1.778   7.567  20.329  0.00  0.00    +0.000 NA
ATOM     13  C   UNL     1       2.551   7.088  19.337  0.00  0.00    +0.000 A 
ATOM     14  C   UNL     1       2.780   7.775  18.143  0.00  0.00    +0.000 A 
ATOM     15  C   UNL     1       2.212   9.034  17.978  0.00  0.00    +0.000 A 
ATOM     16  N   UNL     1       3.601   7.232  17.153  0.00  0.00    +0.000 N 
ATOM     17  C   UNL     1       4.120   5.970  17.289  0.00  0.00    +0.000 C 
ATOM     18  O   UNL     1       4.920   5.509  16.482  0.00  0.00    +0.000 OA
ATOM     19  C   UNL     1       3.535   5.174  18.456  0.00  0.00    +0.000 C 
ATOM     20  O   UNL     1       3.149   5.888  19.619  0.00  0.00    +0.000 OA
ATOM     21  H   UNL     1       3.868   7.762  16.333  0.00  0.00    +0.000 HD
ENDBRANCH   8  10
BRANCH   4  22
ATOM     22  C   UNL     1      -4.603  12.073  18.630  0.00  0.00    +0.000 A 
ATOM     23  C   UNL     1      -5.132  12.097  17.323  0.00  0.00    +0.000 A 
ATOM     24  C   UNL     1      -6.457  12.442  17.064  0.00  0.00    +0.000 A 
ATOM     25  C   UNL     1      -7.304  12.752  18.116  0.00  0.00    +0.000 A 
ATOM     26  C   UNL     1      -6.825  12.745  19.431  0.00  0.00    +0.000 A 
ATOM     27  C   UNL     1      -7.662  13.078  20.494  0.00  0.00    +0.000 A 
ATOM     28  N   UNL     1      -7.287  13.141  21.796  0.00  0.00    +0.000 NA
ATOM     29  C   UNL     1      -5.993  12.888  22.042  0.00  0.00    +0.000 A 
ATOM     30  C   UNL     1      -5.076  12.562  21.058  0.00  0.00    +0.000 A 
ATOM     31  C   UNL     1      -5.475  12.435  19.710  0.00  0.00    +0.000 A 
ENDBRANCH   4  22
TORSDOF 2
ENDMDL
MODEL 5
REMARK VINA RESULT:      -7.5      4.481      9.643
REMARK  Name = 
REMARK  3 active torsions:
REMARK  status: ('A' for Active; 'I' for Inactive)
REMARK    1  A    between atoms: C_1  and  C_2
REMARK    2  A    between atoms: N_4  and  C_5
REMARK    3  A    between atoms: C_18  and  C_20
REMARK                            x       y       z     vdW  Elec       q    Type
REMARK                         _______ _______ _______ _____ _____    ______ ____
ROOT
ATOM      1  C   UNL     1      -1.894  11.019  16.775  0.00  0.00    +0.000 C 
ATOM      2  C   UNL     1      -1.699  10.576  18.235  0.00  0.00    +0.000 C 
ATOM      3  C   UNL     1      -3.066  10.527  18.961  0.00  0.00    +0.000 C 
ATOM      4  N   UNL     1      -3.542  11.899  19.173  0.00  0.00    +0.000 N 
ATOM      5  C   UNL     1      -2.633  12.706  20.005  0.00  0.00    +0.000 C 
ATOM      6  C   UNL     1      -1.263  12.799  19.294  0.00  0.00    +0.000 C 
ATOM      7  N   UNL     1      -0.729  11.467  18.936  0.00  0.00    +0.000 N 
ATOM      8  C   UNL     1       0.580  11.180  19.321  0.00  0.00    +0.000 C 
ATOM      9  O   UNL     1       1.255  11.979  19.974  0.00  0.00    +0.000 OA
ENDROOT
BRANCH   8  10
ATOM     10  C   UNL     1       1.231   9.882  19.032  0.00  0.00    +0.000 A 
ATOM     11  C   UNL     1       1.888   9.584  17.847  0.00  0.00    +0.000 A 
ATOM     12  N   UNL     1       2.456   8.386  17.563  0.00  0.00    +0.000 NA
ATOM     13  C   UNL     1       2.434   7.461  18.541  0.00  0.00    +0.000 A 
ATOM     14  C   UNL     1       1.863   7.685  19.795  0.00  0.00    +0.000 A 
ATOM     15  C   UNL     1       1.255   8.911  20.043  0.00  0.00    +0.000 A 
ATOM     16  N   UNL     1       1.860   6.683  20.767  0.00  0.00    +0.000 N 
ATOM     17  C   UNL     1       2.505   5.493  20.546  0.00  0.00    +0.000 C 
ATOM     18  O   UNL     1       2.434   4.562  21.342  0.00  0.00    +0.000 OA
ATOM     19  C   UNL     1       3.384   5.478  19.296  0.00  0.00    +0.000 C 
ATOM     20  O   UNL     1       2.968   6.252  18.183  0.00  0.00    +0.000 OA
ATOM     21  H   UNL     1       1.356   6.788  21.638  0.00  0.00    +0.000 HD
ENDBRANCH   8  10
BRANCH   4  22
ATOM     22  C   UNL     1      -4.868  12.248  18.957  0.00  0.00    +0.000 A 
ATOM     23  C   UNL     1      -5.382  12.263  17.644  0.00  0.00    +0.000 A 
ATOM     24  C   UNL     1      -6.692  12.643  17.364  0.00  0.00    +0.000 A 
ATOM     25  C   UNL     1      -7.541  13.000  18.400  0.00  0.00    +0.000 A 
ATOM     26  C   UNL     1      -7.077  13.003  19.720  0.00  0.00    +0.000 A 
ATOM     27  C   UNL     1      -7.914  13.382  20.768  0.00  0.00    +0.000 A 
ATOM     28  N   UNL     1      -7.550  13.459  22.072  0.00  0.00    +0.000 NA
ATOM     29  C   UNL     1      -6.267  13.171  22.338  0.00  0.00    +0.000 A 
ATOM     30  C   UNL     1      -5.351  12.798  21.370  0.00  0.00    +0.000 A 
ATOM     31  C   UNL     1      -5.740  12.657  20.020  0.00  0.00    +0.000 A 
ENDBRANCH   4  22
TORSDOF 2
ENDMDL
MODEL 6
REMARK VINA RESULT:      -7.5      1.255      2.307
REMARK  Name = 
REMARK  3 active torsions:
REMARK  status: ('A' for Active; 'I' for Inactive)
REMARK    1  A    between atoms: C_1  and  C_2
REMARK    2  A    between atoms: N_4  and  C_5
REMARK    3  A    between atoms: C_18  and  C_20
REMARK                            x       y       z     vdW  Elec       q    Type
REMARK                         _______ _______ _______ _____ _____    ______ ____
ROOT
ATOM      1  C   UNL     1       0.107   9.188  17.808  0.00  0.00    +0.000 C 
ATOM      2  C   UNL     1       1.234   9.795  18.660  0.00  0.00    +0.000 C 
ATOM      3  C   UNL     1       2.529   8.962  18.499  0.00  0.00    +0.000 C 
ATOM      4  N   UNL     1       2.357   7.676  19.184  0.00  0.00    +0.000 N 
ATOM      5  C   UNL     1       2.105   7.818  20.628  0.00  0.00    +0.000 C 
ATOM      6  C   UNL     1       0.801   8.623  20.827  0.00  0.00    +0.000 C 
ATOM      7  N   UNL     1       0.819   9.905  20.089  0.00  0.00    +0.000 N 
ATOM      8  C   UNL     1       0.495  11.057  20.805  0.00  0.00    +0.000 C 
ATOM      9  O   UNL     1       0.248  11.023  22.013  0.00  0.00    +0.000 OA
ENDROOT
BRANCH   8  10
ATOM     10  C   UNL     1       0.484  12.404  20.189  0.00  0.00    +0.000 A 
ATOM     11  C   UNL     1      -0.649  13.020  19.678  0.00  0.00    +0.000 A 
ATOM     12  N   UNL     1      -0.660  14.237  19.083  0.00  0.00    +0.000 NA
ATOM     13  C   UNL     1       0.506  14.909  19.062  0.00  0.00    +0.000 A 
ATOM     14  C   UNL     1       1.688  14.410  19.613  0.00  0.00    +0.000 A 
ATOM     15  C   UNL     1       1.675  13.142  20.184  0.00  0.00    +0.000 A 
ATOM     16  N   UNL     1       2.872  15.147  19.552  0.00  0.00    +0.000 N 
ATOM     17  C   UNL     1       2.877  16.419  19.038  0.00  0.00    +0.000 C 
ATOM     18  O   UNL     1       3.918  17.049  18.883  0.00  0.00    +0.000 OA
ATOM     19  C   UNL     1       1.486  16.999  18.784  0.00  0.00    +0.000 C 
ATOM     20  O   UNL     1       0.455  16.106  18.398  0.00  0.00    +0.000 OA
ATOM     21  H   UNL     1       3.758  14.757  19.845  0.00  0.00    +0.000 HD
ENDBRANCH   8  10
BRANCH   4  22
ATOM     22  C   UNL     1       2.786   6.487  18.612  0.00  0.00    +0.000 A 
ATOM     23  C   UNL     1       3.727   6.515  17.562  0.00  0.00    +0.000 A 
ATOM     24  C   UNL     1       4.163   5.356  16.924  0.00  0.00    +0.000 A 
ATOM     25  C   UNL     1       3.684   4.123  17.336  0.00  0.00    +0.000 A 
ATOM     26  C   UNL     1       2.747   4.043  18.372  0.00  0.00    +0.000 A 
ATOM     27  C   UNL     1       2.240   2.810  18.780  0.00  0.00    +0.000 A 
ATOM     28  N   UNL     1       1.302   2.628  19.742  0.00  0.00    +0.000 NA
ATOM     29  C   UNL     1       0.820   3.746  20.304  0.00  0.00    +0.000 A 
ATOM     30  C   UNL     1       1.244   5.019  19.963  0.00  0.00    +0.000 A 
ATOM     31  C   UNL     1       2.264   5.210  19.006  0.00  0.00    +0.000 A 
ENDBRANCH   4  22
TORSDOF 2
ENDMDL
MODEL 7
REMARK VINA RESULT:      -7.4      4.983      7.061
REMARK  Name = 
REMARK  3 active torsions:
REMARK  status: ('A' for Active; 'I' for Inactive)
REMARK    1  A    between atoms: C_1  and  C_2
REMARK    2  A    between atoms: N_4  and  C_5
REMARK    3  A    between atoms: C_18  and  C_20
REMARK                            x       y       z     vdW  Elec       q    Type
REMARK                         _______ _______ _______ _____ _____    ______ ____
ROOT
ATOM      1  C   UNL     1       0.156  15.308  18.942  0.00  0.00    +0.000 C 
ATOM      2  C   UNL     1       1.316  14.322  19.168  0.00  0.00    +0.000 C 
ATOM      3  C   UNL     1       0.962  12.940  18.566  0.00  0.00    +0.000 C 
ATOM      4  N   UNL     1      -0.072  12.310  19.395  0.00  0.00    +0.000 N 
ATOM      5  C   UNL     1       0.358  12.086  20.786  0.00  0.00    +0.000 C 
ATOM      6  C   UNL     1       0.692  13.451  21.428  0.00  0.00    +0.000 C 
ATOM      7  N   UNL     1       1.657  14.227  20.618  0.00  0.00    +0.000 N 
ATOM      8  C   UNL     1       2.776  14.736  21.274  0.00  0.00    +0.000 C 
ATOM      9  O   UNL     1       2.985  14.515  22.469  0.00  0.00    +0.000 OA
ENDROOT
BRANCH   8  10
ATOM     10  C   UNL     1       3.821  15.522  20.578  0.00  0.00    +0.000 A 
ATOM     11  C   UNL     1       3.760  16.892  20.371  0.00  0.00    +0.000 A 
ATOM     12  N   UNL     1       4.696  17.612  19.705  0.00  0.00    +0.000 NA
ATOM     13  C   UNL     1       5.788  16.943  19.289  0.00  0.00    +0.000 A 
ATOM     14  C   UNL     1       5.981  15.578  19.511  0.00  0.00    +0.000 A 
ATOM     15  C   UNL     1       4.985  14.860  20.164  0.00  0.00    +0.000 A 
ATOM     16  N   UNL     1       7.129  14.935  19.046  0.00  0.00    +0.000 N 
ATOM     17  C   UNL     1       8.137  15.648  18.449  0.00  0.00    +0.000 C 
ATOM     18  O   UNL     1       9.110  15.096  17.945  0.00  0.00    +0.000 OA
ATOM     19  C   UNL     1       7.986  17.165  18.565  0.00  0.00    +0.000 C 
ATOM     20  O   UNL     1       6.674  17.702  18.572  0.00  0.00    +0.000 OA
ATOM     21  H   UNL     1       7.235  13.930  19.099  0.00  0.00    +0.000 HD
ENDBRANCH   8  10
BRANCH   4  22
ATOM     22  C   UNL     1      -1.151  11.648  18.828  0.00  0.00    +0.000 A 
ATOM     23  C   UNL     1      -0.929  10.670  17.836  0.00  0.00    +0.000 A 
ATOM     24  C   UNL     1      -1.975  10.002  17.204  0.00  0.00    +0.000 A 
ATOM     25  C   UNL     1      -3.285  10.278  17.566  0.00  0.00    +0.000 A 
ATOM     26  C   UNL     1      -3.557  11.242  18.543  0.00  0.00    +0.000 A 
ATOM     27  C   UNL     1      -4.870  11.544  18.898  0.00  0.00    +0.000 A 
ATOM     28  N   UNL     1      -5.240  12.487  19.800  0.00  0.00    +0.000 NA
ATOM     29  C   UNL     1      -4.240  13.189  20.353  0.00  0.00    +0.000 A 
ATOM     30  C   UNL     1      -2.903  12.978  20.060  0.00  0.00    +0.000 A 
ATOM     31  C   UNL     1      -2.510  11.957  19.168  0.00  0.00    +0.000 A 
ENDBRANCH   4  22
TORSDOF 2
ENDMDL
MODEL 8
REMARK VINA RESULT:      -7.2      3.631      9.207
REMARK  Name = 
REMARK  3 active torsions:
REMARK  status: ('A' for Active; 'I' for Inactive)
REMARK    1  A    between atoms: C_1  and  C_2
REMARK    2  A    between atoms: N_4  and  C_5
REMARK    3  A    between atoms: C_18  and  C_20
REMARK                            x       y       z     vdW  Elec       q    Type
REMARK                         _______ _______ _______ _____ _____    ______ ____
ROOT
ATOM      1  C   UNL     1       0.329   9.390  21.746  0.00  0.00    +0.000 C 
ATOM      2  C   UNL     1       1.287   9.939  20.674  0.00  0.00    +0.000 C 
ATOM      3  C   UNL     1       1.632  11.417  20.979  0.00  0.00    +0.000 C 
ATOM      4  N   UNL     1       0.451  12.246  20.713  0.00  0.00    +0.000 N 
ATOM      5  C   UNL     1       0.000  12.181  19.312  0.00  0.00    +0.000 C 
ATOM      6  C   UNL     1      -0.380  10.720  18.982  0.00  0.00    +0.000 C 
ATOM      7  N   UNL     1       0.708   9.773  19.309  0.00  0.00    +0.000 N 
ATOM      8  C   UNL     1       1.094   8.876  18.314  0.00  0.00    +0.000 C 
ATOM      9  O   UNL     1       0.587   8.896  17.190  0.00  0.00    +0.000 OA
ENDROOT
BRANCH   8  10
ATOM     10  C   UNL     1       2.174   7.883  18.509  0.00  0.00    +0.000 A 
ATOM     11  C   UNL     1       2.173   6.912  19.500  0.00  0.00    +0.000 A 
ATOM     12  N   UNL     1       3.175   6.022  19.705  0.00  0.00    +0.000 NA
ATOM     13  C   UNL     1       4.198   6.052  18.830  0.00  0.00    +0.000 A 
ATOM     14  C   UNL     1       4.260   6.941  17.755  0.00  0.00    +0.000 A 
ATOM     15  C   UNL     1       3.235   7.866  17.593  0.00  0.00    +0.000 A 
ATOM     16  N   UNL     1       5.352   6.933  16.886  0.00  0.00    +0.000 N 
ATOM     17  C   UNL     1       6.338   5.988  17.010  0.00  0.00    +0.000 C 
ATOM     18  O   UNL     1       7.354   6.020  16.323  0.00  0.00    +0.000 OA
ATOM     19  C   UNL     1       6.007   4.860  17.987  0.00  0.00    +0.000 C 
ATOM     20  O   UNL     1       5.209   5.174  19.116  0.00  0.00    +0.000 OA
ATOM     21  H   UNL     1       5.469   7.640  16.171  0.00  0.00    +0.000 HD
ENDBRANCH   8  10
BRANCH   4  22
ATOM     22  C   UNL     1       0.072  13.266  21.575  0.00  0.00    +0.000 A 
ATOM     23  C   UNL     1       0.869  14.424  21.681  0.00  0.00    +0.000 A 
ATOM     24  C   UNL     1       0.560  15.461  22.559  0.00  0.00    +0.000 A 
ATOM     25  C   UNL     1      -0.579  15.379  23.345  0.00  0.00    +0.000 A 
ATOM     26  C   UNL     1      -1.401  14.249  23.277  0.00  0.00    +0.000 A 
ATOM     27  C   UNL     1      -2.536  14.145  24.079  0.00  0.00    +0.000 A 
ATOM     28  N   UNL     1      -3.372  13.078  24.119  0.00  0.00    +0.000 NA
ATOM     29  C   UNL     1      -3.034  12.043  23.336  0.00  0.00    +0.000 A 
ATOM     30  C   UNL     1      -1.921  12.038  22.512  0.00  0.00    +0.000 A 
ATOM     31  C   UNL     1      -1.082  13.170  22.421  0.00  0.00    +0.000 A 
ENDBRANCH   4  22
TORSDOF 2
ENDMDL
MODEL 9
REMARK VINA RESULT:      -7.1      1.630      2.979
REMARK  Name = 
REMARK  3 active torsions:
REMARK  status: ('A' for Active; 'I' for Inactive)
REMARK    1  A    between atoms: C_1  and  C_2
REMARK    2  A    between atoms: N_4  and  C_5
REMARK    3  A    between atoms: C_18  and  C_20
REMARK                            x       y       z     vdW  Elec       q    Type
REMARK                         _______ _______ _______ _____ _____    ______ ____
ROOT
ATOM      1  C   UNL     1       0.459   8.926  17.485  0.00  0.00    +0.000 C 
ATOM      2  C   UNL     1       1.578   9.462  18.395  0.00  0.00    +0.000 C 
ATOM      3  C   UNL     1       2.856   8.605  18.224  0.00  0.00    +0.000 C 
ATOM      4  N   UNL     1       2.635   7.292  18.839  0.00  0.00    +0.000 N 
ATOM      5  C   UNL     1       2.349   7.369  20.282  0.00  0.00    +0.000 C 
ATOM      6  C   UNL     1       1.060   8.196  20.489  0.00  0.00    +0.000 C 
ATOM      7  N   UNL     1       1.129   9.513  19.817  0.00  0.00    +0.000 N 
ATOM      8  C   UNL     1       0.814  10.635  20.581  0.00  0.00    +0.000 C 
ATOM      9  O   UNL     1       0.535  10.549  21.779  0.00  0.00    +0.000 OA
ENDROOT
BRANCH   8  10
ATOM     10  C   UNL     1       0.852  12.011  20.032  0.00  0.00    +0.000 A 
ATOM     11  C   UNL     1       1.878  12.508  19.242  0.00  0.00    +0.000 A 
ATOM     12  N   UNL     1       1.935  13.776  18.766  0.00  0.00    +0.000 NA
ATOM     13  C   UNL     1       0.879  14.568  19.029  0.00  0.00    +0.000 A 
ATOM     14  C   UNL     1      -0.237  14.142  19.753  0.00  0.00    +0.000 A 
ATOM     15  C   UNL     1      -0.249  12.847  20.260  0.00  0.00    +0.000 A 
ATOM     16  N   UNL     1      -1.299  15.011  20.004  0.00  0.00    +0.000 N 
ATOM     17  C   UNL     1      -1.315  16.271  19.461  0.00  0.00    +0.000 C 
ATOM     18  O   UNL     1      -2.187  17.087  19.745  0.00  0.00    +0.000 OA
ATOM     19  C   UNL     1      -0.231  16.516  18.413  0.00  0.00    +0.000 C 
ATOM     20  O   UNL     1       1.013  15.854  18.577  0.00  0.00    +0.000 OA
ATOM     21  H   UNL     1      -2.062  14.757  20.618  0.00  0.00    +0.000 HD
ENDBRANCH   8  10
BRANCH   4  22
ATOM     22  C   UNL     1       3.049   6.121  18.220  0.00  0.00    +0.000 A 
ATOM     23  C   UNL     1       4.080   6.166  17.259  0.00  0.00    +0.000 A 
ATOM     24  C   UNL     1       4.509   5.030  16.576  0.00  0.00    +0.000 A 
ATOM     25  C   UNL     1       3.930   3.802  16.854  0.00  0.00    +0.000 A 
ATOM     26  C   UNL     1       2.901   3.706  17.797  0.00  0.00    +0.000 A 
ATOM     27  C   UNL     1       2.295   2.480  18.068  0.00  0.00    +0.000 A 
ATOM     28  N   UNL     1       1.266   2.289  18.931  0.00  0.00    +0.000 NA
ATOM     29  C   UNL     1       0.796   3.392  19.531  0.00  0.00    +0.000 A 
ATOM     30  C   UNL     1       1.316   4.658  19.322  0.00  0.00    +0.000 A 
ATOM     31  C   UNL     1       2.427   4.854  18.472  0.00  0.00    +0.000 A 
ENDBRANCH   4  22
TORSDOF 2
ENDMDL
