MODEL 1
REMARK VINA RESULT:      -8.1      0.000      0.000
REMARK  Name = 
REMARK  5 active torsions:
REMARK  status: ('A' for Active; 'I' for Inactive)
REMARK    1  A    between atoms: C_1  and  N_2
REMARK    2  A    between atoms: C_8  and  S_9
REMARK    3  A    between atoms: S_9  and  N_12
REMARK    4  A    between atoms: C_16  and  C_17
REMARK    5  A    between atoms: C_17  and  C_18
REMARK                            x       y       z     vdW  Elec       q    Type
REMARK                         _______ _______ _______ _____ _____    ______ ____
ROOT
ATOM      1  S   UNL     1       0.402  11.742  19.835  0.00  0.00    +0.000 S 
ATOM      2  O   UNL     1       0.390  12.825  18.877  0.00  0.00    +0.000 OA
ATOM      3  O   UNL     1       1.553  11.446  20.656  0.00  0.00    +0.000 OA
ENDROOT
BRANCH   1  11
ATOM      4  C   UNL     1      -4.518  12.467  24.735  0.00  0.00    +0.000 C 
ATOM      5  N   UNL     1      -4.301  12.642  23.324  0.00  0.00    +0.000 N 
ATOM      6  C   UNL     1      -5.261  13.128  22.432  0.00  0.00    +0.000 C 
ATOM      7  O   UNL     1      -6.411  13.465  22.689  0.00  0.00    +0.000 OA
ATOM      8  C   UNL     1      -4.615  13.172  21.044  0.00  0.00    +0.000 C 
ATOM      9  C   UNL     1      -3.229  12.663  21.311  0.00  0.00    +0.000 A 
ATOM     10  C   UNL     1      -2.180  12.479  20.427  0.00  0.00    +0.000 A 
ATOM     11  C   UNL     1      -0.969  12.004  20.949  0.00  0.00    +0.000 A 
ATOM     12  C   UNL     1      -0.832  11.705  22.323  0.00  0.00    +0.000 A 
ATOM     13  C   UNL     1      -1.911  11.887  23.197  0.00  0.00    +0.000 A 
ATOM     14  C   UNL     1      -3.095  12.371  22.670  0.00  0.00    +0.000 A 
ENDBRANCH   1  11
BRANCH   1  15
ATOM     15  N   UNL     1      -0.100  10.366  18.984  0.00  0.00    +0.000 N 
ATOM     16  C   UNL     1       1.029   9.564  18.678  0.00  0.00    +0.000 A 
ATOM     17  N   UNL     1       1.658   9.655  17.528  0.00  0.00    +0.000 NA
ATOM     18  N   UNL     1       2.555   8.607  17.484  0.00  0.00    +0.000 NA
ATOM     19  C   UNL     1       2.378   7.921  18.595  0.00  0.00    +0.000 A 
ATOM     20  O   UNL     1       1.424   8.476  19.411  0.00  0.00    +0.000 OA
ATOM     21  H   UNL     1      -0.413  10.731  18.082  0.00  0.00    +0.000 HD
BRANCH  19  22
ATOM     22  C   UNL     1       2.959   6.611  18.994  0.00  0.00    +0.000 C 
BRANCH  22  23
ATOM     23  C   UNL     1       1.916   5.495  19.202  0.00  0.00    +0.000 C 
ATOM     24  C   UNL     1       2.021   4.894  20.617  0.00  0.00    +0.000 C 
ATOM     25  C   UNL     1       1.205   3.618  20.797  0.00  0.00    +0.000 C 
ATOM     26  C   UNL     1       1.553   2.587  19.734  0.00  0.00    +0.000 C 
ATOM     27  C   UNL     1       1.284   3.147  18.346  0.00  0.00    +0.000 C 
ATOM     28  C   UNL     1       2.076   4.429  18.094  0.00  0.00    +0.000 C 
ENDBRANCH  22  23
ENDBRANCH  19  22
ENDBRANCH   1  15
TORSDOF 4
ENDMDL
MODEL 2
REMARK VINA RESULT:      -8.1      4.580      6.807
REMARK  Name = 
REMARK  5 active torsions:
REMARK  status: ('A' for Active; 'I' for Inactive)
REMARK    1  A    between atoms: C_1  and  N_2
REMARK    2  A    between atoms: C_8  and  S_9
REMARK    3  A    between atoms: S_9  and  N_12
REMARK    4  A    between atoms: C_16  and  C_17
REMARK    5  A    between atoms: C_17  and  C_18
REMARK                            x       y       z     vdW  Elec       q    Type
REMARK                         _______ _______ _______ _____ _____    ______ ____
ROOT
ATOM      1  S   UNL     1       3.052   5.490  19.420  0.00  0.00    +0.000 S 
ATOM      2  O   UNL     1       2.676   4.800  20.635  0.00  0.00    +0.000 OA
ATOM      3  O   UNL     1       2.846   4.919  18.110  0.00  0.00    +0.000 OA
ENDROOT
BRANCH   1  11
ATOM      4  C   UNL     1       0.066  11.765  18.746  0.00  0.00    +0.000 C 
ATOM      5  N   UNL     1       0.270  10.713  19.706  0.00  0.00    +0.000 N 
ATOM      6  C   UNL     1      -0.224  10.730  21.013  0.00  0.00    +0.000 C 
ATOM      7  O   UNL     1      -0.882  11.617  21.546  0.00  0.00    +0.000 OA
ATOM      8  C   UNL     1       0.202   9.421  21.681  0.00  0.00    +0.000 C 
ATOM      9  C   UNL     1       0.963   8.728  20.589  0.00  0.00    +0.000 A 
ATOM     10  C   UNL     1       1.591   7.494  20.607  0.00  0.00    +0.000 A 
ATOM     11  C   UNL     1       2.219   7.069  19.428  0.00  0.00    +0.000 A 
ATOM     12  C   UNL     1       2.227   7.880  18.272  0.00  0.00    +0.000 A 
ATOM     13  C   UNL     1       1.596   9.130  18.280  0.00  0.00    +0.000 A 
ATOM     14  C   UNL     1       0.967   9.529  19.445  0.00  0.00    +0.000 A 
ENDBRANCH   1  11
BRANCH   1  15
ATOM     15  N   UNL     1       4.669   5.949  19.631  0.00  0.00    +0.000 N 
ATOM     16  C   UNL     1       5.469   5.316  18.645  0.00  0.00    +0.000 A 
ATOM     17  N   UNL     1       6.093   4.183  18.875  0.00  0.00    +0.000 NA
ATOM     18  N   UNL     1       6.930   3.967  17.799  0.00  0.00    +0.000 NA
ATOM     19  C   UNL     1       6.791   5.010  17.007  0.00  0.00    +0.000 A 
ATOM     20  O   UNL     1       5.869   5.911  17.478  0.00  0.00    +0.000 OA
ATOM     21  H   UNL     1       4.941   5.506  20.511  0.00  0.00    +0.000 HD
BRANCH  19  22
ATOM     22  C   UNL     1       7.568   5.379  15.793  0.00  0.00    +0.000 C 
BRANCH  22  23
ATOM     23  C   UNL     1       6.795   5.203  14.470  0.00  0.00    +0.000 C 
ATOM     24  C   UNL     1       5.807   4.025  14.557  0.00  0.00    +0.000 C 
ATOM     25  C   UNL     1       5.210   3.633  13.209  0.00  0.00    +0.000 C 
ATOM     26  C   UNL     1       6.298   3.363  12.181  0.00  0.00    +0.000 C 
ATOM     27  C   UNL     1       7.163   4.600  11.991  0.00  0.00    +0.000 C 
ATOM     28  C   UNL     1       7.800   5.048  13.305  0.00  0.00    +0.000 C 
ENDBRANCH  22  23
ENDBRANCH  19  22
ENDBRANCH   1  15
TORSDOF 4
ENDMDL
MODEL 3
REMARK VINA RESULT:      -7.9      0.887      1.578
REMARK  Name = 
REMARK  5 active torsions:
REMARK  status: ('A' for Active; 'I' for Inactive)
REMARK    1  A    between atoms: C_1  and  N_2
REMARK    2  A    between atoms: C_8  and  S_9
REMARK    3  A    between atoms: S_9  and  N_12
REMARK    4  A    between atoms: C_16  and  C_17
REMARK    5  A    between atoms: C_17  and  C_18
REMARK                            x       y       z     vdW  Elec       q    Type
REMARK                         _______ _______ _______ _____ _____    ______ ____
ROOT
ATOM      1  S   UNL     1       0.610  11.121  20.114  0.00  0.00    +0.000 S 
ATOM      2  O   UNL     1       1.313  12.238  19.522  0.00  0.00    +0.000 OA
ATOM      3  O   UNL     1       1.136  10.382  21.238  0.00  0.00    +0.000 OA
ENDROOT
BRANCH   1  11
ATOM      4  C   UNL     1      -5.832  13.556  21.262  0.00  0.00    +0.000 C 
ATOM      5  N   UNL     1      -4.667  13.082  21.961  0.00  0.00    +0.000 N 
ATOM      6  C   UNL     1      -4.571  12.970  23.350  0.00  0.00    +0.000 C 
ATOM      7  O   UNL     1      -5.427  13.255  24.179  0.00  0.00    +0.000 OA
ATOM      8  C   UNL     1      -3.181  12.413  23.670  0.00  0.00    +0.000 C 
ATOM      9  C   UNL     1      -2.573  12.249  22.308  0.00  0.00    +0.000 A 
ATOM     10  C   UNL     1      -1.317  11.780  21.961  0.00  0.00    +0.000 A 
ATOM     11  C   UNL     1      -1.006  11.707  20.597  0.00  0.00    +0.000 A 
ATOM     12  C   UNL     1      -1.934  12.117  19.613  0.00  0.00    +0.000 A 
ATOM     13  C   UNL     1      -3.194  12.600  19.987  0.00  0.00    +0.000 A 
ATOM     14  C   UNL     1      -3.492  12.651  21.337  0.00  0.00    +0.000 A 
ENDBRANCH   1  11
BRANCH   1  15
ATOM     15  N   UNL     1       0.233  10.080  18.831  0.00  0.00    +0.000 N 
ATOM     16  C   UNL     1       1.365   9.282  18.525  0.00  0.00    +0.000 A 
ATOM     17  N   UNL     1       2.219   9.615  17.584  0.00  0.00    +0.000 NA
ATOM     18  N   UNL     1       3.060   8.534  17.413  0.00  0.00    +0.000 NA
ATOM     19  C   UNL     1       2.630   7.597  18.233  0.00  0.00    +0.000 A 
ATOM     20  O   UNL     1       1.553   8.004  18.980  0.00  0.00    +0.000 OA
ATOM     21  H   UNL     1       0.127  10.703  18.027  0.00  0.00    +0.000 HD
BRANCH  19  22
ATOM     22  C   UNL     1       3.060   6.177  18.345  0.00  0.00    +0.000 C 
BRANCH  22  23
ATOM     23  C   UNL     1       2.018   5.253  19.008  0.00  0.00    +0.000 C 
ATOM     24  C   UNL     1       2.457   4.849  20.428  0.00  0.00    +0.000 C 
ATOM     25  C   UNL     1       1.610   3.733  21.031  0.00  0.00    +0.000 C 
ATOM     26  C   UNL     1       1.553   2.525  20.109  0.00  0.00    +0.000 C 
ATOM     27  C   UNL     1       0.959   2.915  18.763  0.00  0.00    +0.000 C 
ATOM     28  C   UNL     1       1.764   4.030  18.097  0.00  0.00    +0.000 C 
ENDBRANCH  22  23
ENDBRANCH  19  22
ENDBRANCH   1  15
TORSDOF 4
ENDMDL
MODEL 4
REMARK VINA RESULT:      -7.7      5.146      7.425
REMARK  Name = 
REMARK  5 active torsions:
REMARK  status: ('A' for Active; 'I' for Inactive)
REMARK    1  A    between atoms: C_1  and  N_2
REMARK    2  A    between atoms: C_8  and  S_9
REMARK    3  A    between atoms: S_9  and  N_12
REMARK    4  A    between atoms: C_16  and  C_17
REMARK    5  A    between atoms: C_17  and  C_18
REMARK                            x       y       z     vdW  Elec       q    Type
REMARK                         _______ _______ _______ _____ _____    ______ ____
ROOT
ATOM      1  S   UNL     1       4.140   6.013  17.864  0.00  0.00    +0.000 S 
ATOM      2  O   UNL     1       5.043   5.690  18.947  0.00  0.00    +0.000 OA
ATOM      3  O   UNL     1       3.371   5.007  17.169  0.00  0.00    +0.000 OA
ENDROOT
BRANCH   1  11
ATOM      4  C   UNL     1      -0.304  11.089  19.661  0.00  0.00    +0.000 C 
ATOM      5  N   UNL     1       0.290   9.882  20.170  0.00  0.00    +0.000 N 
ATOM      6  C   UNL     1       0.020   9.338  21.428  0.00  0.00    +0.000 C 
ATOM      7  O   UNL     1      -0.734   9.786  22.284  0.00  0.00    +0.000 OA
ATOM      8  C   UNL     1       0.843   8.054  21.558  0.00  0.00    +0.000 C 
ATOM      9  C   UNL     1       1.562   7.990  20.243  0.00  0.00    +0.000 A 
ATOM     10  C   UNL     1       2.457   7.041  19.780  0.00  0.00    +0.000 A 
ATOM     11  C   UNL     1       2.971   7.211  18.487  0.00  0.00    +0.000 A 
ATOM     12  C   UNL     1       2.605   8.322  17.696  0.00  0.00    +0.000 A 
ATOM     13  C   UNL     1       1.707   9.277  18.189  0.00  0.00    +0.000 A 
ATOM     14  C   UNL     1       1.195   9.087  19.460  0.00  0.00    +0.000 A 
ENDBRANCH   1  11
BRANCH   1  15
ATOM     15  N   UNL     1       5.042   6.944  16.772  0.00  0.00    +0.000 N 
ATOM     16  C   UNL     1       5.928   6.099  16.055  0.00  0.00    +0.000 A 
ATOM     17  N   UNL     1       7.172   5.914  16.433  0.00  0.00    +0.000 NA
ATOM     18  N   UNL     1       7.795   5.221  15.414  0.00  0.00    +0.000 NA
ATOM     19  C   UNL     1       6.895   5.070  14.465  0.00  0.00    +0.000 A 
ATOM     20  O   UNL     1       5.676   5.600  14.804  0.00  0.00    +0.000 OA
ATOM     21  H   UNL     1       5.647   7.511  17.368  0.00  0.00    +0.000 HD
BRANCH  19  22
ATOM     22  C   UNL     1       7.065   4.543  13.084  0.00  0.00    +0.000 C 
BRANCH  22  23
ATOM     23  C   UNL     1       6.069   3.428  12.706  0.00  0.00    +0.000 C 
ATOM     24  C   UNL     1       6.742   2.358  11.825  0.00  0.00    +0.000 C 
ATOM     25  C   UNL     1       5.754   1.376  11.202  0.00  0.00    +0.000 C 
ATOM     26  C   UNL     1       4.658   2.106  10.440  0.00  0.00    +0.000 C 
ATOM     27  C   UNL     1       3.898   3.038  11.372  0.00  0.00    +0.000 C 
ATOM     28  C   UNL     1       4.828   4.056  12.031  0.00  0.00    +0.000 C 
ENDBRANCH  22  23
ENDBRANCH  19  22
ENDBRANCH   1  15
TORSDOF 4
ENDMDL
MODEL 5
REMARK VINA RESULT:      -7.7      2.130      2.700
REMARK  Name = 
REMARK  5 active torsions:
REMARK  status: ('A' for Active; 'I' for Inactive)
REMARK    1  A    between atoms: C_1  and  N_2
REMARK    2  A    between atoms: C_8  and  S_9
REMARK    3  A    between atoms: S_9  and  N_12
REMARK    4  A    between atoms: C_16  and  C_17
REMARK    5  A    between atoms: C_17  and  C_18
REMARK                            x       y       z     vdW  Elec       q    Type
REMARK                         _______ _______ _______ _____ _____    ______ ____
ROOT
ATOM      1  S   UNL     1       0.763  10.572  19.338  0.00  0.00    +0.000 S 
ATOM      2  O   UNL     1       1.638  11.721  19.257  0.00  0.00    +0.000 OA
ATOM      3  O   UNL     1       0.840   9.613  20.415  0.00  0.00    +0.000 OA
ENDROOT
BRANCH   1  11
ATOM      4  C   UNL     1      -5.652  13.266  19.911  0.00  0.00    +0.000 C 
ATOM      5  N   UNL     1      -4.860  12.418  19.061  0.00  0.00    +0.000 N 
ATOM      6  C   UNL     1      -5.321  11.831  17.880  0.00  0.00    +0.000 C 
ATOM      7  O   UNL     1      -6.441  11.928  17.391  0.00  0.00    +0.000 OA
ATOM      8  C   UNL     1      -4.161  11.029  17.283  0.00  0.00    +0.000 C 
ATOM      9  C   UNL     1      -3.058  11.263  18.273  0.00  0.00    +0.000 A 
ATOM     10  C   UNL     1      -1.758  10.786  18.263  0.00  0.00    +0.000 A 
ATOM     11  C   UNL     1      -0.916  11.180  19.311  0.00  0.00    +0.000 A 
ATOM     12  C   UNL     1      -1.382  12.015  20.349  0.00  0.00    +0.000 A 
ATOM     13  C   UNL     1      -2.705  12.477  20.346  0.00  0.00    +0.000 A 
ATOM     14  C   UNL     1      -3.521  12.093  19.297  0.00  0.00    +0.000 A 
ENDBRANCH   1  11
BRANCH   1  15
ATOM     15  N   UNL     1       0.877   9.799  17.834  0.00  0.00    +0.000 N 
ATOM     16  C   UNL     1       1.824   8.746  17.917  0.00  0.00    +0.000 A 
ATOM     17  N   UNL     1       3.080   8.909  17.570  0.00  0.00    +0.000 NA
ATOM     18  N   UNL     1       3.657   7.656  17.575  0.00  0.00    +0.000 NA
ATOM     19  C   UNL     1       2.698   6.807  17.881  0.00  0.00    +0.000 A 
ATOM     20  O   UNL     1       1.499   7.431  18.120  0.00  0.00    +0.000 OA
ATOM     21  H   UNL     1       1.314  10.496  17.228  0.00  0.00    +0.000 HD
BRANCH  19  22
ATOM     22  C   UNL     1       2.719   5.320  17.868  0.00  0.00    +0.000 C 
BRANCH  22  23
ATOM     23  C   UNL     1       1.891   4.666  18.994  0.00  0.00    +0.000 C 
ATOM     24  C   UNL     1       2.638   4.730  20.340  0.00  0.00    +0.000 C 
ATOM     25  C   UNL     1       1.999   3.875  21.429  0.00  0.00    +0.000 C 
ATOM     26  C   UNL     1       1.821   2.436  20.967  0.00  0.00    +0.000 C 
ATOM     27  C   UNL     1       0.941   2.385  19.727  0.00  0.00    +0.000 C 
ATOM     28  C   UNL     1       1.525   3.220  18.589  0.00  0.00    +0.000 C 
ENDBRANCH  22  23
ENDBRANCH  19  22
ENDBRANCH   1  15
TORSDOF 4
ENDMDL
MODEL 6
REMARK VINA RESULT:      -7.7      4.405      6.449
REMARK  Name = 
REMARK  5 active torsions:
REMARK  status: ('A' for Active; 'I' for Inactive)
REMARK    1  A    between atoms: C_1  and  N_2
REMARK    2  A    between atoms: C_8  and  S_9
REMARK    3  A    between atoms: S_9  and  N_12
REMARK    4  A    between atoms: C_16  and  C_17
REMARK    5  A    between atoms: C_17  and  C_18
REMARK                            x       y       z     vdW  Elec       q    Type
REMARK                         _______ _______ _______ _____ _____    ______ ____
ROOT
ATOM      1  S   UNL     1       2.587   5.929  19.298  0.00  0.00    +0.000 S 
ATOM      2  O   UNL     1       2.121   4.921  20.225  0.00  0.00    +0.000 OA
ATOM      3  O   UNL     1       2.388   5.821  17.872  0.00  0.00    +0.000 OA
ENDROOT
BRANCH   1  11
ATOM      4  C   UNL     1      -0.402  11.668  21.920  0.00  0.00    +0.000 C 
ATOM      5  N   UNL     1       0.203  11.164  20.716  0.00  0.00    +0.000 N 
ATOM      6  C   UNL     1       0.371  11.909  19.546  0.00  0.00    +0.000 C 
ATOM      7  O   UNL     1       0.035  13.071  19.351  0.00  0.00    +0.000 OA
ATOM      8  C   UNL     1       1.066  11.005  18.524  0.00  0.00    +0.000 C 
ATOM      9  C   UNL     1       1.241   9.724  19.284  0.00  0.00    +0.000 A 
ATOM     10  C   UNL     1       1.813   8.533  18.872  0.00  0.00    +0.000 A 
ATOM     11  C   UNL     1       1.868   7.485  19.801  0.00  0.00    +0.000 A 
ATOM     12  C   UNL     1       1.340   7.632  21.102  0.00  0.00    +0.000 A 
ATOM     13  C   UNL     1       0.754   8.843  21.494  0.00  0.00    +0.000 A 
ATOM     14  C   UNL     1       0.721   9.873  20.572  0.00  0.00    +0.000 A 
ENDBRANCH   1  11
BRANCH   1  15
ATOM     15  N   UNL     1       4.225   6.169  19.662  0.00  0.00    +0.000 N 
ATOM     16  C   UNL     1       5.021   5.413  18.764  0.00  0.00    +0.000 A 
ATOM     17  N   UNL     1       5.460   4.211  19.064  0.00  0.00    +0.000 NA
ATOM     18  N   UNL     1       6.358   3.861  18.077  0.00  0.00    +0.000 NA
ATOM     19  C   UNL     1       6.439   4.895  17.266  0.00  0.00    +0.000 A 
ATOM     20  O   UNL     1       5.609   5.923  17.637  0.00  0.00    +0.000 OA
ATOM     21  H   UNL     1       4.348   5.714  20.568  0.00  0.00    +0.000 HD
BRANCH  19  22
ATOM     22  C   UNL     1       7.372   5.129  16.131  0.00  0.00    +0.000 C 
BRANCH  22  23
ATOM     23  C   UNL     1       6.704   5.072  14.742  0.00  0.00    +0.000 C 
ATOM     24  C   UNL     1       5.837   3.807  14.594  0.00  0.00    +0.000 C 
ATOM     25  C   UNL     1       5.367   3.557  13.165  0.00  0.00    +0.000 C 
ATOM     26  C   UNL     1       6.538   3.537  12.195  0.00  0.00    +0.000 C 
ATOM     27  C   UNL     1       7.284   4.862  12.238  0.00  0.00    +0.000 C 
ATOM     28  C   UNL     1       7.790   5.176  13.646  0.00  0.00    +0.000 C 
ENDBRANCH  22  23
ENDBRANCH  19  22
ENDBRANCH   1  15
TORSDOF 4
ENDMDL
MODEL 7
REMARK VINA RESULT:      -7.6      4.531      6.396
REMARK  Name = 
REMARK  5 active torsions:
REMARK  status: ('A' for Active; 'I' for Inactive)
REMARK    1  A    between atoms: C_1  and  N_2
REMARK    2  A    between atoms: C_8  and  S_9
REMARK    3  A    between atoms: S_9  and  N_12
REMARK    4  A    between atoms: C_16  and  C_17
REMARK    5  A    between atoms: C_17  and  C_18
REMARK                            x       y       z     vdW  Elec       q    Type
REMARK                         _______ _______ _______ _____ _____    ______ ____
ROOT
ATOM      1  S   UNL     1       2.769   6.529  18.703  0.00  0.00    +0.000 S 
ATOM      2  O   UNL     1       3.793   6.167  19.660  0.00  0.00    +0.000 OA
ATOM      3  O   UNL     1       1.791   5.584  18.220  0.00  0.00    +0.000 OA
ENDROOT
BRANCH   1  11
ATOM      4  C   UNL     1      -0.681  12.247  20.739  0.00  0.00    +0.000 C 
ATOM      5  N   UNL     1      -0.212  10.980  21.233  0.00  0.00    +0.000 N 
ATOM      6  C   UNL     1      -0.416  10.516  22.535  0.00  0.00    +0.000 C 
ATOM      7  O   UNL     1      -0.999  11.093  23.446  0.00  0.00    +0.000 OA
ATOM      8  C   UNL     1       0.225   9.130  22.633  0.00  0.00    +0.000 C 
ATOM      9  C   UNL     1       0.778   8.926  21.253  0.00  0.00    +0.000 A 
ATOM     10  C   UNL     1       1.472   7.843  20.740  0.00  0.00    +0.000 A 
ATOM     11  C   UNL     1       1.860   7.901  19.394  0.00  0.00    +0.000 A 
ATOM     12  C   UNL     1       1.570   9.032  18.599  0.00  0.00    +0.000 A 
ATOM     13  C   UNL     1       0.877  10.121  19.142  0.00  0.00    +0.000 A 
ATOM     14  C   UNL     1       0.487  10.043  20.467  0.00  0.00    +0.000 A 
ENDBRANCH   1  11
BRANCH   1  15
ATOM     15  N   UNL     1       3.584   7.267  17.413  0.00  0.00    +0.000 N 
ATOM     16  C   UNL     1       4.875   6.693  17.283  0.00  0.00    +0.000 A 
ATOM     17  N   UNL     1       5.936   7.229  17.842  0.00  0.00    +0.000 NA
ATOM     18  N   UNL     1       7.029   6.548  17.347  0.00  0.00    +0.000 NA
ATOM     19  C   UNL     1       6.561   5.672  16.483  0.00  0.00    +0.000 A 
ATOM     20  O   UNL     1       5.191   5.701  16.393  0.00  0.00    +0.000 OA
ATOM     21  H   UNL     1       3.754   8.221  17.739  0.00  0.00    +0.000 HD
BRANCH  19  22
ATOM     22  C   UNL     1       7.302   4.792  15.540  0.00  0.00    +0.000 C 
BRANCH  22  23
ATOM     23  C   UNL     1       6.742   4.793  14.102  0.00  0.00    +0.000 C 
ATOM     24  C   UNL     1       6.007   3.475  13.792  0.00  0.00    +0.000 C 
ATOM     25  C   UNL     1       5.665   3.305  12.316  0.00  0.00    +0.000 C 
ATOM     26  C   UNL     1       6.899   3.465  11.441  0.00  0.00    +0.000 C 
ATOM     27  C   UNL     1       7.515   4.842  11.644  0.00  0.00    +0.000 C 
ATOM     28  C   UNL     1       7.889   5.080  13.106  0.00  0.00    +0.000 C 
ENDBRANCH  22  23
ENDBRANCH  19  22
ENDBRANCH   1  15
TORSDOF 4
ENDMDL
MODEL 8
REMARK VINA RESULT:      -7.6      1.121      1.602
REMARK  Name = 
REMARK  5 active torsions:
REMARK  status: ('A' for Active; 'I' for Inactive)
REMARK    1  A    between atoms: C_1  and  N_2
REMARK    2  A    between atoms: C_8  and  S_9
REMARK    3  A    between atoms: S_9  and  N_12
REMARK    4  A    between atoms: C_16  and  C_17
REMARK    5  A    between atoms: C_17  and  C_18
REMARK                            x       y       z     vdW  Elec       q    Type
REMARK                         _______ _______ _______ _____ _____    ______ ____
ROOT
ATOM      1  S   UNL     1       0.184  11.820  20.343  0.00  0.00    +0.000 S 
ATOM      2  O   UNL     1       0.495  12.961  19.508  0.00  0.00    +0.000 OA
ATOM      3  O   UNL     1       1.083  11.341  21.366  0.00  0.00    +0.000 OA
ENDROOT
BRANCH   1  11
ATOM      4  C   UNL     1      -5.582  12.901  24.127  0.00  0.00    +0.000 C 
ATOM      5  N   UNL     1      -5.097  12.960  22.774  0.00  0.00    +0.000 N 
ATOM      6  C   UNL     1      -5.864  13.359  21.677  0.00  0.00    +0.000 C 
ATOM      7  O   UNL     1      -7.040  13.705  21.680  0.00  0.00    +0.000 OA
ATOM      8  C   UNL     1      -4.964  13.294  20.441  0.00  0.00    +0.000 C 
ATOM      9  C   UNL     1      -3.658  12.823  21.010  0.00  0.00    +0.000 A 
ATOM     10  C   UNL     1      -2.459  12.577  20.363  0.00  0.00    +0.000 A 
ATOM     11  C   UNL     1      -1.374  12.161  21.146  0.00  0.00    +0.000 A 
ATOM     12  C   UNL     1      -1.506  11.979  22.541  0.00  0.00    +0.000 A 
ATOM     13  C   UNL     1      -2.731  12.222  23.173  0.00  0.00    +0.000 A 
ATOM     14  C   UNL     1      -3.789  12.648  22.390  0.00  0.00    +0.000 A 
ENDBRANCH   1  11
BRANCH   1  15
ATOM     15  N   UNL     1      -0.239  10.571  19.279  0.00  0.00    +0.000 N 
ATOM     16  C   UNL     1       0.889   9.740  19.058  0.00  0.00    +0.000 A 
ATOM     17  N   UNL     1       1.690   9.911  18.031  0.00  0.00    +0.000 NA
ATOM     18  N   UNL     1       2.538   8.822  18.006  0.00  0.00    +0.000 NA
ATOM     19  C   UNL     1       2.163   8.038  18.995  0.00  0.00    +0.000 A 
ATOM     20  O   UNL     1       1.119   8.561  19.716  0.00  0.00    +0.000 OA
ATOM     21  H   UNL     1      -0.393  11.045  18.387  0.00  0.00    +0.000 HD
BRANCH  19  22
ATOM     22  C   UNL     1       2.619   6.662  19.328  0.00  0.00    +0.000 C 
BRANCH  22  23
ATOM     23  C   UNL     1       2.807   5.744  18.103  0.00  0.00    +0.000 C 
ATOM     24  C   UNL     1       2.183   4.357  18.347  0.00  0.00    +0.000 C 
ATOM     25  C   UNL     1       2.562   3.326  17.289  0.00  0.00    +0.000 C 
ATOM     26  C   UNL     1       4.072   3.229  17.130  0.00  0.00    +0.000 C 
ATOM     27  C   UNL     1       4.648   4.578  16.726  0.00  0.00    +0.000 C 
ATOM     28  C   UNL     1       4.309   5.663  17.747  0.00  0.00    +0.000 C 
ENDBRANCH  22  23
ENDBRANCH  19  22
ENDBRANCH   1  15
TORSDOF 4
ENDMDL
MODEL 9
REMARK VINA RESULT:      -7.6      2.004      2.830
REMARK  Name = 
REMARK  5 active torsions:
REMARK  status: ('A' for Active; 'I' for Inactive)
REMARK    1  A    between atoms: C_1  and  N_2
REMARK    2  A    between atoms: C_8  and  S_9
REMARK    3  A    between atoms: S_9  and  N_12
REMARK    4  A    between atoms: C_16  and  C_17
REMARK    5  A    between atoms: C_17  and  C_18
REMARK                            x       y       z     vdW  Elec       q    Type
REMARK                         _______ _______ _______ _____ _____    ______ ____
ROOT
ATOM      1  S   UNL     1       0.862  10.446  18.986  0.00  0.00    +0.000 S 
ATOM      2  O   UNL     1       1.617  11.678  18.913  0.00  0.00    +0.000 OA
ATOM      3  O   UNL     1       0.972   9.534  20.100  0.00  0.00    +0.000 OA
ENDROOT
BRANCH   1  11
ATOM      4  C   UNL     1      -5.898  11.715  17.785  0.00  0.00    +0.000 C 
ATOM      5  N   UNL     1      -4.832  12.059  18.687  0.00  0.00    +0.000 N 
ATOM      6  C   UNL     1      -4.970  12.913  19.784  0.00  0.00    +0.000 C 
ATOM      7  O   UNL     1      -5.984  13.499  20.145  0.00  0.00    +0.000 OA
ATOM      8  C   UNL     1      -3.608  12.990  20.479  0.00  0.00    +0.000 C 
ATOM      9  C   UNL     1      -2.756  12.092  19.632  0.00  0.00    +0.000 A 
ATOM     10  C   UNL     1      -1.418  11.768  19.773  0.00  0.00    +0.000 A 
ATOM     11  C   UNL     1      -0.866  10.875  18.843  0.00  0.00    +0.000 A 
ATOM     12  C   UNL     1      -1.643  10.344  17.790  0.00  0.00    +0.000 A 
ATOM     13  C   UNL     1      -2.993  10.695  17.660  0.00  0.00    +0.000 A 
ATOM     14  C   UNL     1      -3.527  11.564  18.594  0.00  0.00    +0.000 A 
ENDBRANCH   1  11
BRANCH   1  15
ATOM     15  N   UNL     1       1.143   9.644  17.519  0.00  0.00    +0.000 N 
ATOM     16  C   UNL     1       2.055   8.580  17.734  0.00  0.00    +0.000 A 
ATOM     17  N   UNL     1       3.347   8.719  17.538  0.00  0.00    +0.000 NA
ATOM     18  N   UNL     1       3.899   7.458  17.632  0.00  0.00    +0.000 NA
ATOM     19  C   UNL     1       2.896   6.629  17.835  0.00  0.00    +0.000 A 
ATOM     20  O   UNL     1       1.687   7.274  17.917  0.00  0.00    +0.000 OA
ATOM     21  H   UNL     1       1.661  10.324  16.959  0.00  0.00    +0.000 HD
BRANCH  19  22
ATOM     22  C   UNL     1       2.894   5.141  17.849  0.00  0.00    +0.000 C 
BRANCH  22  23
ATOM     23  C   UNL     1       2.024   4.521  18.962  0.00  0.00    +0.000 C 
ATOM     24  C   UNL     1       2.630   4.788  20.353  0.00  0.00    +0.000 C 
ATOM     25  C   UNL     1       1.969   3.982  21.467  0.00  0.00    +0.000 C 
ATOM     26  C   UNL     1       1.965   2.495  21.145  0.00  0.00    +0.000 C 
ATOM     27  C   UNL     1       1.216   2.238  19.846  0.00  0.00    +0.000 C 
ATOM     28  C   UNL     1       1.829   3.013  18.680  0.00  0.00    +0.000 C 
ENDBRANCH  22  23
ENDBRANCH  19  22
ENDBRANCH   1  15
TORSDOF 4
ENDMDL
