MODEL 1
REMARK VINA RESULT:      -9.1      0.000      0.000
REMARK  Name = 
REMARK  5 active torsions:
REMARK  status: ('A' for Active; 'I' for Inactive)
REMARK    1  A    between atoms: C_1  and  C_2
REMARK    2  A    between atoms: C_7  and  N_8
REMARK    3  A    between atoms: N_8  and  S_9
REMARK    4  A    between atoms: S_9  and  C_12
REMARK    5  A    between atoms: C_26  and  C_27
REMARK                            x       y       z     vdW  Elec       q    Type
REMARK                         _______ _______ _______ _____ _____    ______ ____
ROOT
ATOM      1  S   UNL     1       0.921   8.910  21.427  0.00  0.00    +0.000 S 
ATOM      2  O   UNL     1       1.867   9.247  22.473  0.00  0.00    +0.000 OA
ATOM      3  O   UNL     1      -0.382   8.377  21.732  0.00  0.00    +0.000 OA
ENDROOT
BRANCH   1   4
ATOM      4  C   UNL     1       1.759   7.751  20.366  0.00  0.00    +0.000 A 
ATOM      5  C   UNL     1       2.192   8.026  19.074  0.00  0.00    +0.000 A 
ATOM      6  C   UNL     1       2.515   6.940  18.222  0.00  0.00    +0.000 A 
ATOM      7  C   UNL     1       2.309   5.592  18.621  0.00  0.00    +0.000 A 
ATOM      8  C   UNL     1       1.826   5.352  19.898  0.00  0.00    +0.000 A 
ATOM      9  C   UNL     1       1.672   6.437  20.783  0.00  0.00    +0.000 A 
ATOM     10  C   UNL     1       1.220   4.120  20.493  0.00  0.00    +0.000 C 
ATOM     11  C   UNL     1       1.166   2.731  19.915  0.00  0.00    +0.000 C 
ATOM     12  C   UNL     1       1.615   2.504  18.504  0.00  0.00    +0.000 C 
ATOM     13  C   UNL     1       2.840   3.258  18.057  0.00  0.00    +0.000 C 
ATOM     14  O   UNL     1       3.910   2.685  17.857  0.00  0.00    +0.000 OA
ATOM     15  N   UNL     1       2.687   4.576  17.717  0.00  0.00    +0.000 N 
ATOM     16  H   UNL     1       3.384   4.868  17.043  0.00  0.00    +0.000 HD
ENDBRANCH   1   4
BRANCH   1  17
ATOM     17  N   UNL     1       0.792  10.295  20.461  0.00  0.00    +0.000 N 
ATOM     18  H   UNL     1       1.565  10.492  19.830  0.00  0.00    +0.000 HD
BRANCH  17  25
ATOM     19  C   UNL     1      -5.309  12.049  16.784  0.00  0.00    +0.000 C 
ATOM     20  C   UNL     1      -4.152  11.672  17.619  0.00  0.00    +0.000 A 
ATOM     21  O   UNL     1      -3.998  12.353  18.790  0.00  0.00    +0.000 OA
ATOM     22  C   UNL     1      -2.862  11.888  19.375  0.00  0.00    +0.000 A 
ATOM     23  C   UNL     1      -2.315  12.339  20.580  0.00  0.00    +0.000 A 
ATOM     24  C   UNL     1      -1.095  11.769  20.968  0.00  0.00    +0.000 A 
ATOM     25  C   UNL     1      -0.496  10.794  20.173  0.00  0.00    +0.000 A 
ATOM     26  C   UNL     1      -1.095  10.322  19.005  0.00  0.00    +0.000 A 
ATOM     27  C   UNL     1      -2.297  10.898  18.584  0.00  0.00    +0.000 A 
ATOM     28  C   UNL     1      -3.143  10.747  17.450  0.00  0.00    +0.000 A 
ATOM     29  C   UNL     1      -2.945   9.819  16.306  0.00  0.00    +0.000 C 
ENDBRANCH  17  25
ENDBRANCH   1  17
TORSDOF 3
ENDMDL
MODEL 2
REMARK VINA RESULT:      -9.0      0.797      1.707
REMARK  Name = 
REMARK  5 active torsions:
REMARK  status: ('A' for Active; 'I' for Inactive)
REMARK    1  A    between atoms: C_1  and  C_2
REMARK    2  A    between atoms: C_7  and  N_8
REMARK    3  A    between atoms: N_8  and  S_9
REMARK    4  A    between atoms: S_9  and  C_12
REMARK    5  A    between atoms: C_26  and  C_27
REMARK                            x       y       z     vdW  Elec       q    Type
REMARK                         _______ _______ _______ _____ _____    ______ ____
ROOT
ATOM      1  S   UNL     1       0.877   9.053  21.205  0.00  0.00    +0.000 S 
ATOM      2  O   UNL     1       1.752   9.403  22.307  0.00  0.00    +0.000 OA
ATOM      3  O   UNL     1      -0.462   8.572  21.429  0.00  0.00    +0.000 OA
ENDROOT
BRANCH   1   4
ATOM      4  C   UNL     1       1.753   7.828  20.254  0.00  0.00    +0.000 A 
ATOM      5  C   UNL     1       2.259   8.028  18.975  0.00  0.00    +0.000 A 
ATOM      6  C   UNL     1       2.612   6.893  18.201  0.00  0.00    +0.000 A 
ATOM      7  C   UNL     1       2.363   5.571  18.660  0.00  0.00    +0.000 A 
ATOM      8  C   UNL     1       1.809   5.407  19.919  0.00  0.00    +0.000 A 
ATOM      9  C   UNL     1       1.624   6.540  20.735  0.00  0.00    +0.000 A 
ATOM     10  C   UNL     1       1.153   4.216  20.545  0.00  0.00    +0.000 C 
ATOM     11  C   UNL     1       1.110   2.799  20.040  0.00  0.00    +0.000 C 
ATOM     12  C   UNL     1       1.630   2.491  18.670  0.00  0.00    +0.000 C 
ATOM     13  C   UNL     1       2.888   3.204  18.251  0.00  0.00    +0.000 C 
ATOM     14  O   UNL     1       3.959   2.608  18.141  0.00  0.00    +0.000 OA
ATOM     15  N   UNL     1       2.774   4.504  17.833  0.00  0.00    +0.000 N 
ATOM     16  H   UNL     1       3.511   4.750  17.183  0.00  0.00    +0.000 HD
ENDBRANCH   1   4
BRANCH   1  17
ATOM     17  N   UNL     1       0.866  10.402  20.181  0.00  0.00    +0.000 N 
ATOM     18  H   UNL     1       1.770  10.765  19.886  0.00  0.00    +0.000 HD
BRANCH  17  25
ATOM     19  C   UNL     1      -5.935  12.318  18.207  0.00  0.00    +0.000 C 
ATOM     20  C   UNL     1      -4.529  11.976  18.498  0.00  0.00    +0.000 A 
ATOM     21  O   UNL     1      -3.900  11.166  17.599  0.00  0.00    +0.000 OA
ATOM     22  C   UNL     1      -2.647  10.941  18.074  0.00  0.00    +0.000 A 
ATOM     23  C   UNL     1      -1.674  10.135  17.476  0.00  0.00    +0.000 A 
ATOM     24  C   UNL     1      -0.467   9.984  18.172  0.00  0.00    +0.000 A 
ATOM     25  C   UNL     1      -0.278  10.634  19.390  0.00  0.00    +0.000 A 
ATOM     26  C   UNL     1      -1.245  11.480  19.935  0.00  0.00    +0.000 A 
ATOM     27  C   UNL     1      -2.468  11.620  19.271  0.00  0.00    +0.000 A 
ATOM     28  C   UNL     1      -3.687  12.304  19.539  0.00  0.00    +0.000 A 
ATOM     29  C   UNL     1      -3.992  13.152  20.721  0.00  0.00    +0.000 C 
ENDBRANCH  17  25
ENDBRANCH   1  17
TORSDOF 3
ENDMDL
MODEL 3
REMARK VINA RESULT:      -8.8      1.610      2.419
REMARK  Name = 
REMARK  5 active torsions:
REMARK  status: ('A' for Active; 'I' for Inactive)
REMARK    1  A    between atoms: C_1  and  C_2
REMARK    2  A    between atoms: C_7  and  N_8
REMARK    3  A    between atoms: N_8  and  S_9
REMARK    4  A    between atoms: S_9  and  C_12
REMARK    5  A    between atoms: C_26  and  C_27
REMARK                            x       y       z     vdW  Elec       q    Type
REMARK                         _______ _______ _______ _____ _____    ______ ____
ROOT
ATOM      1  S   UNL     1       0.518   9.954  19.769  0.00  0.00    +0.000 S 
ATOM      2  O   UNL     1       1.236  11.029  20.426  0.00  0.00    +0.000 OA
ATOM      3  O   UNL     1      -0.586   9.285  20.407  0.00  0.00    +0.000 OA
ENDROOT
BRANCH   1   4
ATOM      4  C   UNL     1       1.745   8.729  19.358  0.00  0.00    +0.000 A 
ATOM      5  C   UNL     1       2.379   8.623  18.126  0.00  0.00    +0.000 A 
ATOM      6  C   UNL     1       3.054   7.415  17.813  0.00  0.00    +0.000 A 
ATOM      7  C   UNL     1       3.006   6.289  18.678  0.00  0.00    +0.000 A 
ATOM      8  C   UNL     1       2.320   6.410  19.876  0.00  0.00    +0.000 A 
ATOM      9  C   UNL     1       1.802   7.668  20.241  0.00  0.00    +0.000 A 
ATOM     10  C   UNL     1       1.828   5.362  20.825  0.00  0.00    +0.000 C 
ATOM     11  C   UNL     1       2.135   3.889  20.834  0.00  0.00    +0.000 C 
ATOM     12  C   UNL     1       2.896   3.290  19.691  0.00  0.00    +0.000 C 
ATOM     13  C   UNL     1       4.037   4.105  19.142  0.00  0.00    +0.000 C 
ATOM     14  O   UNL     1       5.208   3.771  19.315  0.00  0.00    +0.000 OA
ATOM     15  N   UNL     1       3.732   5.140  18.297  0.00  0.00    +0.000 N 
ATOM     16  H   UNL     1       4.491   5.330  17.655  0.00  0.00    +0.000 HD
ENDBRANCH   1   4
BRANCH   1  17
ATOM     17  N   UNL     1       0.059  10.564  18.258  0.00  0.00    +0.000 N 
ATOM     18  H   UNL     1       0.730  10.469  17.498  0.00  0.00    +0.000 HD
BRANCH  17  25
ATOM     19  C   UNL     1      -7.083  12.065  19.002  0.00  0.00    +0.000 C 
ATOM     20  C   UNL     1      -5.656  11.797  18.736  0.00  0.00    +0.000 A 
ATOM     21  O   UNL     1      -5.378  10.916  17.732  0.00  0.00    +0.000 OA
ATOM     22  C   UNL     1      -4.027  10.779  17.686  0.00  0.00    +0.000 A 
ATOM     23  C   UNL     1      -3.315   9.943  16.820  0.00  0.00    +0.000 A 
ATOM     24  C   UNL     1      -1.925   9.901  16.988  0.00  0.00    +0.000 A 
ATOM     25  C   UNL     1      -1.317  10.679  17.971  0.00  0.00    +0.000 A 
ATOM     26  C   UNL     1      -2.047  11.548  18.783  0.00  0.00    +0.000 A 
ATOM     27  C   UNL     1      -3.438  11.583  18.651  0.00  0.00    +0.000 A 
ATOM     28  C   UNL     1      -4.497  12.256  19.325  0.00  0.00    +0.000 A 
ATOM     29  C   UNL     1      -4.369  13.213  20.454  0.00  0.00    +0.000 C 
ENDBRANCH  17  25
ENDBRANCH   1  17
TORSDOF 3
ENDMDL
MODEL 4
REMARK VINA RESULT:      -8.7      3.798      8.985
REMARK  Name = 
REMARK  5 active torsions:
REMARK  status: ('A' for Active; 'I' for Inactive)
REMARK    1  A    between atoms: C_1  and  C_2
REMARK    2  A    between atoms: C_7  and  N_8
REMARK    3  A    between atoms: N_8  and  S_9
REMARK    4  A    between atoms: S_9  and  C_12
REMARK    5  A    between atoms: C_26  and  C_27
REMARK                            x       y       z     vdW  Elec       q    Type
REMARK                         _______ _______ _______ _____ _____    ______ ____
ROOT
ATOM      1  S   UNL     1       3.093   3.259  18.520  0.00  0.00    +0.000 S 
ATOM      2  O   UNL     1       2.780   3.590  17.144  0.00  0.00    +0.000 OA
ATOM      3  O   UNL     1       2.510   2.115  19.172  0.00  0.00    +0.000 OA
ENDROOT
BRANCH   1   4
ATOM      4  C   UNL     1       2.687   4.707  19.475  0.00  0.00    +0.000 A 
ATOM      5  C   UNL     1       1.942   4.701  20.648  0.00  0.00    +0.000 A 
ATOM      6  C   UNL     1       1.393   5.926  21.109  0.00  0.00    +0.000 A 
ATOM      7  C   UNL     1       1.500   7.123  20.351  0.00  0.00    +0.000 A 
ATOM      8  C   UNL     1       2.205   7.083  19.158  0.00  0.00    +0.000 A 
ATOM      9  C   UNL     1       2.882   5.900  18.805  0.00  0.00    +0.000 A 
ATOM     10  C   UNL     1       2.233   8.046  18.012  0.00  0.00    +0.000 C 
ATOM     11  C   UNL     1       1.655   9.434  17.943  0.00  0.00    +0.000 C 
ATOM     12  C   UNL     1       0.793   9.928  19.064  0.00  0.00    +0.000 C 
ATOM     13  C   UNL     1       1.229   9.564  20.459  0.00  0.00    +0.000 C 
ATOM     14  O   UNL     1       1.683  10.407  21.232  0.00  0.00    +0.000 OA
ATOM     15  N   UNL     1       0.949   8.299  20.903  0.00  0.00    +0.000 N 
ATOM     16  H   UNL     1       0.855   8.272  21.911  0.00  0.00    +0.000 HD
ENDBRANCH   1   4
BRANCH   1  17
ATOM     17  N   UNL     1       4.783   3.201  18.606  0.00  0.00    +0.000 N 
ATOM     18  H   UNL     1       5.197   2.366  19.014  0.00  0.00    +0.000 HD
BRANCH  17  25
ATOM     19  C   UNL     1       8.039   5.457  12.431  0.00  0.00    +0.000 C 
ATOM     20  C   UNL     1       7.359   5.120  13.696  0.00  0.00    +0.000 A 
ATOM     21  O   UNL     1       7.834   5.722  14.824  0.00  0.00    +0.000 OA
ATOM     22  C   UNL     1       7.107   5.244  15.868  0.00  0.00    +0.000 A 
ATOM     23  C   UNL     1       7.287   5.575  17.214  0.00  0.00    +0.000 A 
ATOM     24  C   UNL     1       6.470   4.911  18.139  0.00  0.00    +0.000 A 
ATOM     25  C   UNL     1       5.528   3.984  17.699  0.00  0.00    +0.000 A 
ATOM     26  C   UNL     1       5.331   3.716  16.344  0.00  0.00    +0.000 A 
ATOM     27  C   UNL     1       6.156   4.345  15.407  0.00  0.00    +0.000 A 
ATOM     28  C   UNL     1       6.309   4.275  13.993  0.00  0.00    +0.000 A 
ATOM     29  C   UNL     1       5.529   3.430  13.052  0.00  0.00    +0.000 C 
ENDBRANCH  17  25
ENDBRANCH   1  17
TORSDOF 3
ENDMDL
MODEL 5
REMARK VINA RESULT:      -8.6      3.713      8.589
REMARK  Name = 
REMARK  5 active torsions:
REMARK  status: ('A' for Active; 'I' for Inactive)
REMARK    1  A    between atoms: C_1  and  C_2
REMARK    2  A    between atoms: C_7  and  N_8
REMARK    3  A    between atoms: N_8  and  S_9
REMARK    4  A    between atoms: S_9  and  C_12
REMARK    5  A    between atoms: C_26  and  C_27
REMARK                            x       y       z     vdW  Elec       q    Type
REMARK                         _______ _______ _______ _____ _____    ______ ____
ROOT
ATOM      1  S   UNL     1       2.763   2.746  17.811  0.00  0.00    +0.000 S 
ATOM      2  O   UNL     1       2.205   3.292  16.590  0.00  0.00    +0.000 OA
ATOM      3  O   UNL     1       2.292   1.503  18.365  0.00  0.00    +0.000 OA
ENDROOT
BRANCH   1   4
ATOM      4  C   UNL     1       2.566   4.013  19.047  0.00  0.00    +0.000 A 
ATOM      5  C   UNL     1       1.980   3.823  20.293  0.00  0.00    +0.000 A 
ATOM      6  C   UNL     1       1.566   4.964  21.029  0.00  0.00    +0.000 A 
ATOM      7  C   UNL     1       1.642   6.272  20.480  0.00  0.00    +0.000 A 
ATOM      8  C   UNL     1       2.184   6.423  19.213  0.00  0.00    +0.000 A 
ATOM      9  C   UNL     1       2.741   5.299  18.572  0.00  0.00    +0.000 A 
ATOM     10  C   UNL     1       2.119   7.573  18.258  0.00  0.00    +0.000 C 
ATOM     11  C   UNL     1       1.617   8.969  18.508  0.00  0.00    +0.000 C 
ATOM     12  C   UNL     1       0.937   9.285  19.805  0.00  0.00    +0.000 C 
ATOM     13  C   UNL     1       1.527   8.663  21.043  0.00  0.00    +0.000 C 
ATOM     14  O   UNL     1       2.124   9.339  21.880  0.00  0.00    +0.000 OA
ATOM     15  N   UNL     1       1.235   7.349  21.296  0.00  0.00    +0.000 N 
ATOM     16  H   UNL     1       1.270   7.147  22.288  0.00  0.00    +0.000 HD
ENDBRANCH   1   4
BRANCH   1  17
ATOM     17  N   UNL     1       4.438   2.699  17.569  0.00  0.00    +0.000 N 
ATOM     18  H   UNL     1       4.845   1.798  17.326  0.00  0.00    +0.000 HD
BRANCH  17  25
ATOM     19  C   UNL     1       8.425   8.843  17.991  0.00  0.00    +0.000 C 
ATOM     20  C   UNL     1       7.671   7.589  17.796  0.00  0.00    +0.000 A 
ATOM     21  O   UNL     1       6.874   7.523  16.692  0.00  0.00    +0.000 OA
ATOM     22  C   UNL     1       6.243   6.319  16.728  0.00  0.00    +0.000 A 
ATOM     23  C   UNL     1       5.307   5.854  15.800  0.00  0.00    +0.000 A 
ATOM     24  C   UNL     1       4.724   4.607  16.065  0.00  0.00    +0.000 A 
ATOM     25  C   UNL     1       5.097   3.890  17.200  0.00  0.00    +0.000 A 
ATOM     26  C   UNL     1       6.076   4.353  18.079  0.00  0.00    +0.000 A 
ATOM     27  C   UNL     1       6.648   5.608  17.849  0.00  0.00    +0.000 A 
ATOM     28  C   UNL     1       7.588   6.428  18.536  0.00  0.00    +0.000 A 
ATOM     29  C   UNL     1       8.288   6.108  19.806  0.00  0.00    +0.000 C 
ENDBRANCH  17  25
ENDBRANCH   1  17
TORSDOF 3
ENDMDL
MODEL 6
REMARK VINA RESULT:      -8.4      3.032      4.625
REMARK  Name = 
REMARK  5 active torsions:
REMARK  status: ('A' for Active; 'I' for Inactive)
REMARK    1  A    between atoms: C_1  and  C_2
REMARK    2  A    between atoms: C_7  and  N_8
REMARK    3  A    between atoms: N_8  and  S_9
REMARK    4  A    between atoms: S_9  and  C_12
REMARK    5  A    between atoms: C_26  and  C_27
REMARK                            x       y       z     vdW  Elec       q    Type
REMARK                         _______ _______ _______ _____ _____    ______ ____
ROOT
ATOM      1  S   UNL     1       1.720   5.031  20.578  0.00  0.00    +0.000 S 
ATOM      2  O   UNL     1       2.177   4.006  21.497  0.00  0.00    +0.000 OA
ATOM      3  O   UNL     1       0.346   5.105  20.154  0.00  0.00    +0.000 OA
ENDROOT
BRANCH   1   4
ATOM      4  C   UNL     1       2.740   4.875  19.126  0.00  0.00    +0.000 A 
ATOM      5  C   UNL     1       2.502   3.992  18.080  0.00  0.00    +0.000 A 
ATOM      6  C   UNL     1       3.558   3.714  17.174  0.00  0.00    +0.000 A 
ATOM      7  C   UNL     1       4.866   4.232  17.372  0.00  0.00    +0.000 A 
ATOM      8  C   UNL     1       5.083   5.069  18.455  0.00  0.00    +0.000 A 
ATOM      9  C   UNL     1       3.985   5.463  19.243  0.00  0.00    +0.000 A 
ATOM     10  C   UNL     1       6.358   5.507  19.105  0.00  0.00    +0.000 C 
ATOM     11  C   UNL     1       7.769   5.320  18.616  0.00  0.00    +0.000 C 
ATOM     12  C   UNL     1       8.024   4.461  17.416  0.00  0.00    +0.000 C 
ATOM     13  C   UNL     1       7.042   4.582  16.281  0.00  0.00    +0.000 C 
ATOM     14  O   UNL     1       7.350   5.120  15.218  0.00  0.00    +0.000 OA
ATOM     15  N   UNL     1       5.845   3.927  16.403  0.00  0.00    +0.000 N 
ATOM     16  H   UNL     1       5.462   3.684  15.497  0.00  0.00    +0.000 HD
ENDBRANCH   1   4
BRANCH   1  17
ATOM     17  N   UNL     1       2.222   6.504  21.246  0.00  0.00    +0.000 N 
ATOM     18  H   UNL     1       3.120   6.512  21.725  0.00  0.00    +0.000 HD
BRANCH  17  25
ATOM     19  C   UNL     1      -1.855  12.543  20.392  0.00  0.00    +0.000 C 
ATOM     20  C   UNL     1      -0.942  11.390  20.518  0.00  0.00    +0.000 A 
ATOM     21  O   UNL     1      -0.321  10.976  19.376  0.00  0.00    +0.000 OA
ATOM     22  C   UNL     1       0.428   9.890  19.702  0.00  0.00    +0.000 A 
ATOM     23  C   UNL     1       1.203   9.132  18.819  0.00  0.00    +0.000 A 
ATOM     24  C   UNL     1       1.844   8.006  19.352  0.00  0.00    +0.000 A 
ATOM     25  C   UNL     1       1.703   7.698  20.703  0.00  0.00    +0.000 A 
ATOM     26  C   UNL     1       0.970   8.505  21.574  0.00  0.00    +0.000 A 
ATOM     27  C   UNL     1       0.298   9.617  21.056  0.00  0.00    +0.000 A 
ATOM     28  C   UNL     1      -0.581  10.601  21.590  0.00  0.00    +0.000 A 
ATOM     29  C   UNL     1      -1.043  10.714  22.997  0.00  0.00    +0.000 C 
ENDBRANCH  17  25
ENDBRANCH   1  17
TORSDOF 3
ENDMDL
MODEL 7
REMARK VINA RESULT:      -8.4      2.861      4.761
REMARK  Name = 
REMARK  5 active torsions:
REMARK  status: ('A' for Active; 'I' for Inactive)
REMARK    1  A    between atoms: C_1  and  C_2
REMARK    2  A    between atoms: C_7  and  N_8
REMARK    3  A    between atoms: N_8  and  S_9
REMARK    4  A    between atoms: S_9  and  C_12
REMARK    5  A    between atoms: C_26  and  C_27
REMARK                            x       y       z     vdW  Elec       q    Type
REMARK                         _______ _______ _______ _____ _____    ______ ____
ROOT
ATOM      1  S   UNL     1       1.848   4.943  20.442  0.00  0.00    +0.000 S 
ATOM      2  O   UNL     1       2.234   4.087  21.547  0.00  0.00    +0.000 OA
ATOM      3  O   UNL     1       0.465   5.168  20.110  0.00  0.00    +0.000 OA
ENDROOT
BRANCH   1   4
ATOM      4  C   UNL     1       2.662   4.280  19.003  0.00  0.00    +0.000 A 
ATOM      5  C   UNL     1       2.934   2.932  18.794  0.00  0.00    +0.000 A 
ATOM      6  C   UNL     1       3.884   2.578  17.803  0.00  0.00    +0.000 A 
ATOM      7  C   UNL     1       4.631   3.562  17.100  0.00  0.00    +0.000 A 
ATOM      8  C   UNL     1       4.373   4.897  17.369  0.00  0.00    +0.000 A 
ATOM      9  C   UNL     1       3.311   5.226  18.233  0.00  0.00    +0.000 A 
ATOM     10  C   UNL     1       5.170   6.124  17.054  0.00  0.00    +0.000 C 
ATOM     11  C   UNL     1       6.377   6.252  16.164  0.00  0.00    +0.000 C 
ATOM     12  C   UNL     1       7.017   5.016  15.611  0.00  0.00    +0.000 C 
ATOM     13  C   UNL     1       6.088   3.924  15.153  0.00  0.00    +0.000 C 
ATOM     14  O   UNL     1       5.943   3.661  13.960  0.00  0.00    +0.000 OA
ATOM     15  N   UNL     1       5.533   3.117  16.111  0.00  0.00    +0.000 N 
ATOM     16  H   UNL     1       5.314   2.200  15.741  0.00  0.00    +0.000 HD
ENDBRANCH   1   4
BRANCH   1  17
ATOM     17  N   UNL     1       2.651   6.412  20.697  0.00  0.00    +0.000 N 
ATOM     18  H   UNL     1       3.666   6.379  20.767  0.00  0.00    +0.000 HD
BRANCH  17  25
ATOM     19  C   UNL     1      -1.887  12.176  20.636  0.00  0.00    +0.000 C 
ATOM     20  C   UNL     1      -0.889  11.089  20.602  0.00  0.00    +0.000 A 
ATOM     21  O   UNL     1      -0.326  10.817  19.390  0.00  0.00    +0.000 OA
ATOM     22  C   UNL     1       0.518   9.767  19.571  0.00  0.00    +0.000 A 
ATOM     23  C   UNL     1       1.278   9.143  18.577  0.00  0.00    +0.000 A 
ATOM     24  C   UNL     1       2.033   8.029  18.968  0.00  0.00    +0.000 A 
ATOM     25  C   UNL     1       2.012   7.604  20.294  0.00  0.00    +0.000 A 
ATOM     26  C   UNL     1       1.290   8.281  21.277  0.00  0.00    +0.000 A 
ATOM     27  C   UNL     1       0.507   9.377  20.902  0.00  0.00    +0.000 A 
ATOM     28  C   UNL     1      -0.398  10.245  21.576  0.00  0.00    +0.000 A 
ATOM     29  C   UNL     1      -0.763  10.210  23.015  0.00  0.00    +0.000 C 
ENDBRANCH  17  25
ENDBRANCH   1  17
TORSDOF 3
ENDMDL
MODEL 8
REMARK VINA RESULT:      -8.4      1.174      2.437
REMARK  Name = 
REMARK  5 active torsions:
REMARK  status: ('A' for Active; 'I' for Inactive)
REMARK    1  A    between atoms: C_1  and  C_2
REMARK    2  A    between atoms: C_7  and  N_8
REMARK    3  A    between atoms: N_8  and  S_9
REMARK    4  A    between atoms: S_9  and  C_12
REMARK    5  A    between atoms: C_26  and  C_27
REMARK                            x       y       z     vdW  Elec       q    Type
REMARK                         _______ _______ _______ _____ _____    ______ ____
ROOT
ATOM      1  S   UNL     1       0.871   8.981  21.360  0.00  0.00    +0.000 S 
ATOM      2  O   UNL     1       1.738   9.229  22.495  0.00  0.00    +0.000 OA
ATOM      3  O   UNL     1      -0.482   8.519  21.532  0.00  0.00    +0.000 OA
ENDROOT
BRANCH   1   4
ATOM      4  C   UNL     1       1.731   7.805  20.336  0.00  0.00    +0.000 A 
ATOM      5  C   UNL     1       2.197   8.062  19.052  0.00  0.00    +0.000 A 
ATOM      6  C   UNL     1       2.538   6.963  18.223  0.00  0.00    +0.000 A 
ATOM      7  C   UNL     1       2.317   5.621  18.635  0.00  0.00    +0.000 A 
ATOM      8  C   UNL     1       1.802   5.400  19.902  0.00  0.00    +0.000 A 
ATOM      9  C   UNL     1       1.629   6.497  20.768  0.00  0.00    +0.000 A 
ATOM     10  C   UNL     1       1.178   4.177  20.499  0.00  0.00    +0.000 C 
ATOM     11  C   UNL     1       1.134   2.781  19.938  0.00  0.00    +0.000 C 
ATOM     12  C   UNL     1       1.617   2.534  18.542  0.00  0.00    +0.000 C 
ATOM     13  C   UNL     1       2.855   3.278  18.117  0.00  0.00    +0.000 C 
ATOM     14  O   UNL     1       3.928   2.699  17.951  0.00  0.00    +0.000 OA
ATOM     15  N   UNL     1       2.715   4.592  17.755  0.00  0.00    +0.000 N 
ATOM     16  H   UNL     1       3.430   4.872  17.094  0.00  0.00    +0.000 HD
ENDBRANCH   1   4
BRANCH   1  17
ATOM     17  N   UNL     1       0.907  10.399  20.435  0.00  0.00    +0.000 N 
ATOM     18  H   UNL     1       1.677  10.502  19.777  0.00  0.00    +0.000 HD
BRANCH  17  25
ATOM     19  C   UNL     1      -5.474  13.795  21.687  0.00  0.00    +0.000 C 
ATOM     20  C   UNL     1      -4.171  13.192  21.346  0.00  0.00    +0.000 A 
ATOM     21  O   UNL     1      -4.009  12.776  20.058  0.00  0.00    +0.000 OA
ATOM     22  C   UNL     1      -2.773  12.217  19.971  0.00  0.00    +0.000 A 
ATOM     23  C   UNL     1      -2.214  11.633  18.831  0.00  0.00    +0.000 A 
ATOM     24  C   UNL     1      -0.948  11.052  18.979  0.00  0.00    +0.000 A 
ATOM     25  C   UNL     1      -0.304  11.087  20.214  0.00  0.00    +0.000 A 
ATOM     26  C   UNL     1      -0.862  11.728  21.321  0.00  0.00    +0.000 A 
ATOM     27  C   UNL     1      -2.137  12.288  21.202  0.00  0.00    +0.000 A 
ATOM     28  C   UNL     1      -3.040  12.935  22.093  0.00  0.00    +0.000 A 
ATOM     29  C   UNL     1      -2.818  13.223  23.533  0.00  0.00    +0.000 C 
ENDBRANCH  17  25
ENDBRANCH   1  17
TORSDOF 3
ENDMDL
MODEL 9
REMARK VINA RESULT:      -8.2      2.269      3.446
REMARK  Name = 
REMARK  5 active torsions:
REMARK  status: ('A' for Active; 'I' for Inactive)
REMARK    1  A    between atoms: C_1  and  C_2
REMARK    2  A    between atoms: C_7  and  N_8
REMARK    3  A    between atoms: N_8  and  S_9
REMARK    4  A    between atoms: S_9  and  C_12
REMARK    5  A    between atoms: C_26  and  C_27
REMARK                            x       y       z     vdW  Elec       q    Type
REMARK                         _______ _______ _______ _____ _____    ______ ____
ROOT
ATOM      1  S   UNL     1       0.604  11.714  19.500  0.00  0.00    +0.000 S 
ATOM      2  O   UNL     1       1.934  12.243  19.268  0.00  0.00    +0.000 OA
ATOM      3  O   UNL     1      -0.241  12.230  20.546  0.00  0.00    +0.000 OA
ENDROOT
BRANCH   1   4
ATOM      4  C   UNL     1       0.812   9.966  19.767  0.00  0.00    +0.000 A 
ATOM      5  C   UNL     1       0.685   9.330  20.997  0.00  0.00    +0.000 A 
ATOM      6  C   UNL     1       1.216   8.023  21.142  0.00  0.00    +0.000 A 
ATOM      7  C   UNL     1       1.958   7.400  20.102  0.00  0.00    +0.000 A 
ATOM      8  C   UNL     1       2.112   8.083  18.906  0.00  0.00    +0.000 A 
ATOM      9  C   UNL     1       1.435   9.304  18.726  0.00  0.00    +0.000 A 
ATOM     10  C   UNL     1       3.064   7.858  17.773  0.00  0.00    +0.000 C 
ATOM     11  C   UNL     1       3.978   6.685  17.538  0.00  0.00    +0.000 C 
ATOM     12  C   UNL     1       4.128   5.645  18.605  0.00  0.00    +0.000 C 
ATOM     13  C   UNL     1       2.874   5.249  19.340  0.00  0.00    +0.000 C 
ATOM     14  O   UNL     1       2.352   4.147  19.174  0.00  0.00    +0.000 OA
ATOM     15  N   UNL     1       2.423   6.086  20.325  0.00  0.00    +0.000 N 
ATOM     16  H   UNL     1       1.899   5.581  21.029  0.00  0.00    +0.000 HD
ENDBRANCH   1   4
BRANCH   1  17
ATOM     17  N   UNL     1      -0.185  11.785  18.003  0.00  0.00    +0.000 N 
ATOM     18  H   UNL     1       0.397  11.727  17.170  0.00  0.00    +0.000 HD
BRANCH  17  25
ATOM     19  C   UNL     1      -7.330  11.268  19.584  0.00  0.00    +0.000 C 
ATOM     20  C   UNL     1      -5.924  11.366  19.149  0.00  0.00    +0.000 A 
ATOM     21  O   UNL     1      -5.457  10.355  18.362  0.00  0.00    +0.000 OA
ATOM     22  C   UNL     1      -4.146  10.613  18.117  0.00  0.00    +0.000 A 
ATOM     23  C   UNL     1      -3.274   9.810  17.374  0.00  0.00    +0.000 A 
ATOM     24  C   UNL     1      -1.940  10.229  17.303  0.00  0.00    +0.000 A 
ATOM     25  C   UNL     1      -1.541  11.402  17.941  0.00  0.00    +0.000 A 
ATOM     26  C   UNL     1      -2.445  12.215  18.626  0.00  0.00    +0.000 A 
ATOM     27  C   UNL     1      -3.776  11.799  18.735  0.00  0.00    +0.000 A 
ATOM     28  C   UNL     1      -4.935  12.296  19.394  0.00  0.00    +0.000 A 
ATOM     29  C   UNL     1      -5.035  13.533  20.211  0.00  0.00    +0.000 C 
ENDBRANCH  17  25
ENDBRANCH   1  17
TORSDOF 3
ENDMDL
