MODEL 1
REMARK VINA RESULT:      -8.8      0.000      0.000
REMARK  Name = 
REMARK  5 active torsions:
REMARK  status: ('A' for Active; 'I' for Inactive)
REMARK    1  A    between atoms: N_1  and  C_2
REMARK    2  A    between atoms: C_2  and  C_3
REMARK    3  A    between atoms: N_5  and  C_6
REMARK    4  A    between atoms: C_9  and  C_10
REMARK    5  A    between atoms: C_10  and  N_11
REMARK                            x       y       z     vdW  Elec       q    Type
REMARK                         _______ _______ _______ _____ _____    ______ ____
ROOT
ATOM      1  C   UNL     1       1.499   9.043  19.882  0.00  0.00    +0.000 A 
ATOM      2  C   UNL     1       1.822   9.080  18.523  0.00  0.00    +0.000 A 
ATOM      3  C   UNL     1       2.309   7.944  17.860  0.00  0.00    +0.000 A 
ATOM      4  C   UNL     1       2.500   6.738  18.542  0.00  0.00    +0.000 A 
ATOM      5  C   UNL     1       2.219   6.706  19.914  0.00  0.00    +0.000 A 
ATOM      6  C   UNL     1       1.722   7.847  20.573  0.00  0.00    +0.000 A 
ENDROOT
BRANCH   1   9
ATOM      7  C   UNL     1      -0.352  10.648  20.432  0.00  0.00    +0.000 C 
ATOM      8  O   UNL     1      -1.168  10.202  19.615  0.00  0.00    +0.000 OA
ATOM      9  N   UNL     1       0.936  10.139  20.592  0.00  0.00    +0.000 N 
ATOM     10  H   UNL     1       1.484  10.517  21.355  0.00  0.00    +0.000 HD
BRANCH   7  11
ATOM     11  C   UNL     1      -0.786  11.780  21.434  0.00  0.00    +0.000 C 
ATOM     12  C   UNL     1      -2.143  12.555  21.399  0.00  0.00    +0.000 C 
ATOM     13  C   UNL     1      -2.158  12.466  22.914  0.00  0.00    +0.000 C 
ATOM     14  C   UNL     1      -1.765  13.682  23.735  0.00  0.00    +0.000 C 
ATOM     15  C   UNL     1      -3.267  13.844  24.061  0.00  0.00    +0.000 C 
ATOM     16  C   UNL     1      -3.462  12.360  23.659  0.00  0.00    +0.000 C 
ATOM     17  C   UNL     1      -1.200  11.299  22.876  0.00  0.00    +0.000 C 
BRANCH  11  18
ATOM     18  N   UNL     1       0.289  12.791  21.612  0.00  0.00    +0.000 NA
ATOM     19  H   UNL     1       1.115  12.433  22.090  0.00  0.00    +0.000 HD
ATOM     20  H   UNL     1      -0.026  13.578  22.186  0.00  0.00    +0.000 HD
ENDBRANCH  11  18
ENDBRANCH   7  11
ENDBRANCH   1   9
BRANCH   4  21
ATOM     21  C   UNL     1       2.905   5.493  17.790  0.00  0.00    +0.000 C 
BRANCH  21  22
ATOM     22  N   UNL     1       4.239   4.974  18.074  0.00  0.00    +0.000 N 
ATOM     23  C   UNL     1       4.529   3.925  18.907  0.00  0.00    +0.000 A 
ATOM     24  N   UNL     1       5.758   3.988  19.366  0.00  0.00    +0.000 NA
ATOM     25  C   UNL     1       6.302   5.107  18.789  0.00  0.00    +0.000 A 
ATOM     26  C   UNL     1       7.555   5.702  19.002  0.00  0.00    +0.000 A 
ATOM     27  C   UNL     1       7.884   6.861  18.288  0.00  0.00    +0.000 A 
ATOM     28  C   UNL     1       7.000   7.392  17.348  0.00  0.00    +0.000 A 
ATOM     29  C   UNL     1       5.740   6.820  17.131  0.00  0.00    +0.000 A 
ATOM     30  C   UNL     1       5.407   5.695  17.898  0.00  0.00    +0.000 A 
ENDBRANCH  21  22
ENDBRANCH   4  21
TORSDOF 5
ENDMDL
MODEL 2
REMARK VINA RESULT:      -8.6      1.261      1.437
REMARK  Name = 
REMARK  5 active torsions:
REMARK  status: ('A' for Active; 'I' for Inactive)
REMARK    1  A    between atoms: N_1  and  C_2
REMARK    2  A    between atoms: C_2  and  C_3
REMARK    3  A    between atoms: N_5  and  C_6
REMARK    4  A    between atoms: C_9  and  C_10
REMARK    5  A    between atoms: C_10  and  N_11
REMARK                            x       y       z     vdW  Elec       q    Type
REMARK                         _______ _______ _______ _____ _____    ______ ____
ROOT
ATOM      1  C   UNL     1       1.561   8.405  20.115  0.00  0.00    +0.000 A 
ATOM      2  C   UNL     1       2.074   8.376  18.815  0.00  0.00    +0.000 A 
ATOM      3  C   UNL     1       2.484   7.173  18.221  0.00  0.00    +0.000 A 
ATOM      4  C   UNL     1       2.404   5.963  18.915  0.00  0.00    +0.000 A 
ATOM      5  C   UNL     1       1.929   5.990  20.234  0.00  0.00    +0.000 A 
ATOM      6  C   UNL     1       1.512   7.198  20.823  0.00  0.00    +0.000 A 
ENDROOT
BRANCH   1   9
ATOM      7  C   UNL     1      -0.105  10.261  20.408  0.00  0.00    +0.000 C 
ATOM      8  O   UNL     1      -0.853   9.921  19.483  0.00  0.00    +0.000 OA
ATOM      9  N   UNL     1       1.064   9.578  20.744  0.00  0.00    +0.000 N 
ATOM     10  H   UNL     1       1.549   9.887  21.578  0.00  0.00    +0.000 HD
BRANCH   7  11
ATOM     11  C   UNL     1      -0.510  11.457  21.345  0.00  0.00    +0.000 C 
ATOM     12  C   UNL     1      -1.836  12.279  21.249  0.00  0.00    +0.000 C 
ATOM     13  C   UNL     1      -1.877  12.267  22.767  0.00  0.00    +0.000 C 
ATOM     14  C   UNL     1      -1.451  13.508  23.532  0.00  0.00    +0.000 C 
ATOM     15  C   UNL     1      -2.949  13.741  23.825  0.00  0.00    +0.000 C 
ATOM     16  C   UNL     1      -3.195  12.248  23.494  0.00  0.00    +0.000 C 
ATOM     17  C   UNL     1      -0.963  11.065  22.803  0.00  0.00    +0.000 C 
BRANCH  11  18
ATOM     18  N   UNL     1       0.600  12.435  21.490  0.00  0.00    +0.000 NA
ATOM     19  H   UNL     1       0.629  13.136  20.752  0.00  0.00    +0.000 HD
ATOM     20  H   UNL     1       1.514  11.975  21.451  0.00  0.00    +0.000 HD
ENDBRANCH  11  18
ENDBRANCH   7  11
ENDBRANCH   1   9
BRANCH   4  21
ATOM     21  C   UNL     1       2.729   4.662  18.221  0.00  0.00    +0.000 C 
BRANCH  21  22
ATOM     22  N   UNL     1       4.134   4.265  18.224  0.00  0.00    +0.000 N 
ATOM     23  C   UNL     1       4.939   4.182  19.329  0.00  0.00    +0.000 A 
ATOM     24  N   UNL     1       6.211   4.299  19.019  0.00  0.00    +0.000 NA
ATOM     25  C   UNL     1       6.239   4.437  17.655  0.00  0.00    +0.000 A 
ATOM     26  C   UNL     1       7.326   4.692  16.805  0.00  0.00    +0.000 A 
ATOM     27  C   UNL     1       7.099   4.797  15.427  0.00  0.00    +0.000 A 
ATOM     28  C   UNL     1       5.820   4.608  14.902  0.00  0.00    +0.000 A 
ATOM     29  C   UNL     1       4.720   4.365  15.734  0.00  0.00    +0.000 A 
ATOM     30  C   UNL     1       4.960   4.323  17.115  0.00  0.00    +0.000 A 
ENDBRANCH  21  22
ENDBRANCH   4  21
TORSDOF 5
ENDMDL
MODEL 3
REMARK VINA RESULT:      -8.5      0.398      1.004
REMARK  Name = 
REMARK  5 active torsions:
REMARK  status: ('A' for Active; 'I' for Inactive)
REMARK    1  A    between atoms: N_1  and  C_2
REMARK    2  A    between atoms: C_2  and  C_3
REMARK    3  A    between atoms: N_5  and  C_6
REMARK    4  A    between atoms: C_9  and  C_10
REMARK    5  A    between atoms: C_10  and  N_11
REMARK                            x       y       z     vdW  Elec       q    Type
REMARK                         _______ _______ _______ _____ _____    ______ ____
ROOT
ATOM      1  C   UNL     1       1.552   8.735  19.717  0.00  0.00    +0.000 A 
ATOM      2  C   UNL     1       1.761   7.488  20.313  0.00  0.00    +0.000 A 
ATOM      3  C   UNL     1       2.287   6.412  19.583  0.00  0.00    +0.000 A 
ATOM      4  C   UNL     1       2.609   6.549  18.230  0.00  0.00    +0.000 A 
ATOM      5  C   UNL     1       2.363   7.784  17.615  0.00  0.00    +0.000 A 
ATOM      6  C   UNL     1       1.842   8.863  18.354  0.00  0.00    +0.000 A 
ENDROOT
BRANCH   1   9
ATOM      7  C   UNL     1      -0.169  10.471  20.295  0.00  0.00    +0.000 C 
ATOM      8  O   UNL     1      -1.043  10.061  19.521  0.00  0.00    +0.000 OA
ATOM      9  N   UNL     1       1.089   9.881  20.420  0.00  0.00    +0.000 N 
ATOM     10  H   UNL     1       1.690  10.239  21.151  0.00  0.00    +0.000 HD
BRANCH   7  11
ATOM     11  C   UNL     1      -0.488  11.651  21.284  0.00  0.00    +0.000 C 
ATOM     12  C   UNL     1      -1.766  12.551  21.244  0.00  0.00    +0.000 C 
ATOM     13  C   UNL     1      -1.782  12.483  22.760  0.00  0.00    +0.000 C 
ATOM     14  C   UNL     1      -1.272  13.667  23.563  0.00  0.00    +0.000 C 
ATOM     15  C   UNL     1      -2.750  13.974  23.893  0.00  0.00    +0.000 C 
ATOM     16  C   UNL     1      -3.087  12.510  23.511  0.00  0.00    +0.000 C 
ATOM     17  C   UNL     1      -0.939  11.230  22.734  0.00  0.00    +0.000 C 
BRANCH  11  18
ATOM     18  N   UNL     1       0.678  12.558  21.444  0.00  0.00    +0.000 NA
ATOM     19  H   UNL     1       0.866  12.819  22.411  0.00  0.00    +0.000 HD
ATOM     20  H   UNL     1       0.534  13.447  20.956  0.00  0.00    +0.000 HD
ENDBRANCH  11  18
ENDBRANCH   7  11
ENDBRANCH   1   9
BRANCH   4  21
ATOM     21  C   UNL     1       3.291   5.422  17.491  0.00  0.00    +0.000 C 
BRANCH  21  22
ATOM     22  N   UNL     1       4.607   5.030  17.987  0.00  0.00    +0.000 N 
ATOM     23  C   UNL     1       4.849   4.089  18.954  0.00  0.00    +0.000 A 
ATOM     24  N   UNL     1       6.004   4.284  19.548  0.00  0.00    +0.000 NA
ATOM     25  C   UNL     1       6.550   5.379  18.927  0.00  0.00    +0.000 A 
ATOM     26  C   UNL     1       7.728   6.081  19.227  0.00  0.00    +0.000 A 
ATOM     27  C   UNL     1       8.076   7.186  18.440  0.00  0.00    +0.000 A 
ATOM     28  C   UNL     1       7.289   7.559  17.350  0.00  0.00    +0.000 A 
ATOM     29  C   UNL     1       6.103   6.879  17.043  0.00  0.00    +0.000 A 
ATOM     30  C   UNL     1       5.742   5.813  17.878  0.00  0.00    +0.000 A 
ENDBRANCH  21  22
ENDBRANCH   4  21
TORSDOF 5
ENDMDL
MODEL 4
REMARK VINA RESULT:      -8.3      1.458      1.904
REMARK  Name = 
REMARK  5 active torsions:
REMARK  status: ('A' for Active; 'I' for Inactive)
REMARK    1  A    between atoms: N_1  and  C_2
REMARK    2  A    between atoms: C_2  and  C_3
REMARK    3  A    between atoms: N_5  and  C_6
REMARK    4  A    between atoms: C_9  and  C_10
REMARK    5  A    between atoms: C_10  and  N_11
REMARK                            x       y       z     vdW  Elec       q    Type
REMARK                         _______ _______ _______ _____ _____    ______ ____
ROOT
ATOM      1  C   UNL     1       1.527   7.961  20.232  0.00  0.00    +0.000 A 
ATOM      2  C   UNL     1       1.403   6.734  20.888  0.00  0.00    +0.000 A 
ATOM      3  C   UNL     1       1.882   5.548  20.311  0.00  0.00    +0.000 A 
ATOM      4  C   UNL     1       2.488   5.554  19.051  0.00  0.00    +0.000 A 
ATOM      5  C   UNL     1       2.578   6.775  18.369  0.00  0.00    +0.000 A 
ATOM      6  C   UNL     1       2.104   7.963  18.957  0.00  0.00    +0.000 A 
ENDROOT
BRANCH   1   9
ATOM      7  C   UNL     1       0.108  10.031  20.323  0.00  0.00    +0.000 C 
ATOM      8  O   UNL     1      -0.570   9.777  19.319  0.00  0.00    +0.000 OA
ATOM      9  N   UNL     1       1.127   9.204  20.795  0.00  0.00    +0.000 N 
ATOM     10  H   UNL     1       1.552   9.461  21.677  0.00  0.00    +0.000 HD
BRANCH   7  11
ATOM     11  C   UNL     1      -0.233  11.290  21.202  0.00  0.00    +0.000 C 
ATOM     12  C   UNL     1      -1.520  12.168  21.072  0.00  0.00    +0.000 C 
ATOM     13  C   UNL     1      -1.550  12.233  22.589  0.00  0.00    +0.000 C 
ATOM     14  C   UNL     1      -1.059  13.489  23.289  0.00  0.00    +0.000 C 
ATOM     15  C   UNL     1      -2.543  13.807  23.578  0.00  0.00    +0.000 C 
ATOM     16  C   UNL     1      -2.861  12.312  23.323  0.00  0.00    +0.000 C 
ATOM     17  C   UNL     1      -0.692  10.993  22.679  0.00  0.00    +0.000 C 
BRANCH  11  18
ATOM     18  N   UNL     1       0.922  12.221  21.292  0.00  0.00    +0.000 NA
ATOM     19  H   UNL     1       1.736  11.822  21.758  0.00  0.00    +0.000 HD
ATOM     20  H   UNL     1       0.691  13.056  21.838  0.00  0.00    +0.000 HD
ENDBRANCH  11  18
ENDBRANCH   7  11
ENDBRANCH   1   9
BRANCH   4  21
ATOM     21  C   UNL     1       3.110   4.294  18.498  0.00  0.00    +0.000 C 
BRANCH  21  22
ATOM     22  N   UNL     1       4.567   4.284  18.402  0.00  0.00    +0.000 N 
ATOM     23  C   UNL     1       5.436   4.683  19.383  0.00  0.00    +0.000 A 
ATOM     24  N   UNL     1       6.599   5.043  18.890  0.00  0.00    +0.000 NA
ATOM     25  C   UNL     1       6.495   4.846  17.536  0.00  0.00    +0.000 A 
ATOM     26  C   UNL     1       7.406   5.157  16.516  0.00  0.00    +0.000 A 
ATOM     27  C   UNL     1       7.065   4.860  15.190  0.00  0.00    +0.000 A 
ATOM     28  C   UNL     1       5.858   4.228  14.891  0.00  0.00    +0.000 A 
ATOM     29  C   UNL     1       4.930   3.921  15.894  0.00  0.00    +0.000 A 
ATOM     30  C   UNL     1       5.265   4.280  17.207  0.00  0.00    +0.000 A 
ENDBRANCH  21  22
ENDBRANCH   4  21
TORSDOF 5
ENDMDL
MODEL 5
REMARK VINA RESULT:      -8.2      1.597      2.957
REMARK  Name = 
REMARK  5 active torsions:
REMARK  status: ('A' for Active; 'I' for Inactive)
REMARK    1  A    between atoms: N_1  and  C_2
REMARK    2  A    between atoms: C_2  and  C_3
REMARK    3  A    between atoms: N_5  and  C_6
REMARK    4  A    between atoms: C_9  and  C_10
REMARK    5  A    between atoms: C_10  and  N_11
REMARK                            x       y       z     vdW  Elec       q    Type
REMARK                         _______ _______ _______ _____ _____    ______ ____
ROOT
ATOM      1  C   UNL     1       0.700   9.519  19.797  0.00  0.00    +0.000 A 
ATOM      2  C   UNL     1       1.263   8.448  20.495  0.00  0.00    +0.000 A 
ATOM      3  C   UNL     1       2.145   7.554  19.869  0.00  0.00    +0.000 A 
ATOM      4  C   UNL     1       2.479   7.698  18.519  0.00  0.00    +0.000 A 
ATOM      5  C   UNL     1       1.885   8.745  17.802  0.00  0.00    +0.000 A 
ATOM      6  C   UNL     1       1.008   9.645  18.437  0.00  0.00    +0.000 A 
ENDROOT
BRANCH   1   9
ATOM      7  C   UNL     1       0.277  11.670  21.023  0.00  0.00    +0.000 C 
ATOM      8  O   UNL     1       1.466  11.988  21.156  0.00  0.00    +0.000 OA
ATOM      9  N   UNL     1      -0.142  10.498  20.392  0.00  0.00    +0.000 N 
ATOM     10  H   UNL     1      -1.138  10.385  20.255  0.00  0.00    +0.000 HD
BRANCH   7  11
ATOM     11  C   UNL     1      -0.856  12.659  21.483  0.00  0.00    +0.000 C 
ATOM     12  C   UNL     1      -2.393  12.405  21.354  0.00  0.00    +0.000 C 
ATOM     13  C   UNL     1      -2.545  13.031  22.729  0.00  0.00    +0.000 C 
ATOM     14  C   UNL     1      -3.039  14.463  22.842  0.00  0.00    +0.000 C 
ATOM     15  C   UNL     1      -4.382  13.873  23.328  0.00  0.00    +0.000 C 
ATOM     16  C   UNL     1      -3.627  12.563  23.664  0.00  0.00    +0.000 C 
ATOM     17  C   UNL     1      -1.092  12.758  23.037  0.00  0.00    +0.000 C 
BRANCH  11  18
ATOM     18  N   UNL     1      -0.600  14.041  21.000  0.00  0.00    +0.000 NA
ATOM     19  H   UNL     1      -0.331  14.090  20.018  0.00  0.00    +0.000 HD
ATOM     20  H   UNL     1       0.175  14.479  21.506  0.00  0.00    +0.000 HD
ENDBRANCH  11  18
ENDBRANCH   7  11
ENDBRANCH   1   9
BRANCH   4  21
ATOM     21  C   UNL     1       3.523   6.806  17.893  0.00  0.00    +0.000 C 
BRANCH  21  22
ATOM     22  N   UNL     1       3.894   5.616  18.654  0.00  0.00    +0.000 N 
ATOM     23  C   UNL     1       5.156   5.304  19.085  0.00  0.00    +0.000 A 
ATOM     24  N   UNL     1       5.302   4.013  19.281  0.00  0.00    +0.000 NA
ATOM     25  C   UNL     1       4.079   3.463  18.993  0.00  0.00    +0.000 A 
ATOM     26  C   UNL     1       3.695   2.114  18.941  0.00  0.00    +0.000 A 
ATOM     27  C   UNL     1       2.371   1.799  18.612  0.00  0.00    +0.000 A 
ATOM     28  C   UNL     1       1.436   2.809  18.382  0.00  0.00    +0.000 A 
ATOM     29  C   UNL     1       1.802   4.161  18.416  0.00  0.00    +0.000 A 
ATOM     30  C   UNL     1       3.146   4.453  18.688  0.00  0.00    +0.000 A 
ENDBRANCH  21  22
ENDBRANCH   4  21
TORSDOF 5
ENDMDL
MODEL 6
REMARK VINA RESULT:      -8.2      5.787      8.712
REMARK  Name = 
REMARK  5 active torsions:
REMARK  status: ('A' for Active; 'I' for Inactive)
REMARK    1  A    between atoms: N_1  and  C_2
REMARK    2  A    between atoms: C_2  and  C_3
REMARK    3  A    between atoms: N_5  and  C_6
REMARK    4  A    between atoms: C_9  and  C_10
REMARK    5  A    between atoms: C_10  and  N_11
REMARK                            x       y       z     vdW  Elec       q    Type
REMARK                         _______ _______ _______ _____ _____    ______ ____
ROOT
ATOM      1  C   UNL     1       8.002   7.244  18.485  0.00  0.00    +0.000 A 
ATOM      2  C   UNL     1       7.464   7.087  17.205  0.00  0.00    +0.000 A 
ATOM      3  C   UNL     1       6.617   6.012  16.898  0.00  0.00    +0.000 A 
ATOM      4  C   UNL     1       6.292   5.054  17.862  0.00  0.00    +0.000 A 
ATOM      5  C   UNL     1       6.861   5.182  19.136  0.00  0.00    +0.000 A 
ATOM      6  C   UNL     1       7.705   6.267  19.441  0.00  0.00    +0.000 A 
ENDROOT
BRANCH   1   9
ATOM      7  C   UNL     1       8.626   9.677  18.492  0.00  0.00    +0.000 C 
ATOM      8  O   UNL     1       7.726  10.051  17.729  0.00  0.00    +0.000 OA
ATOM      9  N   UNL     1       8.808   8.349  18.875  0.00  0.00    +0.000 N 
ATOM     10  H   UNL     1       9.516   8.169  19.577  0.00  0.00    +0.000 HD
BRANCH   7  11
ATOM     11  C   UNL     1       9.571  10.736  19.169  0.00  0.00    +0.000 C 
ATOM     12  C   UNL     1      11.024  11.085  18.708  0.00  0.00    +0.000 C 
ATOM     13  C   UNL     1      10.696  12.539  18.994  0.00  0.00    +0.000 C 
ATOM     14  C   UNL     1      11.210  13.179  20.272  0.00  0.00    +0.000 C 
ATOM     15  C   UNL     1      12.231  13.929  19.388  0.00  0.00    +0.000 C 
ATOM     16  C   UNL     1      11.316  13.636  18.172  0.00  0.00    +0.000 C 
ATOM     17  C   UNL     1       9.217  12.247  18.895  0.00  0.00    +0.000 C 
BRANCH  11  18
ATOM     18  N   UNL     1       9.611  10.566  20.645  0.00  0.00    +0.000 NA
ATOM     19  H   UNL     1      10.433  10.977  21.084  0.00  0.00    +0.000 HD
ATOM     20  H   UNL     1       9.640   9.577  20.908  0.00  0.00    +0.000 HD
ENDBRANCH  11  18
ENDBRANCH   7  11
ENDBRANCH   1   9
BRANCH   4  21
ATOM     21  C   UNL     1       5.281   3.975  17.555  0.00  0.00    +0.000 C 
BRANCH  21  22
ATOM     22  N   UNL     1       3.916   4.224  18.008  0.00  0.00    +0.000 N 
ATOM     23  C   UNL     1       3.125   5.275  17.625  0.00  0.00    +0.000 A 
ATOM     24  N   UNL     1       2.195   5.539  18.515  0.00  0.00    +0.000 NA
ATOM     25  C   UNL     1       2.368   4.606  19.506  0.00  0.00    +0.000 A 
ATOM     26  C   UNL     1       1.714   4.483  20.741  0.00  0.00    +0.000 A 
ATOM     27  C   UNL     1       2.076   3.436  21.598  0.00  0.00    +0.000 A 
ATOM     28  C   UNL     1       3.040   2.504  21.213  0.00  0.00    +0.000 A 
ATOM     29  C   UNL     1       3.714   2.617  19.990  0.00  0.00    +0.000 A 
ATOM     30  C   UNL     1       3.379   3.706  19.173  0.00  0.00    +0.000 A 
ENDBRANCH  21  22
ENDBRANCH   4  21
TORSDOF 5
ENDMDL
MODEL 7
REMARK VINA RESULT:      -8.1      1.671      3.102
REMARK  Name = 
REMARK  5 active torsions:
REMARK  status: ('A' for Active; 'I' for Inactive)
REMARK    1  A    between atoms: N_1  and  C_2
REMARK    2  A    between atoms: C_2  and  C_3
REMARK    3  A    between atoms: N_5  and  C_6
REMARK    4  A    between atoms: C_9  and  C_10
REMARK    5  A    between atoms: C_10  and  N_11
REMARK                            x       y       z     vdW  Elec       q    Type
REMARK                         _______ _______ _______ _____ _____    ______ ____
ROOT
ATOM      1  C   UNL     1       0.749   9.461  19.897  0.00  0.00    +0.000 A 
ATOM      2  C   UNL     1       1.309   8.370  20.566  0.00  0.00    +0.000 A 
ATOM      3  C   UNL     1       2.182   7.486  19.914  0.00  0.00    +0.000 A 
ATOM      4  C   UNL     1       2.511   7.662  18.567  0.00  0.00    +0.000 A 
ATOM      5  C   UNL     1       1.920   8.730  17.879  0.00  0.00    +0.000 A 
ATOM      6  C   UNL     1       1.052   9.619  18.540  0.00  0.00    +0.000 A 
ENDROOT
BRANCH   1   9
ATOM      7  C   UNL     1       0.343  11.595  21.158  0.00  0.00    +0.000 C 
ATOM      8  O   UNL     1       1.533  11.916  21.272  0.00  0.00    +0.000 OA
ATOM      9  N   UNL     1      -0.084  10.430  20.521  0.00  0.00    +0.000 N 
ATOM     10  H   UNL     1      -1.082  10.316  20.402  0.00  0.00    +0.000 HD
BRANCH   7  11
ATOM     11  C   UNL     1      -0.783  12.576  21.651  0.00  0.00    +0.000 C 
ATOM     12  C   UNL     1      -1.509  12.505  23.033  0.00  0.00    +0.000 C 
ATOM     13  C   UNL     1      -1.436  14.021  23.076  0.00  0.00    +0.000 C 
ATOM     14  C   UNL     1      -2.674  14.835  22.743  0.00  0.00    +0.000 C 
ATOM     15  C   UNL     1      -2.786  15.130  24.255  0.00  0.00    +0.000 C 
ATOM     16  C   UNL     1      -1.292  14.740  24.390  0.00  0.00    +0.000 C 
ATOM     17  C   UNL     1      -0.303  14.015  22.076  0.00  0.00    +0.000 C 
BRANCH  11  18
ATOM     18  N   UNL     1      -1.833  12.763  20.616  0.00  0.00    +0.000 NA
ATOM     19  H   UNL     1      -2.262  11.893  20.303  0.00  0.00    +0.000 HD
ATOM     20  H   UNL     1      -1.451  13.187  19.765  0.00  0.00    +0.000 HD
ENDBRANCH  11  18
ENDBRANCH   7  11
ENDBRANCH   1   9
BRANCH   4  21
ATOM     21  C   UNL     1       3.547   6.778  17.914  0.00  0.00    +0.000 C 
BRANCH  21  22
ATOM     22  N   UNL     1       3.931   5.581  18.655  0.00  0.00    +0.000 N 
ATOM     23  C   UNL     1       5.197   5.279  19.085  0.00  0.00    +0.000 A 
ATOM     24  N   UNL     1       5.360   3.986  19.259  0.00  0.00    +0.000 NA
ATOM     25  C   UNL     1       4.145   3.425  18.957  0.00  0.00    +0.000 A 
ATOM     26  C   UNL     1       3.781   2.072  18.880  0.00  0.00    +0.000 A 
ATOM     27  C   UNL     1       2.462   1.745  18.542  0.00  0.00    +0.000 A 
ATOM     28  C   UNL     1       1.514   2.745  18.326  0.00  0.00    +0.000 A 
ATOM     29  C   UNL     1       1.861   4.101  18.385  0.00  0.00    +0.000 A 
ATOM     30  C   UNL     1       3.200   4.407  18.667  0.00  0.00    +0.000 A 
ENDBRANCH  21  22
ENDBRANCH   4  21
TORSDOF 5
ENDMDL
MODEL 8
REMARK VINA RESULT:      -8.1      0.897      1.503
REMARK  Name = 
REMARK  5 active torsions:
REMARK  status: ('A' for Active; 'I' for Inactive)
REMARK    1  A    between atoms: N_1  and  C_2
REMARK    2  A    between atoms: C_2  and  C_3
REMARK    3  A    between atoms: N_5  and  C_6
REMARK    4  A    between atoms: C_9  and  C_10
REMARK    5  A    between atoms: C_10  and  N_11
REMARK                            x       y       z     vdW  Elec       q    Type
REMARK                         _______ _______ _______ _____ _____    ______ ____
ROOT
ATOM      1  C   UNL     1       1.510   8.628  20.010  0.00  0.00    +0.000 A 
ATOM      2  C   UNL     1       1.709   7.345  20.526  0.00  0.00    +0.000 A 
ATOM      3  C   UNL     1       2.217   6.309  19.728  0.00  0.00    +0.000 A 
ATOM      4  C   UNL     1       2.529   6.524  18.383  0.00  0.00    +0.000 A 
ATOM      5  C   UNL     1       2.293   7.797  17.847  0.00  0.00    +0.000 A 
ATOM      6  C   UNL     1       1.791   8.835  18.654  0.00  0.00    +0.000 A 
ENDROOT
BRANCH   1   9
ATOM      7  C   UNL     1      -0.128  10.434  20.612  0.00  0.00    +0.000 C 
ATOM      8  O   UNL     1      -0.951  10.174  19.726  0.00  0.00    +0.000 OA
ATOM      9  N   UNL     1       1.066   9.734  20.785  0.00  0.00    +0.000 N 
ATOM     10  H   UNL     1       1.619   9.969  21.599  0.00  0.00    +0.000 HD
BRANCH   7  11
ATOM     11  C   UNL     1      -0.454  11.535  21.687  0.00  0.00    +0.000 C 
ATOM     12  C   UNL     1       0.135  12.983  21.713  0.00  0.00    +0.000 C 
ATOM     13  C   UNL     1      -1.244  13.466  22.124  0.00  0.00    +0.000 C 
ATOM     14  C   UNL     1      -1.507  13.810  23.580  0.00  0.00    +0.000 C 
ATOM     15  C   UNL     1      -1.481  15.293  23.148  0.00  0.00    +0.000 C 
ATOM     16  C   UNL     1      -1.737  14.822  21.694  0.00  0.00    +0.000 C 
ATOM     17  C   UNL     1      -1.873  12.210  21.570  0.00  0.00    +0.000 C 
BRANCH  11  18
ATOM     18  N   UNL     1      -0.349  10.996  23.068  0.00  0.00    +0.000 NA
ATOM     19  H   UNL     1      -1.239  10.954  23.562  0.00  0.00    +0.000 HD
ATOM     20  H   UNL     1       0.250  11.584  23.656  0.00  0.00    +0.000 HD
ENDBRANCH  11  18
ENDBRANCH   7  11
ENDBRANCH   1   9
BRANCH   4  21
ATOM     21  C   UNL     1       3.191   5.437  17.571  0.00  0.00    +0.000 C 
BRANCH  21  22
ATOM     22  N   UNL     1       4.517   5.018  18.016  0.00  0.00    +0.000 N 
ATOM     23  C   UNL     1       4.778   4.057  18.957  0.00  0.00    +0.000 A 
ATOM     24  N   UNL     1       5.955   4.226  19.516  0.00  0.00    +0.000 NA
ATOM     25  C   UNL     1       6.496   5.324  18.897  0.00  0.00    +0.000 A 
ATOM     26  C   UNL     1       7.692   6.004  19.169  0.00  0.00    +0.000 A 
ATOM     27  C   UNL     1       8.030   7.118  18.391  0.00  0.00    +0.000 A 
ATOM     28  C   UNL     1       7.212   7.521  17.335  0.00  0.00    +0.000 A 
ATOM     29  C   UNL     1       6.007   6.864  17.055  0.00  0.00    +0.000 A 
ATOM     30  C   UNL     1       5.659   5.788  17.883  0.00  0.00    +0.000 A 
ENDBRANCH  21  22
ENDBRANCH   4  21
TORSDOF 5
ENDMDL
MODEL 9
REMARK VINA RESULT:      -8.0      2.929      3.923
REMARK  Name = 
REMARK  5 active torsions:
REMARK  status: ('A' for Active; 'I' for Inactive)
REMARK    1  A    between atoms: N_1  and  C_2
REMARK    2  A    between atoms: C_2  and  C_3
REMARK    3  A    between atoms: N_5  and  C_6
REMARK    4  A    between atoms: C_9  and  C_10
REMARK    5  A    between atoms: C_10  and  N_11
REMARK                            x       y       z     vdW  Elec       q    Type
REMARK                         _______ _______ _______ _____ _____    ______ ____
ROOT
ATOM      1  C   UNL     1       2.591   6.917  18.516  0.00  0.00    +0.000 A 
ATOM      2  C   UNL     1       2.172   5.586  18.584  0.00  0.00    +0.000 A 
ATOM      3  C   UNL     1       2.851   4.573  17.891  0.00  0.00    +0.000 A 
ATOM      4  C   UNL     1       3.964   4.865  17.097  0.00  0.00    +0.000 A 
ATOM      5  C   UNL     1       4.365   6.203  16.991  0.00  0.00    +0.000 A 
ATOM      6  C   UNL     1       3.685   7.215  17.695  0.00  0.00    +0.000 A 
ENDROOT
BRANCH   1   9
ATOM      7  C   UNL     1       1.543   9.190  18.728  0.00  0.00    +0.000 C 
ATOM      8  O   UNL     1       1.642   9.498  17.534  0.00  0.00    +0.000 OA
ATOM      9  N   UNL     1       1.989   7.976  19.250  0.00  0.00    +0.000 N 
ATOM     10  H   UNL     1       1.772   7.789  20.221  0.00  0.00    +0.000 HD
BRANCH   7  11
ATOM     11  C   UNL     1       0.788  10.144  19.725  0.00  0.00    +0.000 C 
ATOM     12  C   UNL     1      -0.643   9.901  20.307  0.00  0.00    +0.000 C 
ATOM     13  C   UNL     1      -0.120  10.423  21.634  0.00  0.00    +0.000 C 
ATOM     14  C   UNL     1      -0.453  11.843  22.058  0.00  0.00    +0.000 C 
ATOM     15  C   UNL     1      -1.440  11.221  23.071  0.00  0.00    +0.000 C 
ATOM     16  C   UNL     1      -0.663   9.887  22.931  0.00  0.00    +0.000 C 
ATOM     17  C   UNL     1       1.301  10.126  21.215  0.00  0.00    +0.000 C 
BRANCH  11  18
ATOM     18  N   UNL     1       0.840  11.558  19.270  0.00  0.00    +0.000 NA
ATOM     19  H   UNL     1      -0.048  12.050  19.353  0.00  0.00    +0.000 HD
ATOM     20  H   UNL     1       1.085  11.625  18.278  0.00  0.00    +0.000 HD
ENDBRANCH  11  18
ENDBRANCH   7  11
ENDBRANCH   1   9
BRANCH   4  21
ATOM     21  C   UNL     1       4.759   3.750  16.460  0.00  0.00    +0.000 C 
BRANCH  21  22
ATOM     22  N   UNL     1       6.030   4.132  15.852  0.00  0.00    +0.000 N 
ATOM     23  C   UNL     1       6.931   5.023  16.375  0.00  0.00    +0.000 A 
ATOM     24  N   UNL     1       7.696   5.548  15.445  0.00  0.00    +0.000 NA
ATOM     25  C   UNL     1       7.298   4.957  14.273  0.00  0.00    +0.000 A 
ATOM     26  C   UNL     1       7.711   5.217  12.957  0.00  0.00    +0.000 A 
ATOM     27  C   UNL     1       7.147   4.474  11.912  0.00  0.00    +0.000 A 
ATOM     28  C   UNL     1       6.222   3.464  12.176  0.00  0.00    +0.000 A 
ATOM     29  C   UNL     1       5.788   3.199  13.481  0.00  0.00    +0.000 A 
ATOM     30  C   UNL     1       6.320   3.993  14.506  0.00  0.00    +0.000 A 
ENDBRANCH  21  22
ENDBRANCH   4  21
TORSDOF 5
ENDMDL
