MODEL 1
REMARK VINA RESULT:      -9.3      0.000      0.000
REMARK  Name = 
REMARK  2 active torsions:
REMARK  status: ('A' for Active; 'I' for Inactive)
REMARK    1  A    between atoms: C_6  and  C_7
REMARK    2  A    between atoms: N_11  and  C_12
REMARK                            x       y       z     vdW  Elec       q    Type
REMARK                         _______ _______ _______ _____ _____    ______ ____
ROOT
ATOM      1  C   UNL     1       2.402   5.577  20.195  0.00  0.00    +0.000 A 
ATOM      2  C   UNL     1       1.756   4.494  20.753  0.00  0.00    +0.000 A 
ATOM      3  S   UNL     1       2.705   3.081  20.541  0.00  0.00    +0.000 S 
ATOM      4  C   UNL     1       3.909   4.009  19.736  0.00  0.00    +0.000 A 
ATOM      5  N   UNL     1       5.034   3.430  19.255  0.00  0.00    +0.000 N 
ATOM      6  N   UNL     1       3.627   5.295  19.639  0.00  0.00    +0.000 NA
ATOM      7  H   UNL     1       5.235   2.470  19.506  0.00  0.00    +0.000 HD
ENDROOT
BRANCH   1  13
ATOM      8  O   UNL     1      -1.061  11.749  21.920  0.00  0.00    +0.000 OA
ATOM      9  C   UNL     1      -0.412  10.796  21.500  0.00  0.00    +0.000 C 
ATOM     10  C   UNL     1      -0.249   9.435  22.208  0.00  0.00    +0.000 C 
ATOM     11  C   UNL     1       0.598   8.665  21.237  0.00  0.00    +0.000 A 
ATOM     12  C   UNL     1       1.091   7.379  21.267  0.00  0.00    +0.000 A 
ATOM     13  C   UNL     1       1.867   6.931  20.174  0.00  0.00    +0.000 A 
ATOM     14  C   UNL     1       2.126   7.788  19.074  0.00  0.00    +0.000 A 
ATOM     15  C   UNL     1       1.634   9.091  19.061  0.00  0.00    +0.000 A 
ATOM     16  C   UNL     1       0.880   9.477  20.151  0.00  0.00    +0.000 A 
ATOM     17  N   UNL     1       0.310  10.731  20.318  0.00  0.00    +0.000 N 
ATOM     18  C   UNL     1       0.437  11.733  19.282  0.00  0.00    +0.000 C 
ATOM     19  C   UNL     1       1.709  11.515  18.451  0.00  0.00    +0.000 C 
ATOM     20  C   UNL     1       1.812  10.068  17.935  0.00  0.00    +0.000 C 
ENDBRANCH   1  13
BRANCH   5  21
ATOM     21  C   UNL     1       5.733   3.918  18.135  0.00  0.00    +0.000 A 
ATOM     22  C   UNL     1       6.625   4.994  18.281  0.00  0.00    +0.000 A 
ATOM     23  C   UNL     1       7.248   5.564  17.167  0.00  0.00    +0.000 A 
ATOM     24  C   UNL     1       6.984   5.065  15.897  0.00  0.00    +0.000 A 
ATOM     25  C   UNL     1       6.083   4.007  15.735  0.00  0.00    +0.000 A 
ATOM     26  C   UNL     1       5.486   3.428  16.844  0.00  0.00    +0.000 A 
ATOM     27  O   UNL     1       5.731   3.508  14.504  0.00  0.00    +0.000 OA
ATOM     28  C   UNL     1       6.069   4.430  13.462  0.00  0.00    +0.000 C 
ATOM     29  C   UNL     1       7.497   4.923  13.641  0.00  0.00    +0.000 C 
ATOM     30  O   UNL     1       7.624   5.678  14.851  0.00  0.00    +0.000 OA
ENDBRANCH   5  21
TORSDOF 2
ENDMDL
MODEL 2
REMARK VINA RESULT:      -9.2      0.823      2.036
REMARK  Name = 
REMARK  2 active torsions:
REMARK  status: ('A' for Active; 'I' for Inactive)
REMARK    1  A    between atoms: C_6  and  C_7
REMARK    2  A    between atoms: N_11  and  C_12
REMARK                            x       y       z     vdW  Elec       q    Type
REMARK                         _______ _______ _______ _____ _____    ______ ____
ROOT
ATOM      1  C   UNL     1       2.400   5.604  20.165  0.00  0.00    +0.000 A 
ATOM      2  C   UNL     1       1.685   4.530  20.649  0.00  0.00    +0.000 A 
ATOM      3  S   UNL     1       2.558   3.080  20.373  0.00  0.00    +0.000 S 
ATOM      4  C   UNL     1       3.827   3.982  19.642  0.00  0.00    +0.000 A 
ATOM      5  N   UNL     1       4.927   3.369  19.148  0.00  0.00    +0.000 N 
ATOM      6  N   UNL     1       3.618   5.286  19.614  0.00  0.00    +0.000 NA
ATOM      7  H   UNL     1       5.071   2.386  19.347  0.00  0.00    +0.000 HD
ENDROOT
BRANCH   1  13
ATOM      8  O   UNL     1       0.828  12.506  18.446  0.00  0.00    +0.000 OA
ATOM      9  C   UNL     1       1.006  11.371  18.877  0.00  0.00    +0.000 C 
ATOM     10  C   UNL     1       1.656  10.205  18.105  0.00  0.00    +0.000 C 
ATOM     11  C   UNL     1       1.643   9.098  19.119  0.00  0.00    +0.000 A 
ATOM     12  C   UNL     1       2.089   7.796  19.064  0.00  0.00    +0.000 A 
ATOM     13  C   UNL     1       1.941   6.985  20.212  0.00  0.00    +0.000 A 
ATOM     14  C   UNL     1       1.348   7.505  21.390  0.00  0.00    +0.000 A 
ATOM     15  C   UNL     1       0.888   8.819  21.430  0.00  0.00    +0.000 A 
ATOM     16  C   UNL     1       1.060   9.569  20.284  0.00  0.00    +0.000 A 
ATOM     17  N   UNL     1       0.665  10.890  20.133  0.00  0.00    +0.000 N 
ATOM     18  C   UNL     1       0.070  11.604  21.241  0.00  0.00    +0.000 C 
ATOM     19  C   UNL     1      -0.637  10.643  22.207  0.00  0.00    +0.000 C 
ATOM     20  C   UNL     1       0.283   9.484  22.633  0.00  0.00    +0.000 C 
ENDBRANCH   1  13
BRANCH   5  21
ATOM     21  C   UNL     1       5.675   3.879  18.069  0.00  0.00    +0.000 A 
ATOM     22  C   UNL     1       6.595   4.917  18.285  0.00  0.00    +0.000 A 
ATOM     23  C   UNL     1       7.269   5.511  17.213  0.00  0.00    +0.000 A 
ATOM     24  C   UNL     1       7.026   5.073  15.917  0.00  0.00    +0.000 A 
ATOM     25  C   UNL     1       6.096   4.053  15.685  0.00  0.00    +0.000 A 
ATOM     26  C   UNL     1       5.450   3.450  16.752  0.00  0.00    +0.000 A 
ATOM     27  O   UNL     1       5.765   3.617  14.425  0.00  0.00    +0.000 OA
ATOM     28  C   UNL     1       6.163   4.569  13.433  0.00  0.00    +0.000 C 
ATOM     29  C   UNL     1       7.600   5.006  13.672  0.00  0.00    +0.000 C 
ATOM     30  O   UNL     1       7.716   5.707  14.915  0.00  0.00    +0.000 OA
ENDBRANCH   5  21
TORSDOF 2
ENDMDL
MODEL 3
REMARK VINA RESULT:      -8.4      3.149      8.446
REMARK  Name = 
REMARK  2 active torsions:
REMARK  status: ('A' for Active; 'I' for Inactive)
REMARK    1  A    between atoms: C_6  and  C_7
REMARK    2  A    between atoms: N_11  and  C_12
REMARK                            x       y       z     vdW  Elec       q    Type
REMARK                         _______ _______ _______ _____ _____    ______ ____
ROOT
ATOM      1  C   UNL     1       0.933   8.694  20.879  0.00  0.00    +0.000 A 
ATOM      2  C   UNL     1       0.193   8.616  22.040  0.00  0.00    +0.000 A 
ATOM      3  S   UNL     1      -0.399  10.171  22.455  0.00  0.00    +0.000 S 
ATOM      4  C   UNL     1       0.358  10.834  21.060  0.00  0.00    +0.000 A 
ATOM      5  N   UNL     1       0.275  12.155  20.780  0.00  0.00    +0.000 N 
ATOM      6  N   UNL     1       1.004   9.949  20.323  0.00  0.00    +0.000 NA
ATOM      7  H   UNL     1      -0.364  12.730  21.315  0.00  0.00    +0.000 HD
ENDROOT
BRANCH   1  13
ATOM      8  O   UNL     1       4.907   4.515  16.429  0.00  0.00    +0.000 OA
ATOM      9  C   UNL     1       4.225   5.083  17.277  0.00  0.00    +0.000 C 
ATOM     10  C   UNL     1       3.900   6.590  17.311  0.00  0.00    +0.000 C 
ATOM     11  C   UNL     1       3.021   6.704  18.521  0.00  0.00    +0.000 A 
ATOM     12  C   UNL     1       2.385   7.782  19.097  0.00  0.00    +0.000 A 
ATOM     13  C   UNL     1       1.603   7.563  20.254  0.00  0.00    +0.000 A 
ATOM     14  C   UNL     1       1.477   6.261  20.803  0.00  0.00    +0.000 A 
ATOM     15  C   UNL     1       2.135   5.181  20.220  0.00  0.00    +0.000 A 
ATOM     16  C   UNL     1       2.883   5.449  19.091  0.00  0.00    +0.000 A 
ATOM     17  N   UNL     1       3.608   4.507  18.377  0.00  0.00    +0.000 N 
ATOM     18  C   UNL     1       3.574   3.113  18.766  0.00  0.00    +0.000 C 
ATOM     19  C   UNL     1       3.287   2.962  20.266  0.00  0.00    +0.000 C 
ATOM     20  C   UNL     1       2.040   3.758  20.691  0.00  0.00    +0.000 C 
ENDBRANCH   1  13
BRANCH   5  21
ATOM     21  C   UNL     1       1.275  12.859  20.081  0.00  0.00    +0.000 A 
ATOM     22  C   UNL     1       1.386  12.718  18.688  0.00  0.00    +0.000 A 
ATOM     23  C   UNL     1       2.435  13.321  17.989  0.00  0.00    +0.000 A 
ATOM     24  C   UNL     1       3.385  14.068  18.676  0.00  0.00    +0.000 A 
ATOM     25  C   UNL     1       3.298  14.199  20.067  0.00  0.00    +0.000 A 
ATOM     26  C   UNL     1       2.242  13.621  20.753  0.00  0.00    +0.000 A 
ATOM     27  O   UNL     1       4.236  14.871  20.812  0.00  0.00    +0.000 OA
ATOM     28  C   UNL     1       5.449  15.047  20.072  0.00  0.00    +0.000 C 
ATOM     29  C   UNL     1       5.141  15.580  18.682  0.00  0.00    +0.000 C 
ATOM     30  O   UNL     1       4.390  14.623  17.927  0.00  0.00    +0.000 OA
ENDBRANCH   5  21
TORSDOF 2
ENDMDL
MODEL 4
REMARK VINA RESULT:      -8.3      3.243      8.258
REMARK  Name = 
REMARK  2 active torsions:
REMARK  status: ('A' for Active; 'I' for Inactive)
REMARK    1  A    between atoms: C_6  and  C_7
REMARK    2  A    between atoms: N_11  and  C_12
REMARK                            x       y       z     vdW  Elec       q    Type
REMARK                         _______ _______ _______ _____ _____    ______ ____
ROOT
ATOM      1  C   UNL     1       0.997   8.569  20.847  0.00  0.00    +0.000 A 
ATOM      2  C   UNL     1       0.187   8.473  21.959  0.00  0.00    +0.000 A 
ATOM      3  S   UNL     1      -0.500  10.005  22.310  0.00  0.00    +0.000 S 
ATOM      4  C   UNL     1       0.317  10.682  20.955  0.00  0.00    +0.000 A 
ATOM      5  N   UNL     1       0.193  11.995  20.648  0.00  0.00    +0.000 N 
ATOM      6  N   UNL     1       1.048   9.819  20.276  0.00  0.00    +0.000 NA
ATOM      7  H   UNL     1      -0.505  12.547  21.132  0.00  0.00    +0.000 HD
ENDROOT
BRANCH   1  13
ATOM      8  O   UNL     1       3.889   1.999  19.609  0.00  0.00    +0.000 OA
ATOM      9  C   UNL     1       3.472   3.152  19.671  0.00  0.00    +0.000 C 
ATOM     10  C   UNL     1       2.486   3.698  20.724  0.00  0.00    +0.000 C 
ATOM     11  C   UNL     1       2.369   5.143  20.338  0.00  0.00    +0.000 A 
ATOM     12  C   UNL     1       1.651   6.185  20.884  0.00  0.00    +0.000 A 
ATOM     13  C   UNL     1       1.757   7.461  20.286  0.00  0.00    +0.000 A 
ATOM     14  C   UNL     1       2.586   7.660  19.153  0.00  0.00    +0.000 A 
ATOM     15  C   UNL     1       3.297   6.597  18.601  0.00  0.00    +0.000 A 
ATOM     16  C   UNL     1       3.161   5.373  19.225  0.00  0.00    +0.000 A 
ATOM     17  N   UNL     1       3.785   4.202  18.821  0.00  0.00    +0.000 N 
ATOM     18  C   UNL     1       4.700   4.214  17.701  0.00  0.00    +0.000 C 
ATOM     19  C   UNL     1       4.361   5.343  16.718  0.00  0.00    +0.000 C 
ATOM     20  C   UNL     1       4.233   6.701  17.432  0.00  0.00    +0.000 C 
ENDBRANCH   1  13
BRANCH   5  21
ATOM     21  C   UNL     1       1.205  12.734  20.004  0.00  0.00    +0.000 A 
ATOM     22  C   UNL     1       1.374  12.623  18.615  0.00  0.00    +0.000 A 
ATOM     23  C   UNL     1       2.437  13.263  17.970  0.00  0.00    +0.000 A 
ATOM     24  C   UNL     1       3.341  14.016  18.709  0.00  0.00    +0.000 A 
ATOM     25  C   UNL     1       3.196  14.118  20.098  0.00  0.00    +0.000 A 
ATOM     26  C   UNL     1       2.126  13.504  20.729  0.00  0.00    +0.000 A 
ATOM     27  O   UNL     1       4.087  14.795  20.893  0.00  0.00    +0.000 OA
ATOM     28  C   UNL     1       5.325  15.012  20.207  0.00  0.00    +0.000 C 
ATOM     29  C   UNL     1       5.061  15.566  18.815  0.00  0.00    +0.000 C 
ATOM     30  O   UNL     1       4.363  14.608  18.013  0.00  0.00    +0.000 OA
ENDBRANCH   5  21
TORSDOF 2
ENDMDL
MODEL 5
REMARK VINA RESULT:      -8.1      4.247      6.151
REMARK  Name = 
REMARK  2 active torsions:
REMARK  status: ('A' for Active; 'I' for Inactive)
REMARK    1  A    between atoms: C_6  and  C_7
REMARK    2  A    between atoms: N_11  and  C_12
REMARK                            x       y       z     vdW  Elec       q    Type
REMARK                         _______ _______ _______ _____ _____    ______ ____
ROOT
ATOM      1  C   UNL     1      -0.459   9.881  20.143  0.00  0.00    +0.000 A 
ATOM      2  C   UNL     1      -0.403  10.356  21.436  0.00  0.00    +0.000 A 
ATOM      3  S   UNL     1       0.884   9.599  22.278  0.00  0.00    +0.000 S 
ATOM      4  C   UNL     1       1.284   8.704  20.865  0.00  0.00    +0.000 A 
ATOM      5  N   UNL     1       2.309   7.820  20.862  0.00  0.00    +0.000 N 
ATOM      6  N   UNL     1       0.512   8.960  19.825  0.00  0.00    +0.000 NA
ATOM      7  H   UNL     1       2.939   7.798  21.655  0.00  0.00    +0.000 HD
ENDROOT
BRANCH   1  13
ATOM      8  O   UNL     1      -4.247  10.730  13.980  0.00  0.00    +0.000 OA
ATOM      9  C   UNL     1      -3.734  10.671  15.094  0.00  0.00    +0.000 C 
ATOM     10  C   UNL     1      -2.471   9.866  15.463  0.00  0.00    +0.000 C 
ATOM     11  C   UNL     1      -2.295  10.190  16.917  0.00  0.00    +0.000 A 
ATOM     12  C   UNL     1      -1.347   9.800  17.837  0.00  0.00    +0.000 A 
ATOM     13  C   UNL     1      -1.448  10.292  19.159  0.00  0.00    +0.000 A 
ATOM     14  C   UNL     1      -2.501  11.170  19.522  0.00  0.00    +0.000 A 
ATOM     15  C   UNL     1      -3.462  11.547  18.587  0.00  0.00    +0.000 A 
ATOM     16  C   UNL     1      -3.315  11.041  17.311  0.00  0.00    +0.000 A 
ATOM     17  N   UNL     1      -4.170  11.301  16.250  0.00  0.00    +0.000 N 
ATOM     18  C   UNL     1      -5.287  12.205  16.419  0.00  0.00    +0.000 C 
ATOM     19  C   UNL     1      -5.759  12.238  17.879  0.00  0.00    +0.000 C 
ATOM     20  C   UNL     1      -4.592  12.500  18.850  0.00  0.00    +0.000 C 
ENDBRANCH   1  13
BRANCH   5  21
ATOM     21  C   UNL     1       2.338   6.677  20.040  0.00  0.00    +0.000 A 
ATOM     22  C   UNL     1       2.791   6.781  18.715  0.00  0.00    +0.000 A 
ATOM     23  C   UNL     1       2.729   5.685  17.848  0.00  0.00    +0.000 A 
ATOM     24  C   UNL     1       2.212   4.477  18.299  0.00  0.00    +0.000 A 
ATOM     25  C   UNL     1       1.738   4.365  19.611  0.00  0.00    +0.000 A 
ATOM     26  C   UNL     1       1.825   5.446  20.474  0.00  0.00    +0.000 A 
ATOM     27  O   UNL     1       1.159   3.219  20.100  0.00  0.00    +0.000 OA
ATOM     28  C   UNL     1       0.754   2.354  19.034  0.00  0.00    +0.000 C 
ATOM     29  C   UNL     1       1.885   2.198  18.028  0.00  0.00    +0.000 C 
ATOM     30  O   UNL     1       2.174   3.448  17.393  0.00  0.00    +0.000 OA
ENDBRANCH   5  21
TORSDOF 2
ENDMDL
MODEL 6
REMARK VINA RESULT:      -8.0      4.193      8.451
REMARK  Name = 
REMARK  2 active torsions:
REMARK  status: ('A' for Active; 'I' for Inactive)
REMARK    1  A    between atoms: C_6  and  C_7
REMARK    2  A    between atoms: N_11  and  C_12
REMARK                            x       y       z     vdW  Elec       q    Type
REMARK                         _______ _______ _______ _____ _____    ______ ____
ROOT
ATOM      1  C   UNL     1       1.133   9.869  18.761  0.00  0.00    +0.000 A 
ATOM      2  C   UNL     1      -0.238  10.005  18.815  0.00  0.00    +0.000 A 
ATOM      3  S   UNL     1      -0.657  11.668  18.800  0.00  0.00    +0.000 S 
ATOM      4  C   UNL     1       1.009  12.088  18.712  0.00  0.00    +0.000 A 
ATOM      5  N   UNL     1       1.404  13.382  18.677  0.00  0.00    +0.000 N 
ATOM      6  N   UNL     1       1.828  11.053  18.684  0.00  0.00    +0.000 NA
ATOM      7  H   UNL     1       0.705  14.104  18.550  0.00  0.00    +0.000 HD
ENDROOT
BRANCH   1  13
ATOM      8  O   UNL     1       3.396   3.169  20.506  0.00  0.00    +0.000 OA
ATOM      9  C   UNL     1       3.110   4.281  20.074  0.00  0.00    +0.000 C 
ATOM     10  C   UNL     1       2.051   5.233  20.666  0.00  0.00    +0.000 C 
ATOM     11  C   UNL     1       2.159   6.434  19.772  0.00  0.00    +0.000 A 
ATOM     12  C   UNL     1       1.494   7.640  19.769  0.00  0.00    +0.000 A 
ATOM     13  C   UNL     1       1.833   8.593  18.782  0.00  0.00    +0.000 A 
ATOM     14  C   UNL     1       2.837   8.309  17.821  0.00  0.00    +0.000 A 
ATOM     15  C   UNL     1       3.493   7.081  17.825  0.00  0.00    +0.000 A 
ATOM     16  C   UNL     1       3.127   6.188  18.812  0.00  0.00    +0.000 A 
ATOM     17  N   UNL     1       3.664   4.919  18.974  0.00  0.00    +0.000 N 
ATOM     18  C   UNL     1       4.728   4.462  18.107  0.00  0.00    +0.000 C 
ATOM     19  C   UNL     1       4.670   5.159  16.741  0.00  0.00    +0.000 C 
ATOM     20  C   UNL     1       4.597   6.690  16.884  0.00  0.00    +0.000 C 
ENDBRANCH   1  13
BRANCH   5  21
ATOM     21  C   UNL     1       2.639  13.824  19.189  0.00  0.00    +0.000 A 
ATOM     22  C   UNL     1       2.812  13.961  20.576  0.00  0.00    +0.000 A 
ATOM     23  C   UNL     1       3.991  14.499  21.101  0.00  0.00    +0.000 A 
ATOM     24  C   UNL     1       5.006  14.907  20.244  0.00  0.00    +0.000 A 
ATOM     25  C   UNL     1       4.839  14.795  18.859  0.00  0.00    +0.000 A 
ATOM     26  C   UNL     1       3.679  14.238  18.344  0.00  0.00    +0.000 A 
ATOM     27  O   UNL     1       5.776  15.236  17.957  0.00  0.00    +0.000 OA
ATOM     28  C   UNL     1       6.697  16.142  18.574  0.00  0.00    +0.000 C 
ATOM     29  C   UNL     1       7.201  15.561  19.887  0.00  0.00    +0.000 C 
ATOM     30  O   UNL     1       6.130  15.433  20.828  0.00  0.00    +0.000 OA
ENDBRANCH   5  21
TORSDOF 2
ENDMDL
MODEL 7
REMARK VINA RESULT:      -8.0      3.256      8.888
REMARK  Name = 
REMARK  2 active torsions:
REMARK  status: ('A' for Active; 'I' for Inactive)
REMARK    1  A    between atoms: C_6  and  C_7
REMARK    2  A    between atoms: N_11  and  C_12
REMARK                            x       y       z     vdW  Elec       q    Type
REMARK                         _______ _______ _______ _____ _____    ______ ____
ROOT
ATOM      1  C   UNL     1       0.528   9.145  21.264  0.00  0.00    +0.000 A 
ATOM      2  C   UNL     1      -0.167   9.010  22.447  0.00  0.00    +0.000 A 
ATOM      3  S   UNL     1      -0.801  10.531  22.924  0.00  0.00    +0.000 S 
ATOM      4  C   UNL     1      -0.118  11.256  21.522  0.00  0.00    +0.000 A 
ATOM      5  N   UNL     1      -0.260  12.580  21.280  0.00  0.00    +0.000 N 
ATOM      6  N   UNL     1       0.533  10.416  20.740  0.00  0.00    +0.000 NA
ATOM      7  H   UNL     1      -0.900  13.117  21.852  0.00  0.00    +0.000 HD
ENDROOT
BRANCH   1  13
ATOM      8  O   UNL     1       4.553   5.244  16.612  0.00  0.00    +0.000 OA
ATOM      9  C   UNL     1       3.867   5.761  17.488  0.00  0.00    +0.000 C 
ATOM     10  C   UNL     1       3.509   7.258  17.588  0.00  0.00    +0.000 C 
ATOM     11  C   UNL     1       2.638   7.302  18.809  0.00  0.00    +0.000 A 
ATOM     12  C   UNL     1       1.984   8.341  19.435  0.00  0.00    +0.000 A 
ATOM     13  C   UNL     1       1.217   8.056  20.588  0.00  0.00    +0.000 A 
ATOM     14  C   UNL     1       1.123   6.730  21.082  0.00  0.00    +0.000 A 
ATOM     15  C   UNL     1       1.800   5.690  20.449  0.00  0.00    +0.000 A 
ATOM     16  C   UNL     1       2.532   6.021  19.326  0.00  0.00    +0.000 A 
ATOM     17  N   UNL     1       3.271   5.126  18.567  0.00  0.00    +0.000 N 
ATOM     18  C   UNL     1       3.270   3.717  18.897  0.00  0.00    +0.000 C 
ATOM     19  C   UNL     1       2.999   3.496  20.392  0.00  0.00    +0.000 C 
ATOM     20  C   UNL     1       1.738   4.247  20.860  0.00  0.00    +0.000 C 
ENDBRANCH   1  13
BRANCH   5  21
ATOM     21  C   UNL     1       0.689  13.338  20.566  0.00  0.00    +0.000 A 
ATOM     22  C   UNL     1       2.060  13.128  20.787  0.00  0.00    +0.000 A 
ATOM     23  C   UNL     1       3.017  13.940  20.171  0.00  0.00    +0.000 A 
ATOM     24  C   UNL     1       2.612  14.970  19.331  0.00  0.00    +0.000 A 
ATOM     25  C   UNL     1       1.248  15.204  19.118  0.00  0.00    +0.000 A 
ATOM     26  C   UNL     1       0.304  14.380  19.711  0.00  0.00    +0.000 A 
ATOM     27  O   UNL     1       0.780  16.242  18.350  0.00  0.00    +0.000 OA
ATOM     28  C   UNL     1       1.795  17.232  18.153  0.00  0.00    +0.000 C 
ATOM     29  C   UNL     1       3.096  16.571  17.725  0.00  0.00    +0.000 C 
ATOM     30  O   UNL     1       3.604  15.732  18.768  0.00  0.00    +0.000 OA
ENDBRANCH   5  21
TORSDOF 2
ENDMDL
MODEL 8
REMARK VINA RESULT:      -7.9      3.978      8.636
REMARK  Name = 
REMARK  2 active torsions:
REMARK  status: ('A' for Active; 'I' for Inactive)
REMARK    1  A    between atoms: C_6  and  C_7
REMARK    2  A    between atoms: N_11  and  C_12
REMARK                            x       y       z     vdW  Elec       q    Type
REMARK                         _______ _______ _______ _____ _____    ______ ____
ROOT
ATOM      1  C   UNL     1       0.978  10.030  18.737  0.00  0.00    +0.000 A 
ATOM      2  C   UNL     1      -0.397  10.128  18.728  0.00  0.00    +0.000 A 
ATOM      3  S   UNL     1      -0.862  11.779  18.727  0.00  0.00    +0.000 S 
ATOM      4  C   UNL     1       0.794  12.245  18.727  0.00  0.00    +0.000 A 
ATOM      5  N   UNL     1       1.153  13.550  18.738  0.00  0.00    +0.000 N 
ATOM      6  N   UNL     1       1.642  11.234  18.718  0.00  0.00    +0.000 NA
ATOM      7  H   UNL     1       0.441  14.255  18.592  0.00  0.00    +0.000 HD
ENDROOT
BRANCH   1  13
ATOM      8  O   UNL     1       3.433   3.412  20.534  0.00  0.00    +0.000 OA
ATOM      9  C   UNL     1       3.114   4.511  20.093  0.00  0.00    +0.000 C 
ATOM     10  C   UNL     1       2.034   5.441  20.684  0.00  0.00    +0.000 C 
ATOM     11  C   UNL     1       2.103   6.634  19.776  0.00  0.00    +0.000 A 
ATOM     12  C   UNL     1       1.406   7.823  19.766  0.00  0.00    +0.000 A 
ATOM     13  C   UNL     1       1.712   8.774  18.766  0.00  0.00    +0.000 A 
ATOM     14  C   UNL     1       2.715   8.506  17.799  0.00  0.00    +0.000 A 
ATOM     15  C   UNL     1       3.403   7.295  17.811  0.00  0.00    +0.000 A 
ATOM     16  C   UNL     1       3.069   6.404  18.811  0.00  0.00    +0.000 A 
ATOM     17  N   UNL     1       3.641   5.152  18.982  0.00  0.00    +0.000 N 
ATOM     18  C   UNL     1       4.710   4.714  18.111  0.00  0.00    +0.000 C 
ATOM     19  C   UNL     1       4.622   5.394  16.737  0.00  0.00    +0.000 C 
ATOM     20  C   UNL     1       4.509   6.924  16.865  0.00  0.00    +0.000 C 
ENDBRANCH   1  13
BRANCH   5  21
ATOM     21  C   UNL     1       2.350  14.015  19.318  0.00  0.00    +0.000 A 
ATOM     22  C   UNL     1       3.386  14.490  18.498  0.00  0.00    +0.000 A 
ATOM     23  C   UNL     1       4.620  14.856  19.043  0.00  0.00    +0.000 A 
ATOM     24  C   UNL     1       4.830  14.747  20.413  0.00  0.00    +0.000 A 
ATOM     25  C   UNL     1       3.813  14.255  21.239  0.00  0.00    +0.000 A 
ATOM     26  C   UNL     1       2.582  13.918  20.698  0.00  0.00    +0.000 A 
ATOM     27  O   UNL     1       3.976  14.065  22.590  0.00  0.00    +0.000 OA
ATOM     28  C   UNL     1       5.364  14.044  22.941  0.00  0.00    +0.000 C 
ATOM     29  C   UNL     1       6.083  15.223  22.304  0.00  0.00    +0.000 C 
ATOM     30  O   UNL     1       6.067  15.115  20.877  0.00  0.00    +0.000 OA
ENDBRANCH   5  21
TORSDOF 2
ENDMDL
MODEL 9
REMARK VINA RESULT:      -7.9      4.097      5.989
REMARK  Name = 
REMARK  2 active torsions:
REMARK  status: ('A' for Active; 'I' for Inactive)
REMARK    1  A    between atoms: C_6  and  C_7
REMARK    2  A    between atoms: N_11  and  C_12
REMARK                            x       y       z     vdW  Elec       q    Type
REMARK                         _______ _______ _______ _____ _____    ______ ____
ROOT
ATOM      1  C   UNL     1      -0.384   9.926  20.076  0.00  0.00    +0.000 A 
ATOM      2  C   UNL     1      -0.228  10.543  21.299  0.00  0.00    +0.000 A 
ATOM      3  S   UNL     1       1.033   9.781  22.177  0.00  0.00    +0.000 S 
ATOM      4  C   UNL     1       1.289   8.695  20.868  0.00  0.00    +0.000 A 
ATOM      5  N   UNL     1       2.237   7.731  20.933  0.00  0.00    +0.000 N 
ATOM      6  N   UNL     1       0.491   8.894  19.835  0.00  0.00    +0.000 NA
ATOM      7  H   UNL     1       2.900   7.748  21.698  0.00  0.00    +0.000 HD
ENDROOT
BRANCH   1  13
ATOM      8  O   UNL     1      -4.200  10.608  13.910  0.00  0.00    +0.000 OA
ATOM      9  C   UNL     1      -3.684  10.576  15.022  0.00  0.00    +0.000 C 
ATOM     10  C   UNL     1      -2.406   9.801  15.401  0.00  0.00    +0.000 C 
ATOM     11  C   UNL     1      -2.232  10.151  16.850  0.00  0.00    +0.000 A 
ATOM     12  C   UNL     1      -1.275   9.792  17.774  0.00  0.00    +0.000 A 
ATOM     13  C   UNL     1      -1.383  10.304  19.087  0.00  0.00    +0.000 A 
ATOM     14  C   UNL     1      -2.451  11.168  19.439  0.00  0.00    +0.000 A 
ATOM     15  C   UNL     1      -3.421  11.513  18.500  0.00  0.00    +0.000 A 
ATOM     16  C   UNL     1      -3.267  10.989  17.232  0.00  0.00    +0.000 A 
ATOM     17  N   UNL     1      -4.129  11.216  16.170  0.00  0.00    +0.000 N 
ATOM     18  C   UNL     1      -5.262  12.102  16.327  0.00  0.00    +0.000 C 
ATOM     19  C   UNL     1      -5.731  12.150  17.788  0.00  0.00    +0.000 C 
ATOM     20  C   UNL     1      -4.568  12.449  18.751  0.00  0.00    +0.000 C 
ENDBRANCH   1  13
BRANCH   5  21
ATOM     21  C   UNL     1       2.133   6.501  20.254  0.00  0.00    +0.000 A 
ATOM     22  C   UNL     1       1.287   5.497  20.752  0.00  0.00    +0.000 A 
ATOM     23  C   UNL     1       1.248   4.233  20.157  0.00  0.00    +0.000 A 
ATOM     24  C   UNL     1       2.057   3.961  19.060  0.00  0.00    +0.000 A 
ATOM     25  C   UNL     1       2.920   4.946  18.566  0.00  0.00    +0.000 A 
ATOM     26  C   UNL     1       2.936   6.206  19.143  0.00  0.00    +0.000 A 
ATOM     27  O   UNL     1       3.789   4.723  17.525  0.00  0.00    +0.000 OA
ATOM     28  C   UNL     1       3.976   3.321  17.306  0.00  0.00    +0.000 C 
ATOM     29  C   UNL     1       2.630   2.613  17.263  0.00  0.00    +0.000 C 
ATOM     30  O   UNL     1       1.974   2.698  18.533  0.00  0.00    +0.000 OA
ENDBRANCH   5  21
TORSDOF 2
ENDMDL
