MODEL 1
REMARK VINA RESULT:      -9.8      0.000      0.000
REMARK  Name = 
REMARK  8 active torsions:
REMARK  status: ('A' for Active; 'I' for Inactive)
REMARK    1  A    between atoms: C_1  and  C_2
REMARK    2  A    between atoms: C_7  and  C_8
REMARK    3  A    between atoms: C_8  and  C_9
REMARK    4  A    between atoms: C_9  and  N_10
REMARK    5  A    between atoms: N_13  and  C_14
REMARK    6  A    between atoms: C_18  and  N_19
REMARK    7  A    between atoms: C_23  and  C_24
REMARK    8  A    between atoms: C_23  and  C_25
REMARK                            x       y       z     vdW  Elec       q    Type
REMARK                         _______ _______ _______ _____ _____    ______ ____
ROOT
ATOM      1  C   UNL     1       6.355   6.092  16.456  0.00  0.00    +0.000 A 
ATOM      2  C   UNL     1       6.892   5.348  15.403  0.00  0.00    +0.000 A 
ATOM      3  C   UNL     1       6.399   4.088  15.089  0.00  0.00    +0.000 A 
ATOM      4  C   UNL     1       5.382   3.533  15.851  0.00  0.00    +0.000 A 
ATOM      5  C   UNL     1       4.834   4.226  16.939  0.00  0.00    +0.000 A 
ATOM      6  C   UNL     1       5.313   5.529  17.207  0.00  0.00    +0.000 A 
ENDROOT
BRANCH   5   7
ATOM      7  N   UNL     1       3.958   3.561  17.847  0.00  0.00    +0.000 N 
ATOM      8  C   UNL     1       4.287   3.252  19.151  0.00  0.00    +0.000 C 
ATOM      9  O   UNL     1       5.371   3.151  19.704  0.00  0.00    +0.000 OA
ATOM     10  N   UNL     1       3.124   3.123  19.879  0.00  0.00    +0.000 N 
ATOM     11  C   UNL     1       1.985   3.545  19.120  0.00  0.00    +0.000 C 
ATOM     12  C   UNL     1       0.813   2.600  19.326  0.00  0.00    +0.000 C 
ATOM     13  C   UNL     1       2.583   3.478  17.702  0.00  0.00    +0.000 C 
ATOM     14  O   UNL     1       1.913   3.512  16.676  0.00  0.00    +0.000 OA
ATOM     15  H   UNL     1       3.181   3.087  20.888  0.00  0.00    +0.000 HD
BRANCH  11  16
ATOM     16  C   UNL     1       1.585   4.989  19.391  0.00  0.00    +0.000 C 
ATOM     17  C   UNL     1       2.625   6.078  19.613  0.00  0.00    +0.000 C 
ATOM     18  C   UNL     1       1.693   5.697  20.724  0.00  0.00    +0.000 C 
ENDBRANCH  11  16
ENDBRANCH   5   7
BRANCH   1  22
ATOM     19  N   UNL     1       8.124   8.934  17.955  0.00  0.00    +0.000 N 
ATOM     20  C   UNL     1       7.727   7.618  17.827  0.00  0.00    +0.000 C 
ATOM     21  O   UNL     1       8.205   6.761  18.575  0.00  0.00    +0.000 OA
ATOM     22  N   UNL     1       6.846   7.384  16.809  0.00  0.00    +0.000 N 
ATOM     23  H   UNL     1       7.380   9.600  17.802  0.00  0.00    +0.000 HD
ATOM     24  H   UNL     1       6.654   8.142  16.169  0.00  0.00    +0.000 HD
BRANCH  19  25
ATOM     25  C   UNL     1       9.067   9.253  19.029  0.00  0.00    +0.000 C 
BRANCH  25  26
ATOM     26  C   UNL     1       8.993  10.717  19.525  0.00  0.00    +0.000 C 
BRANCH  26  33
ATOM     27  C   UNL     1       8.150  12.734  17.283  0.00  0.00    +0.000 C 
ATOM     28  C   UNL     1       9.549  12.571  17.797  0.00  0.00    +0.000 A 
ATOM     29  C   UNL     1      10.549  13.362  17.221  0.00  0.00    +0.000 A 
ATOM     30  N   UNL     1      11.856  13.329  17.554  0.00  0.00    +0.000 NA
ATOM     31  C   UNL     1      12.200  12.455  18.515  0.00  0.00    +0.000 A 
ATOM     32  C   UNL     1      11.294  11.625  19.160  0.00  0.00    +0.000 A 
ATOM     33  C   UNL     1       9.934  11.670  18.807  0.00  0.00    +0.000 A 
ENDBRANCH  26  33
ENDBRANCH  25  26
ENDBRANCH  19  25
ENDBRANCH   1  22
TORSDOF 6
ENDMDL
MODEL 2
REMARK VINA RESULT:      -9.5      1.205      1.468
REMARK  Name = 
REMARK  8 active torsions:
REMARK  status: ('A' for Active; 'I' for Inactive)
REMARK    1  A    between atoms: C_1  and  C_2
REMARK    2  A    between atoms: C_7  and  C_8
REMARK    3  A    between atoms: C_8  and  C_9
REMARK    4  A    between atoms: C_9  and  N_10
REMARK    5  A    between atoms: N_13  and  C_14
REMARK    6  A    between atoms: C_18  and  N_19
REMARK    7  A    between atoms: C_23  and  C_24
REMARK    8  A    between atoms: C_23  and  C_25
REMARK                            x       y       z     vdW  Elec       q    Type
REMARK                         _______ _______ _______ _____ _____    ______ ____
ROOT
ATOM      1  C   UNL     1       6.887   5.393  17.499  0.00  0.00    +0.000 A 
ATOM      2  C   UNL     1       7.225   4.983  16.208  0.00  0.00    +0.000 A 
ATOM      3  C   UNL     1       6.435   4.077  15.511  0.00  0.00    +0.000 A 
ATOM      4  C   UNL     1       5.309   3.535  16.113  0.00  0.00    +0.000 A 
ATOM      5  C   UNL     1       4.947   3.890  17.419  0.00  0.00    +0.000 A 
ATOM      6  C   UNL     1       5.734   4.854  18.090  0.00  0.00    +0.000 A 
ENDROOT
BRANCH   5   7
ATOM      7  N   UNL     1       3.929   3.163  18.105  0.00  0.00    +0.000 N 
ATOM      8  C   UNL     1       4.080   2.625  19.366  0.00  0.00    +0.000 C 
ATOM      9  O   UNL     1       5.084   2.349  20.007  0.00  0.00    +0.000 OA
ATOM     10  N   UNL     1       2.834   2.478  19.934  0.00  0.00    +0.000 N 
ATOM     11  C   UNL     1       1.822   3.106  19.140  0.00  0.00    +0.000 C 
ATOM     12  C   UNL     1       0.576   2.240  19.059  0.00  0.00    +0.000 C 
ATOM     13  C   UNL     1       2.578   3.217  17.803  0.00  0.00    +0.000 C 
ATOM     14  O   UNL     1       2.038   3.468  16.732  0.00  0.00    +0.000 OA
ATOM     15  H   UNL     1       2.769   2.278  20.924  0.00  0.00    +0.000 HD
BRANCH  11  16
ATOM     16  C   UNL     1       1.485   4.517  19.605  0.00  0.00    +0.000 C 
ATOM     17  C   UNL     1       2.518   5.635  19.578  0.00  0.00    +0.000 C 
ATOM     18  C   UNL     1       1.965   5.160  20.888  0.00  0.00    +0.000 C 
ENDBRANCH  11  16
ENDBRANCH   5   7
BRANCH   1  22
ATOM     19  N   UNL     1       8.605   8.360  18.803  0.00  0.00    +0.000 N 
ATOM     20  C   UNL     1       7.848   7.629  17.910  0.00  0.00    +0.000 C 
ATOM     21  O   UNL     1       7.350   8.190  16.930  0.00  0.00    +0.000 OA
ATOM     22  N   UNL     1       7.683   6.314  18.243  0.00  0.00    +0.000 N 
ATOM     23  H   UNL     1       9.398   7.855  19.173  0.00  0.00    +0.000 HD
ATOM     24  H   UNL     1       8.009   6.014  19.152  0.00  0.00    +0.000 HD
BRANCH  19  25
ATOM     25  C   UNL     1       8.822   9.777  18.503  0.00  0.00    +0.000 C 
BRANCH  25  26
ATOM     26  C   UNL     1       9.673  10.526  19.556  0.00  0.00    +0.000 C 
BRANCH  26  33
ATOM     27  C   UNL     1       9.752  12.944  21.544  0.00  0.00    +0.000 C 
ATOM     28  C   UNL     1      10.048  13.039  20.077  0.00  0.00    +0.000 A 
ATOM     29  C   UNL     1      10.363  14.301  19.559  0.00  0.00    +0.000 A 
ATOM     30  N   UNL     1      10.639  14.564  18.265  0.00  0.00    +0.000 NA
ATOM     31  C   UNL     1      10.596  13.515  17.426  0.00  0.00    +0.000 A 
ATOM     32  C   UNL     1      10.301  12.221  17.828  0.00  0.00    +0.000 A 
ATOM     33  C   UNL     1      10.018  11.957  19.179  0.00  0.00    +0.000 A 
ENDBRANCH  26  33
ENDBRANCH  25  26
ENDBRANCH  19  25
ENDBRANCH   1  22
TORSDOF 6
ENDMDL
MODEL 3
REMARK VINA RESULT:      -9.4      0.912      1.023
REMARK  Name = 
REMARK  8 active torsions:
REMARK  status: ('A' for Active; 'I' for Inactive)
REMARK    1  A    between atoms: C_1  and  C_2
REMARK    2  A    between atoms: C_7  and  C_8
REMARK    3  A    between atoms: C_8  and  C_9
REMARK    4  A    between atoms: C_9  and  N_10
REMARK    5  A    between atoms: N_13  and  C_14
REMARK    6  A    between atoms: C_18  and  N_19
REMARK    7  A    between atoms: C_23  and  C_24
REMARK    8  A    between atoms: C_23  and  C_25
REMARK                            x       y       z     vdW  Elec       q    Type
REMARK                         _______ _______ _______ _____ _____    ______ ____
ROOT
ATOM      1  C   UNL     1       6.278   6.263  16.702  0.00  0.00    +0.000 A 
ATOM      2  C   UNL     1       6.814   5.399  15.745  0.00  0.00    +0.000 A 
ATOM      3  C   UNL     1       6.299   4.122  15.560  0.00  0.00    +0.000 A 
ATOM      4  C   UNL     1       5.259   3.673  16.360  0.00  0.00    +0.000 A 
ATOM      5  C   UNL     1       4.709   4.491  17.356  0.00  0.00    +0.000 A 
ATOM      6  C   UNL     1       5.212   5.806  17.491  0.00  0.00    +0.000 A 
ENDROOT
BRANCH   5   7
ATOM      7  N   UNL     1       3.804   3.946  18.315  0.00  0.00    +0.000 N 
ATOM      8  C   UNL     1       4.198   3.262  19.447  0.00  0.00    +0.000 C 
ATOM      9  O   UNL     1       5.249   2.704  19.723  0.00  0.00    +0.000 OA
ATOM     10  N   UNL     1       3.189   3.342  20.382  0.00  0.00    +0.000 N 
ATOM     11  C   UNL     1       2.170   4.260  19.972  0.00  0.00    +0.000 C 
ATOM     12  C   UNL     1       0.787   3.709  20.275  0.00  0.00    +0.000 C 
ATOM     13  C   UNL     1       2.483   4.333  18.465  0.00  0.00    +0.000 C 
ATOM     14  O   UNL     1       1.720   4.807  17.631  0.00  0.00    +0.000 OA
ATOM     15  H   UNL     1       3.384   3.062  21.334  0.00  0.00    +0.000 HD
BRANCH  11  16
ATOM     16  C   UNL     1       2.349   5.656  20.554  0.00  0.00    +0.000 C 
ATOM     17  C   UNL     1       1.190   6.638  20.647  0.00  0.00    +0.000 C 
ATOM     18  C   UNL     1       2.362   6.945  19.763  0.00  0.00    +0.000 C 
ENDBRANCH  11  16
ENDBRANCH   5   7
BRANCH   1  22
ATOM     19  N   UNL     1       8.146   9.201  17.856  0.00  0.00    +0.000 N 
ATOM     20  C   UNL     1       7.743   7.881  17.854  0.00  0.00    +0.000 C 
ATOM     21  O   UNL     1       8.273   7.080  18.629  0.00  0.00    +0.000 OA
ATOM     22  N   UNL     1       6.791   7.575  16.922  0.00  0.00    +0.000 N 
ATOM     23  H   UNL     1       7.392   9.857  17.707  0.00  0.00    +0.000 HD
ATOM     24  H   UNL     1       6.553   8.285  16.243  0.00  0.00    +0.000 HD
BRANCH  19  25
ATOM     25  C   UNL     1       9.163   9.594  18.834  0.00  0.00    +0.000 C 
BRANCH  25  26
ATOM     26  C   UNL     1       8.988  11.029  19.388  0.00  0.00    +0.000 C 
BRANCH  26  33
ATOM     27  C   UNL     1       8.214  14.057  19.199  0.00  0.00    +0.000 C 
ATOM     28  C   UNL     1       9.424  13.448  18.557  0.00  0.00    +0.000 A 
ATOM     29  C   UNL     1      10.254  14.289  17.806  0.00  0.00    +0.000 A 
ATOM     30  N   UNL     1      11.368  13.900  17.153  0.00  0.00    +0.000 NA
ATOM     31  C   UNL     1      11.683  12.597  17.242  0.00  0.00    +0.000 A 
ATOM     32  C   UNL     1      10.939  11.674  17.961  0.00  0.00    +0.000 A 
ATOM     33  C   UNL     1       9.780  12.089  18.641  0.00  0.00    +0.000 A 
ENDBRANCH  26  33
ENDBRANCH  25  26
ENDBRANCH  19  25
ENDBRANCH   1  22
TORSDOF 6
ENDMDL
MODEL 4
REMARK VINA RESULT:      -9.4      1.307      1.540
REMARK  Name = 
REMARK  8 active torsions:
REMARK  status: ('A' for Active; 'I' for Inactive)
REMARK    1  A    between atoms: C_1  and  C_2
REMARK    2  A    between atoms: C_7  and  C_8
REMARK    3  A    between atoms: C_8  and  C_9
REMARK    4  A    between atoms: C_9  and  N_10
REMARK    5  A    between atoms: N_13  and  C_14
REMARK    6  A    between atoms: C_18  and  N_19
REMARK    7  A    between atoms: C_23  and  C_24
REMARK    8  A    between atoms: C_23  and  C_25
REMARK                            x       y       z     vdW  Elec       q    Type
REMARK                         _______ _______ _______ _____ _____    ______ ____
ROOT
ATOM      1  C   UNL     1       6.292   6.088  16.450  0.00  0.00    +0.000 A 
ATOM      2  C   UNL     1       6.917   5.308  15.477  0.00  0.00    +0.000 A 
ATOM      3  C   UNL     1       6.501   4.007  15.221  0.00  0.00    +0.000 A 
ATOM      4  C   UNL     1       5.473   3.451  15.967  0.00  0.00    +0.000 A 
ATOM      5  C   UNL     1       4.836   4.183  16.978  0.00  0.00    +0.000 A 
ATOM      6  C   UNL     1       5.238   5.523  17.184  0.00  0.00    +0.000 A 
ENDROOT
BRANCH   5   7
ATOM      7  N   UNL     1       3.945   3.533  17.883  0.00  0.00    +0.000 N 
ATOM      8  C   UNL     1       4.265   3.216  19.187  0.00  0.00    +0.000 C 
ATOM      9  O   UNL     1       5.346   3.094  19.743  0.00  0.00    +0.000 OA
ATOM     10  N   UNL     1       3.098   3.108  19.912  0.00  0.00    +0.000 N 
ATOM     11  C   UNL     1       1.969   3.552  19.152  0.00  0.00    +0.000 C 
ATOM     12  C   UNL     1       0.779   2.630  19.353  0.00  0.00    +0.000 C 
ATOM     13  C   UNL     1       2.569   3.476  17.735  0.00  0.00    +0.000 C 
ATOM     14  O   UNL     1       1.903   3.524  16.707  0.00  0.00    +0.000 OA
ATOM     15  H   UNL     1       3.152   3.070  20.921  0.00  0.00    +0.000 HD
BRANCH  11  16
ATOM     16  C   UNL     1       1.596   5.003  19.424  0.00  0.00    +0.000 C 
ATOM     17  C   UNL     1       2.645   6.043  19.790  0.00  0.00    +0.000 C 
ATOM     18  C   UNL     1       1.585   5.670  20.782  0.00  0.00    +0.000 C 
ENDBRANCH  11  16
ENDBRANCH   5   7
BRANCH   1  22
ATOM     19  N   UNL     1       7.908   9.098  17.787  0.00  0.00    +0.000 N 
ATOM     20  C   UNL     1       7.601   7.754  17.716  0.00  0.00    +0.000 C 
ATOM     21  O   UNL     1       8.166   6.959  18.473  0.00  0.00    +0.000 OA
ATOM     22  N   UNL     1       6.702   7.424  16.742  0.00  0.00    +0.000 N 
ATOM     23  H   UNL     1       7.113   9.705  17.642  0.00  0.00    +0.000 HD
ATOM     24  H   UNL     1       6.433   8.144  16.086  0.00  0.00    +0.000 HD
BRANCH  19  25
ATOM     25  C   UNL     1       8.865   9.519  18.812  0.00  0.00    +0.000 C 
BRANCH  25  26
ATOM     26  C   UNL     1       9.609  10.836  18.483  0.00  0.00    +0.000 C 
BRANCH  26  33
ATOM     27  C   UNL     1       9.481  13.922  17.963  0.00  0.00    +0.000 C 
ATOM     28  C   UNL     1       9.448  13.287  19.322  0.00  0.00    +0.000 A 
ATOM     29  C   UNL     1       9.375  14.134  20.433  0.00  0.00    +0.000 A 
ATOM     30  N   UNL     1       9.352  13.729  21.720  0.00  0.00    +0.000 NA
ATOM     31  C   UNL     1       9.412  12.402  21.924  0.00  0.00    +0.000 A 
ATOM     32  C   UNL     1       9.482  11.469  20.900  0.00  0.00    +0.000 A 
ATOM     33  C   UNL     1       9.501  11.901  19.562  0.00  0.00    +0.000 A 
ENDBRANCH  26  33
ENDBRANCH  25  26
ENDBRANCH  19  25
ENDBRANCH   1  22
TORSDOF 6
ENDMDL
MODEL 5
REMARK VINA RESULT:      -9.3      1.376      1.694
REMARK  Name = 
REMARK  8 active torsions:
REMARK  status: ('A' for Active; 'I' for Inactive)
REMARK    1  A    between atoms: C_1  and  C_2
REMARK    2  A    between atoms: C_7  and  C_8
REMARK    3  A    between atoms: C_8  and  C_9
REMARK    4  A    between atoms: C_9  and  N_10
REMARK    5  A    between atoms: N_13  and  C_14
REMARK    6  A    between atoms: C_18  and  N_19
REMARK    7  A    between atoms: C_23  and  C_24
REMARK    8  A    between atoms: C_23  and  C_25
REMARK                            x       y       z     vdW  Elec       q    Type
REMARK                         _______ _______ _______ _____ _____    ______ ____
ROOT
ATOM      1  C   UNL     1       6.942   5.500  17.676  0.00  0.00    +0.000 A 
ATOM      2  C   UNL     1       7.196   4.973  16.409  0.00  0.00    +0.000 A 
ATOM      3  C   UNL     1       6.324   4.067  15.819  0.00  0.00    +0.000 A 
ATOM      4  C   UNL     1       5.198   3.642  16.508  0.00  0.00    +0.000 A 
ATOM      5  C   UNL     1       4.916   4.117  17.796  0.00  0.00    +0.000 A 
ATOM      6  C   UNL     1       5.788   5.080  18.355  0.00  0.00    +0.000 A 
ENDROOT
BRANCH   5   7
ATOM      7  N   UNL     1       3.891   3.508  18.578  0.00  0.00    +0.000 N 
ATOM      8  C   UNL     1       4.129   2.721  19.686  0.00  0.00    +0.000 C 
ATOM      9  O   UNL     1       5.131   2.121  20.045  0.00  0.00    +0.000 OA
ATOM     10  N   UNL     1       3.009   2.739  20.487  0.00  0.00    +0.000 N 
ATOM     11  C   UNL     1       2.058   3.708  20.033  0.00  0.00    +0.000 C 
ATOM     12  C   UNL     1       0.643   3.159  20.105  0.00  0.00    +0.000 C 
ATOM     13  C   UNL     1       2.564   3.906  18.591  0.00  0.00    +0.000 C 
ATOM     14  O   UNL     1       1.920   4.465  17.711  0.00  0.00    +0.000 OA
ATOM     15  H   UNL     1       3.076   2.373  21.428  0.00  0.00    +0.000 HD
BRANCH  11  16
ATOM     16  C   UNL     1       2.171   5.044  20.755  0.00  0.00    +0.000 C 
ATOM     17  C   UNL     1       1.089   6.108  20.641  0.00  0.00    +0.000 C 
ATOM     18  C   UNL     1       2.461   6.377  20.100  0.00  0.00    +0.000 C 
ENDBRANCH  11  16
ENDBRANCH   5   7
BRANCH   1  22
ATOM     19  N   UNL     1       8.750   8.487  18.802  0.00  0.00    +0.000 N 
ATOM     20  C   UNL     1       7.873   7.760  18.022  0.00  0.00    +0.000 C 
ATOM     21  O   UNL     1       7.184   8.338  17.178  0.00  0.00    +0.000 OA
ATOM     22  N   UNL     1       7.823   6.425  18.312  0.00  0.00    +0.000 N 
ATOM     23  H   UNL     1       9.617   8.005  18.997  0.00  0.00    +0.000 HD
ATOM     24  H   UNL     1       8.320   6.102  19.131  0.00  0.00    +0.000 HD
BRANCH  19  25
ATOM     25  C   UNL     1       8.853   9.924  18.540  0.00  0.00    +0.000 C 
BRANCH  25  26
ATOM     26  C   UNL     1       9.716  10.696  19.568  0.00  0.00    +0.000 C 
BRANCH  26  33
ATOM     27  C   UNL     1      11.631  12.176  17.581  0.00  0.00    +0.000 C 
ATOM     28  C   UNL     1      10.622  12.858  18.456  0.00  0.00    +0.000 A 
ATOM     29  C   UNL     1      10.545  14.254  18.393  0.00  0.00    +0.000 A 
ATOM     30  N   UNL     1       9.708  15.021  19.122  0.00  0.00    +0.000 NA
ATOM     31  C   UNL     1       8.897  14.369  19.972  0.00  0.00    +0.000 A 
ATOM     32  C   UNL     1       8.881  12.990  20.115  0.00  0.00    +0.000 A 
ATOM     33  C   UNL     1       9.756  12.199  19.349  0.00  0.00    +0.000 A 
ENDBRANCH  26  33
ENDBRANCH  25  26
ENDBRANCH  19  25
ENDBRANCH   1  22
TORSDOF 6
ENDMDL
MODEL 6
REMARK VINA RESULT:      -9.3      1.191      1.345
REMARK  Name = 
REMARK  8 active torsions:
REMARK  status: ('A' for Active; 'I' for Inactive)
REMARK    1  A    between atoms: C_1  and  C_2
REMARK    2  A    between atoms: C_7  and  C_8
REMARK    3  A    between atoms: C_8  and  C_9
REMARK    4  A    between atoms: C_9  and  N_10
REMARK    5  A    between atoms: N_13  and  C_14
REMARK    6  A    between atoms: C_18  and  N_19
REMARK    7  A    between atoms: C_23  and  C_24
REMARK    8  A    between atoms: C_23  and  C_25
REMARK                            x       y       z     vdW  Elec       q    Type
REMARK                         _______ _______ _______ _____ _____    ______ ____
ROOT
ATOM      1  C   UNL     1       6.266   6.230  16.691  0.00  0.00    +0.000 A 
ATOM      2  C   UNL     1       6.844   5.367  15.759  0.00  0.00    +0.000 A 
ATOM      3  C   UNL     1       6.365   4.075  15.582  0.00  0.00    +0.000 A 
ATOM      4  C   UNL     1       5.319   3.612  16.366  0.00  0.00    +0.000 A 
ATOM      5  C   UNL     1       4.727   4.430  17.338  0.00  0.00    +0.000 A 
ATOM      6  C   UNL     1       5.195   5.758  17.464  0.00  0.00    +0.000 A 
ENDROOT
BRANCH   5   7
ATOM      7  N   UNL     1       3.816   3.876  18.285  0.00  0.00    +0.000 N 
ATOM      8  C   UNL     1       4.200   3.162  19.401  0.00  0.00    +0.000 C 
ATOM      9  O   UNL     1       5.244   2.585  19.666  0.00  0.00    +0.000 OA
ATOM     10  N   UNL     1       3.193   3.235  20.339  0.00  0.00    +0.000 N 
ATOM     11  C   UNL     1       2.186   4.175  19.949  0.00  0.00    +0.000 C 
ATOM     12  C   UNL     1       0.796   3.636  20.240  0.00  0.00    +0.000 C 
ATOM     13  C   UNL     1       2.499   4.276  18.444  0.00  0.00    +0.000 C 
ATOM     14  O   UNL     1       1.743   4.778  17.621  0.00  0.00    +0.000 OA
ATOM     15  H   UNL     1       3.384   2.932  21.284  0.00  0.00    +0.000 HD
BRANCH  11  16
ATOM     16  C   UNL     1       2.383   5.555  20.561  0.00  0.00    +0.000 C 
ATOM     17  C   UNL     1       1.240   6.554  20.664  0.00  0.00    +0.000 C 
ATOM     18  C   UNL     1       2.424   6.860  19.797  0.00  0.00    +0.000 C 
ENDBRANCH  11  16
ENDBRANCH   5   7
BRANCH   1  22
ATOM     19  N   UNL     1       8.041   9.230  17.836  0.00  0.00    +0.000 N 
ATOM     20  C   UNL     1       7.673   7.899  17.844  0.00  0.00    +0.000 C 
ATOM     21  O   UNL     1       8.213   7.121  18.634  0.00  0.00    +0.000 OA
ATOM     22  N   UNL     1       6.742   7.559  16.903  0.00  0.00    +0.000 N 
ATOM     23  H   UNL     1       7.272   9.864  17.670  0.00  0.00    +0.000 HD
ATOM     24  H   UNL     1       6.494   8.254  16.213  0.00  0.00    +0.000 HD
BRANCH  19  25
ATOM     25  C   UNL     1       9.035   9.661  18.822  0.00  0.00    +0.000 C 
BRANCH  25  26
ATOM     26  C   UNL     1      10.004  10.753  18.310  0.00  0.00    +0.000 C 
BRANCH  26  33
ATOM     27  C   UNL     1       8.003  12.949  17.320  0.00  0.00    +0.000 C 
ATOM     28  C   UNL     1       8.912  13.098  18.504  0.00  0.00    +0.000 A 
ATOM     29  C   UNL     1       8.875  14.311  19.202  0.00  0.00    +0.000 A 
ATOM     30  N   UNL     1       9.636  14.614  20.275  0.00  0.00    +0.000 NA
ATOM     31  C   UNL     1      10.491  13.661  20.682  0.00  0.00    +0.000 A 
ATOM     32  C   UNL     1      10.610  12.422  20.072  0.00  0.00    +0.000 A 
ATOM     33  C   UNL     1       9.811  12.114  18.956  0.00  0.00    +0.000 A 
ENDBRANCH  26  33
ENDBRANCH  25  26
ENDBRANCH  19  25
ENDBRANCH   1  22
TORSDOF 6
ENDMDL
MODEL 7
REMARK VINA RESULT:      -9.2      1.008      1.026
REMARK  Name = 
REMARK  8 active torsions:
REMARK  status: ('A' for Active; 'I' for Inactive)
REMARK    1  A    between atoms: C_1  and  C_2
REMARK    2  A    between atoms: C_7  and  C_8
REMARK    3  A    between atoms: C_8  and  C_9
REMARK    4  A    between atoms: C_9  and  N_10
REMARK    5  A    between atoms: N_13  and  C_14
REMARK    6  A    between atoms: C_18  and  N_19
REMARK    7  A    between atoms: C_23  and  C_24
REMARK    8  A    between atoms: C_23  and  C_25
REMARK                            x       y       z     vdW  Elec       q    Type
REMARK                         _______ _______ _______ _____ _____    ______ ____
ROOT
ATOM      1  C   UNL     1       7.036   5.437  17.253  0.00  0.00    +0.000 A 
ATOM      2  C   UNL     1       7.297   5.031  15.943  0.00  0.00    +0.000 A 
ATOM      3  C   UNL     1       6.448   4.155  15.279  0.00  0.00    +0.000 A 
ATOM      4  C   UNL     1       5.339   3.639  15.932  0.00  0.00    +0.000 A 
ATOM      5  C   UNL     1       5.052   3.991  17.258  0.00  0.00    +0.000 A 
ATOM      6  C   UNL     1       5.900   4.926  17.896  0.00  0.00    +0.000 A 
ENDROOT
BRANCH   5   7
ATOM      7  N   UNL     1       4.050   3.286  17.988  0.00  0.00    +0.000 N 
ATOM      8  C   UNL     1       4.210   2.836  19.282  0.00  0.00    +0.000 C 
ATOM      9  O   UNL     1       5.217   2.626  19.941  0.00  0.00    +0.000 OA
ATOM     10  N   UNL     1       2.965   2.696  19.856  0.00  0.00    +0.000 N 
ATOM     11  C   UNL     1       1.941   3.247  19.021  0.00  0.00    +0.000 C 
ATOM     12  C   UNL     1       0.717   2.348  18.995  0.00  0.00    +0.000 C 
ATOM     13  C   UNL     1       2.699   3.288  17.680  0.00  0.00    +0.000 C 
ATOM     14  O   UNL     1       2.157   3.456  16.594  0.00  0.00    +0.000 OA
ATOM     15  H   UNL     1       2.902   2.560  20.856  0.00  0.00    +0.000 HD
BRANCH  11  16
ATOM     16  C   UNL     1       1.570   4.677  19.392  0.00  0.00    +0.000 C 
ATOM     17  C   UNL     1       2.630   5.745  19.617  0.00  0.00    +0.000 C 
ATOM     18  C   UNL     1       1.754   5.309  20.754  0.00  0.00    +0.000 C 
ENDBRANCH  11  16
ENDBRANCH   5   7
BRANCH   1  22
ATOM     19  N   UNL     1       8.690   8.363  18.722  0.00  0.00    +0.000 N 
ATOM     20  C   UNL     1       7.806   7.690  17.903  0.00  0.00    +0.000 C 
ATOM     21  O   UNL     1       6.993   8.329  17.229  0.00  0.00    +0.000 OA
ATOM     22  N   UNL     1       7.895   6.328  17.964  0.00  0.00    +0.000 N 
ATOM     23  H   UNL     1       9.609   7.943  18.761  0.00  0.00    +0.000 HD
ATOM     24  H   UNL     1       8.494   5.926  18.672  0.00  0.00    +0.000 HD
BRANCH  19  25
ATOM     25  C   UNL     1       8.648   9.827  18.703  0.00  0.00    +0.000 C 
BRANCH  25  26
ATOM     26  C   UNL     1       9.768  10.483  17.860  0.00  0.00    +0.000 C 
BRANCH  26  33
ATOM     27  C   UNL     1       8.472  13.333  17.781  0.00  0.00    +0.000 C 
ATOM     28  C   UNL     1       9.782  13.012  18.438  0.00  0.00    +0.000 A 
ATOM     29  C   UNL     1      10.480  14.065  19.041  0.00  0.00    +0.000 A 
ATOM     30  N   UNL     1      11.674  13.952  19.659  0.00  0.00    +0.000 NA
ATOM     31  C   UNL     1      12.217  12.723  19.680  0.00  0.00    +0.000 A 
ATOM     32  C   UNL     1      11.613  11.607  19.120  0.00  0.00    +0.000 A 
ATOM     33  C   UNL     1      10.368  11.734  18.480  0.00  0.00    +0.000 A 
ENDBRANCH  26  33
ENDBRANCH  25  26
ENDBRANCH  19  25
ENDBRANCH   1  22
TORSDOF 6
ENDMDL
MODEL 8
REMARK VINA RESULT:      -9.2      1.191      1.767
REMARK  Name = 
REMARK  8 active torsions:
REMARK  status: ('A' for Active; 'I' for Inactive)
REMARK    1  A    between atoms: C_1  and  C_2
REMARK    2  A    between atoms: C_7  and  C_8
REMARK    3  A    between atoms: C_8  and  C_9
REMARK    4  A    between atoms: C_9  and  N_10
REMARK    5  A    between atoms: N_13  and  C_14
REMARK    6  A    between atoms: C_18  and  N_19
REMARK    7  A    between atoms: C_23  and  C_24
REMARK    8  A    between atoms: C_23  and  C_25
REMARK                            x       y       z     vdW  Elec       q    Type
REMARK                         _______ _______ _______ _____ _____    ______ ____
ROOT
ATOM      1  C   UNL     1       6.376   6.116  16.439  0.00  0.00    +0.000 A 
ATOM      2  C   UNL     1       6.992   5.337  15.459  0.00  0.00    +0.000 A 
ATOM      3  C   UNL     1       6.569   4.039  15.201  0.00  0.00    +0.000 A 
ATOM      4  C   UNL     1       5.543   3.484  15.950  0.00  0.00    +0.000 A 
ATOM      5  C   UNL     1       4.915   4.214  16.968  0.00  0.00    +0.000 A 
ATOM      6  C   UNL     1       5.324   5.551  17.177  0.00  0.00    +0.000 A 
ENDROOT
BRANCH   5   7
ATOM      7  N   UNL     1       4.027   3.564  17.875  0.00  0.00    +0.000 N 
ATOM      8  C   UNL     1       4.328   3.300  19.196  0.00  0.00    +0.000 C 
ATOM      9  O   UNL     1       5.401   3.233  19.777  0.00  0.00    +0.000 OA
ATOM     10  N   UNL     1       3.150   3.177  19.900  0.00  0.00    +0.000 N 
ATOM     11  C   UNL     1       2.024   3.558  19.102  0.00  0.00    +0.000 C 
ATOM     12  C   UNL     1       0.861   2.603  19.310  0.00  0.00    +0.000 C 
ATOM     13  C   UNL     1       2.657   3.457  17.701  0.00  0.00    +0.000 C 
ATOM     14  O   UNL     1       2.012   3.449  16.659  0.00  0.00    +0.000 OA
ATOM     15  H   UNL     1       3.185   3.173  20.910  0.00  0.00    +0.000 HD
BRANCH  11  16
ATOM     16  C   UNL     1       1.598   5.004  19.319  0.00  0.00    +0.000 C 
ATOM     17  C   UNL     1       2.191   6.143  18.502  0.00  0.00    +0.000 C 
ATOM     18  C   UNL     1       2.433   6.078  19.980  0.00  0.00    +0.000 C 
ENDBRANCH  11  16
ENDBRANCH   5   7
BRANCH   1  22
ATOM     19  N   UNL     1       7.988   9.115  17.803  0.00  0.00    +0.000 N 
ATOM     20  C   UNL     1       7.667   7.774  17.733  0.00  0.00    +0.000 C 
ATOM     21  O   UNL     1       8.199   6.978  18.511  0.00  0.00    +0.000 OA
ATOM     22  N   UNL     1       6.793   7.448  16.734  0.00  0.00    +0.000 N 
ATOM     23  H   UNL     1       7.205   9.731  17.630  0.00  0.00    +0.000 HD
ATOM     24  H   UNL     1       6.552   8.167  16.066  0.00  0.00    +0.000 HD
BRANCH  19  25
ATOM     25  C   UNL     1       8.919   9.532  18.854  0.00  0.00    +0.000 C 
BRANCH  25  26
ATOM     26  C   UNL     1       9.814  10.735  18.468  0.00  0.00    +0.000 C 
BRANCH  26  33
ATOM     27  C   UNL     1       9.945  12.273  21.193  0.00  0.00    +0.000 C 
ATOM     28  C   UNL     1       9.246  12.776  19.966  0.00  0.00    +0.000 A 
ATOM     29  C   UNL     1       8.592  14.011  20.052  0.00  0.00    +0.000 A 
ATOM     30  N   UNL     1       7.905  14.599  19.050  0.00  0.00    +0.000 NA
ATOM     31  C   UNL     1       7.856  13.922  17.890  0.00  0.00    +0.000 A 
ATOM     32  C   UNL     1       8.470  12.696  17.688  0.00  0.00    +0.000 A 
ATOM     33  C   UNL     1       9.187  12.093  18.737  0.00  0.00    +0.000 A 
ENDBRANCH  26  33
ENDBRANCH  25  26
ENDBRANCH  19  25
ENDBRANCH   1  22
TORSDOF 6
ENDMDL
MODEL 9
REMARK VINA RESULT:      -8.9      1.091      1.546
REMARK  Name = 
REMARK  8 active torsions:
REMARK  status: ('A' for Active; 'I' for Inactive)
REMARK    1  A    between atoms: C_1  and  C_2
REMARK    2  A    between atoms: C_7  and  C_8
REMARK    3  A    between atoms: C_8  and  C_9
REMARK    4  A    between atoms: C_9  and  N_10
REMARK    5  A    between atoms: N_13  and  C_14
REMARK    6  A    between atoms: C_18  and  N_19
REMARK    7  A    between atoms: C_23  and  C_24
REMARK    8  A    between atoms: C_23  and  C_25
REMARK                            x       y       z     vdW  Elec       q    Type
REMARK                         _______ _______ _______ _____ _____    ______ ____
ROOT
ATOM      1  C   UNL     1       6.039   5.539  16.311  0.00  0.00    +0.000 A 
ATOM      2  C   UNL     1       6.489   4.562  15.421  0.00  0.00    +0.000 A 
ATOM      3  C   UNL     1       5.920   3.295  15.398  0.00  0.00    +0.000 A 
ATOM      4  C   UNL     1       4.915   2.971  16.297  0.00  0.00    +0.000 A 
ATOM      5  C   UNL     1       4.452   3.907  17.231  0.00  0.00    +0.000 A 
ATOM      6  C   UNL     1       5.007   5.208  17.201  0.00  0.00    +0.000 A 
ENDROOT
BRANCH   5   7
ATOM      7  N   UNL     1       3.588   3.498  18.290  0.00  0.00    +0.000 N 
ATOM      8  C   UNL     1       4.017   2.855  19.433  0.00  0.00    +0.000 C 
ATOM      9  O   UNL     1       5.041   2.230  19.667  0.00  0.00    +0.000 OA
ATOM     10  N   UNL     1       3.096   3.075  20.434  0.00  0.00    +0.000 N 
ATOM     11  C   UNL     1       2.122   4.047  20.040  0.00  0.00    +0.000 C 
ATOM     12  C   UNL     1       0.729   3.632  20.482  0.00  0.00    +0.000 C 
ATOM     13  C   UNL     1       2.317   4.001  18.512  0.00  0.00    +0.000 C 
ATOM     14  O   UNL     1       1.529   4.485  17.708  0.00  0.00    +0.000 OA
ATOM     15  H   UNL     1       3.344   2.839  21.385  0.00  0.00    +0.000 HD
BRANCH  11  16
ATOM     16  C   UNL     1       2.455   5.456  20.512  0.00  0.00    +0.000 C 
ATOM     17  C   UNL     1       1.370   6.499  20.741  0.00  0.00    +0.000 C 
ATOM     18  C   UNL     1       2.391   6.707  19.663  0.00  0.00    +0.000 C 
ENDBRANCH  11  16
ENDBRANCH   5   7
BRANCH   1  22
ATOM     19  N   UNL     1       7.828   8.601  17.253  0.00  0.00    +0.000 N 
ATOM     20  C   UNL     1       7.305   7.336  17.435  0.00  0.00    +0.000 C 
ATOM     21  O   UNL     1       7.524   6.731  18.488  0.00  0.00    +0.000 OA
ATOM     22  N   UNL     1       6.609   6.846  16.366  0.00  0.00    +0.000 N 
ATOM     23  H   UNL     1       7.213   9.227  16.753  0.00  0.00    +0.000 HD
ATOM     24  H   UNL     1       6.635   7.376  15.505  0.00  0.00    +0.000 HD
BRANCH  19  25
ATOM     25  C   UNL     1       8.584   9.184  18.364  0.00  0.00    +0.000 C 
BRANCH  25  26
ATOM     26  C   UNL     1       8.580  10.732  18.389  0.00  0.00    +0.000 C 
BRANCH  26  33
ATOM     27  C   UNL     1       9.276  11.286  21.392  0.00  0.00    +0.000 C 
ATOM     28  C   UNL     1      10.180  11.602  20.237  0.00  0.00    +0.000 A 
ATOM     29  C   UNL     1      11.411  12.203  20.522  0.00  0.00    +0.000 A 
ATOM     30  N   UNL     1      12.331  12.566  19.604  0.00  0.00    +0.000 NA
ATOM     31  C   UNL     1      12.013  12.325  18.321  0.00  0.00    +0.000 A 
ATOM     32  C   UNL     1      10.826  11.730  17.921  0.00  0.00    +0.000 A 
ATOM     33  C   UNL     1       9.875  11.352  18.886  0.00  0.00    +0.000 A 
ENDBRANCH  26  33
ENDBRANCH  25  26
ENDBRANCH  19  25
ENDBRANCH   1  22
TORSDOF 6
ENDMDL
