MODEL 1
REMARK VINA RESULT:      -7.9      0.000      0.000
REMARK  Name = 
REMARK  4 active torsions:
REMARK  status: ('A' for Active; 'I' for Inactive)
REMARK    1  A    between atoms: C_1  and  C_2
REMARK    2  A    between atoms: C_2  and  C_3
REMARK    3  A    between atoms: N_16  and  C_17
REMARK    4  A    between atoms: C_17  and  C_18
REMARK                            x       y       z     vdW  Elec       q    Type
REMARK                         _______ _______ _______ _____ _____    ______ ____
ROOT
ATOM      1  C   UNL     1       1.358  12.169  19.638  0.00  0.00    +0.000 C 
ATOM      2  C   UNL     1       0.785  10.774  19.440  0.00  0.00    +0.000 C 
ATOM      3  N   UNL     1       0.867   9.973  20.645  0.00  0.00    +0.000 N 
ATOM      4  C   UNL     1       1.206   8.666  20.359  0.00  0.00    +0.000 C 
ATOM      5  O   UNL     1       1.130   7.756  21.165  0.00  0.00    +0.000 OA
ATOM      6  N   UNL     1       1.612   8.604  19.066  0.00  0.00    +0.000 N 
ATOM      7  C   UNL     1       1.657   9.867  18.535  0.00  0.00    +0.000 C 
ATOM      8  O   UNL     1       2.158  10.189  17.467  0.00  0.00    +0.000 OA
ATOM      9  H   UNL     1       0.422  10.190  21.525  0.00  0.00    +0.000 HD
ENDROOT
BRANCH   2  10
ATOM     10  C   UNL     1      -0.647  10.829  18.881  0.00  0.00    +0.000 A 
ATOM     11  C   UNL     1      -1.024  10.026  17.785  0.00  0.00    +0.000 A 
ATOM     12  C   UNL     1      -2.330  10.030  17.292  0.00  0.00    +0.000 A 
ATOM     13  C   UNL     1      -3.277  10.870  17.860  0.00  0.00    +0.000 A 
ATOM     14  C   UNL     1      -2.928  11.682  18.941  0.00  0.00    +0.000 A 
ATOM     15  C   UNL     1      -1.623  11.671  19.442  0.00  0.00    +0.000 A 
ATOM     16  O   UNL     1      -3.814  12.527  19.560  0.00  0.00    +0.000 OA
ATOM     17  C   UNL     1      -5.167  12.234  19.189  0.00  0.00    +0.000 C 
ATOM     18  C   UNL     1      -5.284  11.998  17.693  0.00  0.00    +0.000 C 
ATOM     19  O   UNL     1      -4.529  10.846  17.305  0.00  0.00    +0.000 OA
ENDBRANCH   2  10
BRANCH   6  20
ATOM     20  C   UNL     1       1.746   7.398  18.289  0.00  0.00    +0.000 C 
BRANCH  20  21
ATOM     21  C   UNL     1       3.140   6.892  18.278  0.00  0.00    +0.000 A 
ATOM     22  C   UNL     1       3.741   5.969  19.108  0.00  0.00    +0.000 A 
ATOM     23  N   UNL     1       5.042   5.885  18.690  0.00  0.00    +0.000 N 
ATOM     24  C   UNL     1       6.105   5.173  19.235  0.00  0.00    +0.000 A 
ATOM     25  C   UNL     1       7.317   5.264  18.661  0.00  0.00    +0.000 A 
ATOM     26  C   UNL     1       7.469   6.081  17.465  0.00  0.00    +0.000 A 
ATOM     27  C   UNL     1       6.432   6.762  16.938  0.00  0.00    +0.000 A 
ATOM     28  C   UNL     1       5.156   6.699  17.569  0.00  0.00    +0.000 A 
ATOM     29  N   UNL     1       4.021   7.304  17.298  0.00  0.00    +0.000 NA
ENDBRANCH  20  21
ENDBRANCH   6  20
TORSDOF 3
ENDMDL
MODEL 2
REMARK VINA RESULT:      -7.6      0.817      1.502
REMARK  Name = 
REMARK  4 active torsions:
REMARK  status: ('A' for Active; 'I' for Inactive)
REMARK    1  A    between atoms: C_1  and  C_2
REMARK    2  A    between atoms: C_2  and  C_3
REMARK    3  A    between atoms: N_16  and  C_17
REMARK    4  A    between atoms: C_17  and  C_18
REMARK                            x       y       z     vdW  Elec       q    Type
REMARK                         _______ _______ _______ _____ _____    ______ ____
ROOT
ATOM      1  C   UNL     1       1.552  12.300  20.306  0.00  0.00    +0.000 C 
ATOM      2  C   UNL     1       0.894  10.993  19.892  0.00  0.00    +0.000 C 
ATOM      3  N   UNL     1       0.933  10.003  20.950  0.00  0.00    +0.000 N 
ATOM      4  C   UNL     1       1.192   8.742  20.450  0.00  0.00    +0.000 C 
ATOM      5  O   UNL     1       1.064   7.719  21.099  0.00  0.00    +0.000 OA
ATOM      6  N   UNL     1       1.586   8.867  19.159  0.00  0.00    +0.000 N 
ATOM      7  C   UNL     1       1.705  10.195  18.839  0.00  0.00    +0.000 C 
ATOM      8  O   UNL     1       2.219  10.657  17.830  0.00  0.00    +0.000 OA
ATOM      9  H   UNL     1       0.507  10.099  21.861  0.00  0.00    +0.000 HD
ENDROOT
BRANCH   2  10
ATOM     10  C   UNL     1      -0.535  11.222  19.372  0.00  0.00    +0.000 A 
ATOM     11  C   UNL     1      -1.468  11.963  20.128  0.00  0.00    +0.000 A 
ATOM     12  C   UNL     1      -2.755  12.217  19.652  0.00  0.00    +0.000 A 
ATOM     13  C   UNL     1      -3.151  11.700  18.427  0.00  0.00    +0.000 A 
ATOM     14  C   UNL     1      -2.249  10.957  17.662  0.00  0.00    +0.000 A 
ATOM     15  C   UNL     1      -0.957  10.710  18.133  0.00  0.00    +0.000 A 
ATOM     16  O   UNL     1      -2.567  10.427  16.437  0.00  0.00    +0.000 OA
ATOM     17  C   UNL     1      -3.775  10.993  15.915  0.00  0.00    +0.000 C 
ATOM     18  C   UNL     1      -4.846  11.079  16.990  0.00  0.00    +0.000 C 
ATOM     19  O   UNL     1      -4.437  11.963  18.038  0.00  0.00    +0.000 OA
ENDBRANCH   2  10
BRANCH   6  20
ATOM     20  C   UNL     1       1.643   7.798  18.194  0.00  0.00    +0.000 C 
BRANCH  20  21
ATOM     21  C   UNL     1       2.966   7.128  18.180  0.00  0.00    +0.000 A 
ATOM     22  C   UNL     1       3.421   6.077  18.951  0.00  0.00    +0.000 A 
ATOM     23  N   UNL     1       4.716   5.867  18.562  0.00  0.00    +0.000 N 
ATOM     24  C   UNL     1       5.665   4.990  19.077  0.00  0.00    +0.000 A 
ATOM     25  C   UNL     1       6.899   4.975  18.544  0.00  0.00    +0.000 A 
ATOM     26  C   UNL     1       7.191   5.855  17.421  0.00  0.00    +0.000 A 
ATOM     27  C   UNL     1       6.263   6.696  16.922  0.00  0.00    +0.000 A 
ATOM     28  C   UNL     1       4.968   6.742  17.512  0.00  0.00    +0.000 A 
ATOM     29  N   UNL     1       3.924   7.501  17.260  0.00  0.00    +0.000 NA
ENDBRANCH  20  21
ENDBRANCH   6  20
TORSDOF 3
ENDMDL
MODEL 3
REMARK VINA RESULT:      -7.6      0.534      1.119
REMARK  Name = 
REMARK  4 active torsions:
REMARK  status: ('A' for Active; 'I' for Inactive)
REMARK    1  A    between atoms: C_1  and  C_2
REMARK    2  A    between atoms: C_2  and  C_3
REMARK    3  A    between atoms: N_16  and  C_17
REMARK    4  A    between atoms: C_17  and  C_18
REMARK                            x       y       z     vdW  Elec       q    Type
REMARK                         _______ _______ _______ _____ _____    ______ ____
ROOT
ATOM      1  C   UNL     1       1.416  12.157  19.714  0.00  0.00    +0.000 C 
ATOM      2  C   UNL     1       0.831  10.774  19.477  0.00  0.00    +0.000 C 
ATOM      3  N   UNL     1       0.927   9.931  20.652  0.00  0.00    +0.000 N 
ATOM      4  C   UNL     1       1.253   8.632  20.316  0.00  0.00    +0.000 C 
ATOM      5  O   UNL     1       1.184   7.696  21.092  0.00  0.00    +0.000 OA
ATOM      6  N   UNL     1       1.638   8.612  19.016  0.00  0.00    +0.000 N 
ATOM      7  C   UNL     1       1.683   9.893  18.527  0.00  0.00    +0.000 C 
ATOM      8  O   UNL     1       2.169  10.249  17.463  0.00  0.00    +0.000 OA
ATOM      9  H   UNL     1       0.497  10.120  21.547  0.00  0.00    +0.000 HD
ENDROOT
BRANCH   2  10
ATOM     10  C   UNL     1      -0.609  10.856  18.944  0.00  0.00    +0.000 A 
ATOM     11  C   UNL     1      -1.006  10.101  17.820  0.00  0.00    +0.000 A 
ATOM     12  C   UNL     1      -2.319  10.130  17.348  0.00  0.00    +0.000 A 
ATOM     13  C   UNL     1      -3.255  10.948  17.966  0.00  0.00    +0.000 A 
ATOM     14  C   UNL     1      -2.886  11.712  19.076  0.00  0.00    +0.000 A 
ATOM     15  C   UNL     1      -1.574  11.676  19.555  0.00  0.00    +0.000 A 
ATOM     16  O   UNL     1      -3.760  12.532  19.744  0.00  0.00    +0.000 OA
ATOM     17  C   UNL     1      -5.119  12.259  19.382  0.00  0.00    +0.000 C 
ATOM     18  C   UNL     1      -5.261  12.087  17.879  0.00  0.00    +0.000 C 
ATOM     19  O   UNL     1      -4.515  10.951  17.431  0.00  0.00    +0.000 OA
ENDBRANCH   2  10
BRANCH   6  20
ATOM     20  C   UNL     1       1.752   7.433  18.195  0.00  0.00    +0.000 C 
BRANCH  20  21
ATOM     21  C   UNL     1       3.152   6.953  18.099  0.00  0.00    +0.000 A 
ATOM     22  C   UNL     1       4.143   7.323  17.213  0.00  0.00    +0.000 A 
ATOM     23  N   UNL     1       5.233   6.559  17.536  0.00  0.00    +0.000 N 
ATOM     24  C   UNL     1       6.469   6.466  16.906  0.00  0.00    +0.000 A 
ATOM     25  C   UNL     1       7.390   5.616  17.393  0.00  0.00    +0.000 A 
ATOM     26  C   UNL     1       7.073   4.846  18.588  0.00  0.00    +0.000 A 
ATOM     27  C   UNL     1       5.875   4.948  19.198  0.00  0.00    +0.000 A 
ATOM     28  C   UNL     1       4.884   5.817  18.659  0.00  0.00    +0.000 A 
ATOM     29  N   UNL     1       3.641   6.048  19.019  0.00  0.00    +0.000 NA
ENDBRANCH  20  21
ENDBRANCH   6  20
TORSDOF 3
ENDMDL
MODEL 4
REMARK VINA RESULT:      -7.5      2.895      5.238
REMARK  Name = 
REMARK  4 active torsions:
REMARK  status: ('A' for Active; 'I' for Inactive)
REMARK    1  A    between atoms: C_1  and  C_2
REMARK    2  A    between atoms: C_2  and  C_3
REMARK    3  A    between atoms: N_16  and  C_17
REMARK    4  A    between atoms: C_17  and  C_18
REMARK                            x       y       z     vdW  Elec       q    Type
REMARK                         _______ _______ _______ _____ _____    ______ ____
ROOT
ATOM      1  C   UNL     1      -1.779  10.968  18.970  0.00  0.00    +0.000 C 
ATOM      2  C   UNL     1      -0.292  10.773  19.227  0.00  0.00    +0.000 C 
ATOM      3  N   UNL     1       0.441  10.498  18.008  0.00  0.00    +0.000 N 
ATOM      4  C   UNL     1       1.415   9.540  18.211  0.00  0.00    +0.000 C 
ATOM      5  O   UNL     1       2.297   9.292  17.408  0.00  0.00    +0.000 OA
ATOM      6  N   UNL     1       1.205   8.970  19.423  0.00  0.00    +0.000 N 
ATOM      7  C   UNL     1       0.043   9.453  19.967  0.00  0.00    +0.000 C 
ATOM      8  O   UNL     1      -0.537   9.016  20.950  0.00  0.00    +0.000 OA
ATOM      9  H   UNL     1       0.510  11.115  17.211  0.00  0.00    +0.000 HD
ENDROOT
BRANCH   2  10
ATOM     10  C   UNL     1       0.304  11.960  20.002  0.00  0.00    +0.000 A 
ATOM     11  C   UNL     1      -0.399  12.548  21.074  0.00  0.00    +0.000 A 
ATOM     12  C   UNL     1       0.146  13.597  21.816  0.00  0.00    +0.000 A 
ATOM     13  C   UNL     1       1.389  14.109  21.474  0.00  0.00    +0.000 A 
ATOM     14  C   UNL     1       2.103  13.552  20.411  0.00  0.00    +0.000 A 
ATOM     15  C   UNL     1       1.563  12.494  19.674  0.00  0.00    +0.000 A 
ATOM     16  O   UNL     1       3.341  13.998  20.025  0.00  0.00    +0.000 OA
ATOM     17  C   UNL     1       3.928  14.847  21.019  0.00  0.00    +0.000 C 
ATOM     18  C   UNL     1       2.913  15.841  21.557  0.00  0.00    +0.000 C 
ATOM     19  O   UNL     1       1.847  15.159  22.225  0.00  0.00    +0.000 OA
ENDBRANCH   2  10
BRANCH   6  20
ATOM     20  C   UNL     1       2.159   8.167  20.146  0.00  0.00    +0.000 C 
BRANCH  20  21
ATOM     21  C   UNL     1       2.083   6.734  19.769  0.00  0.00    +0.000 A 
ATOM     22  C   UNL     1       2.531   6.107  18.626  0.00  0.00    +0.000 A 
ATOM     23  N   UNL     1       2.185   4.789  18.766  0.00  0.00    +0.000 N 
ATOM     24  C   UNL     1       2.319   3.737  17.867  0.00  0.00    +0.000 A 
ATOM     25  C   UNL     1       1.879   2.516  18.218  0.00  0.00    +0.000 A 
ATOM     26  C   UNL     1       1.306   2.330  19.544  0.00  0.00    +0.000 A 
ATOM     27  C   UNL     1       1.188   3.353  20.413  0.00  0.00    +0.000 A 
ATOM     28  C   UNL     1       1.616   4.656  20.027  0.00  0.00    +0.000 A 
ATOM     29  N   UNL     1       1.556   5.812  20.651  0.00  0.00    +0.000 NA
ENDBRANCH  20  21
ENDBRANCH   6  20
TORSDOF 3
ENDMDL
MODEL 5
REMARK VINA RESULT:      -7.5      2.934      5.106
REMARK  Name = 
REMARK  4 active torsions:
REMARK  status: ('A' for Active; 'I' for Inactive)
REMARK    1  A    between atoms: C_1  and  C_2
REMARK    2  A    between atoms: C_2  and  C_3
REMARK    3  A    between atoms: N_16  and  C_17
REMARK    4  A    between atoms: C_17  and  C_18
REMARK                            x       y       z     vdW  Elec       q    Type
REMARK                         _______ _______ _______ _____ _____    ______ ____
ROOT
ATOM      1  C   UNL     1      -1.410  11.110  18.907  0.00  0.00    +0.000 C 
ATOM      2  C   UNL     1       0.071  10.779  19.010  0.00  0.00    +0.000 C 
ATOM      3  N   UNL     1       0.598  10.241  17.773  0.00  0.00    +0.000 N 
ATOM      4  C   UNL     1       1.490   9.214  18.010  0.00  0.00    +0.000 C 
ATOM      5  O   UNL     1       2.224   8.746  17.157  0.00  0.00    +0.000 OA
ATOM      6  N   UNL     1       1.394   8.858  19.315  0.00  0.00    +0.000 N 
ATOM      7  C   UNL     1       0.372   9.552  19.909  0.00  0.00    +0.000 C 
ATOM      8  O   UNL     1      -0.107   9.337  21.013  0.00  0.00    +0.000 OA
ATOM      9  H   UNL     1       0.618  10.721  16.884  0.00  0.00    +0.000 HD
ENDROOT
BRANCH   2  10
ATOM     10  C   UNL     1       0.884  11.987  19.505  0.00  0.00    +0.000 A 
ATOM     11  C   UNL     1       1.974  12.478  18.756  0.00  0.00    +0.000 A 
ATOM     12  C   UNL     1       2.696  13.599  19.167  0.00  0.00    +0.000 A 
ATOM     13  C   UNL     1       2.369  14.230  20.359  0.00  0.00    +0.000 A 
ATOM     14  C   UNL     1       1.299  13.759  21.124  0.00  0.00    +0.000 A 
ATOM     15  C   UNL     1       0.569  12.643  20.708  0.00  0.00    +0.000 A 
ATOM     16  O   UNL     1       0.912  14.339  22.306  0.00  0.00    +0.000 OA
ATOM     17  C   UNL     1       1.503  15.634  22.475  0.00  0.00    +0.000 C 
ATOM     18  C   UNL     1       2.976  15.615  22.103  0.00  0.00    +0.000 C 
ATOM     19  O   UNL     1       3.140  15.304  20.716  0.00  0.00    +0.000 OA
ENDBRANCH   2  10
BRANCH   6  20
ATOM     20  C   UNL     1       2.354   8.062  20.037  0.00  0.00    +0.000 C 
BRANCH  20  21
ATOM     21  C   UNL     1       2.218   6.616  19.740  0.00  0.00    +0.000 A 
ATOM     22  C   UNL     1       2.715   5.892  18.676  0.00  0.00    +0.000 A 
ATOM     23  N   UNL     1       2.277   4.609  18.864  0.00  0.00    +0.000 N 
ATOM     24  C   UNL     1       2.415   3.495  18.041  0.00  0.00    +0.000 A 
ATOM     25  C   UNL     1       1.872   2.327  18.425  0.00  0.00    +0.000 A 
ATOM     26  C   UNL     1       1.184   2.259  19.707  0.00  0.00    +0.000 A 
ATOM     27  C   UNL     1       1.062   3.340  20.502  0.00  0.00    +0.000 A 
ATOM     28  C   UNL     1       1.601   4.588  20.078  0.00  0.00    +0.000 A 
ATOM     29  N   UNL     1       1.565   5.783  20.626  0.00  0.00    +0.000 NA
ENDBRANCH  20  21
ENDBRANCH   6  20
TORSDOF 3
ENDMDL
MODEL 6
REMARK VINA RESULT:      -7.4      5.110      7.667
REMARK  Name = 
REMARK  4 active torsions:
REMARK  status: ('A' for Active; 'I' for Inactive)
REMARK    1  A    between atoms: C_1  and  C_2
REMARK    2  A    between atoms: C_2  and  C_3
REMARK    3  A    between atoms: N_16  and  C_17
REMARK    4  A    between atoms: C_17  and  C_18
REMARK                            x       y       z     vdW  Elec       q    Type
REMARK                         _______ _______ _______ _____ _____    ______ ____
ROOT
ATOM      1  C   UNL     1      -2.188  10.260  16.503  0.00  0.00    +0.000 C 
ATOM      2  C   UNL     1      -2.107  11.220  17.680  0.00  0.00    +0.000 C 
ATOM      3  N   UNL     1      -1.477  12.474  17.320  0.00  0.00    +0.000 N 
ATOM      4  C   UNL     1      -0.646  12.927  18.325  0.00  0.00    +0.000 C 
ATOM      5  O   UNL     1      -0.174  14.050  18.357  0.00  0.00    +0.000 OA
ATOM      6  N   UNL     1      -0.480  11.926  19.225  0.00  0.00    +0.000 N 
ATOM      7  C   UNL     1      -1.090  10.787  18.766  0.00  0.00    +0.000 C 
ATOM      8  O   UNL     1      -0.972   9.662  19.231  0.00  0.00    +0.000 OA
ATOM      9  H   UNL     1      -1.816  13.124  16.624  0.00  0.00    +0.000 HD
ENDROOT
BRANCH   2  10
ATOM     10  C   UNL     1      -3.487  11.434  18.326  0.00  0.00    +0.000 A 
ATOM     11  C   UNL     1      -4.587  10.630  17.960  0.00  0.00    +0.000 A 
ATOM     12  C   UNL     1      -5.834  10.781  18.567  0.00  0.00    +0.000 A 
ATOM     13  C   UNL     1      -6.019  11.769  19.524  0.00  0.00    +0.000 A 
ATOM     14  C   UNL     1      -4.949  12.584  19.899  0.00  0.00    +0.000 A 
ATOM     15  C   UNL     1      -3.696  12.427  19.299  0.00  0.00    +0.000 A 
ATOM     16  O   UNL     1      -5.055  13.571  20.845  0.00  0.00    +0.000 OA
ATOM     17  C   UNL     1      -6.261  13.441  21.608  0.00  0.00    +0.000 C 
ATOM     18  C   UNL     1      -7.447  13.142  20.708  0.00  0.00    +0.000 C 
ATOM     19  O   UNL     1      -7.277  11.881  20.054  0.00  0.00    +0.000 OA
ENDBRANCH   2  10
BRANCH   6  20
ATOM     20  C   UNL     1       0.041  12.079  20.559  0.00  0.00    +0.000 C 
BRANCH  20  21
ATOM     21  C   UNL     1      -0.974  12.613  21.499  0.00  0.00    +0.000 A 
ATOM     22  C   UNL     1      -1.330  13.922  21.750  0.00  0.00    +0.000 A 
ATOM     23  N   UNL     1      -2.292  13.865  22.722  0.00  0.00    +0.000 N 
ATOM     24  C   UNL     1      -2.926  14.898  23.404  0.00  0.00    +0.000 A 
ATOM     25  C   UNL     1      -3.833  14.599  24.350  0.00  0.00    +0.000 A 
ATOM     26  C   UNL     1      -4.145  13.199  24.606  0.00  0.00    +0.000 A 
ATOM     27  C   UNL     1      -3.532  12.204  23.936  0.00  0.00    +0.000 A 
ATOM     28  C   UNL     1      -2.541  12.518  22.962  0.00  0.00    +0.000 A 
ATOM     29  N   UNL     1      -1.768  11.750  22.228  0.00  0.00    +0.000 NA
ENDBRANCH  20  21
ENDBRANCH   6  20
TORSDOF 3
ENDMDL
MODEL 7
REMARK VINA RESULT:      -7.4      2.998      5.161
REMARK  Name = 
REMARK  4 active torsions:
REMARK  status: ('A' for Active; 'I' for Inactive)
REMARK    1  A    between atoms: C_1  and  C_2
REMARK    2  A    between atoms: C_2  and  C_3
REMARK    3  A    between atoms: N_16  and  C_17
REMARK    4  A    between atoms: C_17  and  C_18
REMARK                            x       y       z     vdW  Elec       q    Type
REMARK                         _______ _______ _______ _____ _____    ______ ____
ROOT
ATOM      1  C   UNL     1      -1.641  10.985  18.923  0.00  0.00    +0.000 C 
ATOM      2  C   UNL     1      -0.151  10.747  19.111  0.00  0.00    +0.000 C 
ATOM      3  N   UNL     1       0.505  10.382  17.871  0.00  0.00    +0.000 N 
ATOM      4  C   UNL     1       1.453   9.399  18.072  0.00  0.00    +0.000 C 
ATOM      5  O   UNL     1       2.280   9.077  17.238  0.00  0.00    +0.000 OA
ATOM      6  N   UNL     1       1.290   8.899  19.322  0.00  0.00    +0.000 N 
ATOM      7  C   UNL     1       0.177   9.453  19.900  0.00  0.00    +0.000 C 
ATOM      8  O   UNL     1      -0.363   9.089  20.935  0.00  0.00    +0.000 OA
ATOM      9  H   UNL     1       0.552  10.956  17.040  0.00  0.00    +0.000 HD
ENDROOT
BRANCH   2  10
ATOM     10  C   UNL     1       0.530  11.948  19.790  0.00  0.00    +0.000 A 
ATOM     11  C   UNL     1      -0.013  12.516  20.962  0.00  0.00    +0.000 A 
ATOM     12  C   UNL     1       0.614  13.577  21.616  0.00  0.00    +0.000 A 
ATOM     13  C   UNL     1       1.776  14.121  21.087  0.00  0.00    +0.000 A 
ATOM     14  C   UNL     1       2.330  13.583  19.923  0.00  0.00    +0.000 A 
ATOM     15  C   UNL     1       1.708  12.513  19.273  0.00  0.00    +0.000 A 
ATOM     16  O   UNL     1       3.482  14.061  19.352  0.00  0.00    +0.000 OA
ATOM     17  C   UNL     1       4.195  14.924  20.247  0.00  0.00    +0.000 C 
ATOM     18  C   UNL     1       3.251  15.891  20.942  0.00  0.00    +0.000 C 
ATOM     19  O   UNL     1       2.319  15.181  21.763  0.00  0.00    +0.000 OA
ENDBRANCH   2  10
BRANCH   6  20
ATOM     20  C   UNL     1       2.253   8.098  20.034  0.00  0.00    +0.000 C 
BRANCH  20  21
ATOM     21  C   UNL     1       2.068   6.648  19.783  0.00  0.00    +0.000 A 
ATOM     22  C   UNL     1       1.539   5.678  20.609  0.00  0.00    +0.000 A 
ATOM     23  N   UNL     1       1.627   4.505  19.908  0.00  0.00    +0.000 N 
ATOM     24  C   UNL     1       1.321   3.208  20.307  0.00  0.00    +0.000 A 
ATOM     25  C   UNL     1       1.515   2.195  19.445  0.00  0.00    +0.000 A 
ATOM     26  C   UNL     1       2.009   2.495  18.108  0.00  0.00    +0.000 A 
ATOM     27  C   UNL     1       2.296   3.755  17.726  0.00  0.00    +0.000 A 
ATOM     28  C   UNL     1       2.130   4.825  18.652  0.00  0.00    +0.000 A 
ATOM     29  N   UNL     1       2.390   6.110  18.553  0.00  0.00    +0.000 NA
ENDBRANCH  20  21
ENDBRANCH   6  20
TORSDOF 3
ENDMDL
MODEL 8
REMARK VINA RESULT:      -7.4      3.854      6.173
REMARK  Name = 
REMARK  4 active torsions:
REMARK  status: ('A' for Active; 'I' for Inactive)
REMARK    1  A    between atoms: C_1  and  C_2
REMARK    2  A    between atoms: C_2  and  C_3
REMARK    3  A    between atoms: N_16  and  C_17
REMARK    4  A    between atoms: C_17  and  C_18
REMARK                            x       y       z     vdW  Elec       q    Type
REMARK                         _______ _______ _______ _____ _____    ______ ____
ROOT
ATOM      1  C   UNL     1       2.016   2.951  21.559  0.00  0.00    +0.000 C 
ATOM      2  C   UNL     1       2.316   3.411  20.141  0.00  0.00    +0.000 C 
ATOM      3  N   UNL     1       1.558   2.669  19.154  0.00  0.00    +0.000 N 
ATOM      4  C   UNL     1       2.321   2.392  18.037  0.00  0.00    +0.000 C 
ATOM      5  O   UNL     1       1.859   1.973  16.990  0.00  0.00    +0.000 OA
ATOM      6  N   UNL     1       3.615   2.675  18.324  0.00  0.00    +0.000 N 
ATOM      7  C   UNL     1       3.732   3.018  19.646  0.00  0.00    +0.000 C 
ATOM      8  O   UNL     1       4.772   3.144  20.277  0.00  0.00    +0.000 OA
ATOM      9  H   UNL     1       0.550   2.639  19.088  0.00  0.00    +0.000 HD
ENDROOT
BRANCH   2  10
ATOM     10  C   UNL     1       2.124   4.930  19.991  0.00  0.00    +0.000 A 
ATOM     11  C   UNL     1       1.635   5.705  21.064  0.00  0.00    +0.000 A 
ATOM     12  C   UNL     1       1.496   7.089  20.960  0.00  0.00    +0.000 A 
ATOM     13  C   UNL     1       1.803   7.724  19.765  0.00  0.00    +0.000 A 
ATOM     14  C   UNL     1       2.282   6.980  18.684  0.00  0.00    +0.000 A 
ATOM     15  C   UNL     1       2.431   5.594  18.791  0.00  0.00    +0.000 A 
ATOM     16  O   UNL     1       2.618   7.541  17.479  0.00  0.00    +0.000 OA
ATOM     17  C   UNL     1       2.731   8.967  17.575  0.00  0.00    +0.000 C 
ATOM     18  C   UNL     1       1.580   9.553  18.374  0.00  0.00    +0.000 C 
ATOM     19  O   UNL     1       1.612   9.080  19.724  0.00  0.00    +0.000 OA
ENDBRANCH   2  10
BRANCH   6  20
ATOM     20  C   UNL     1       4.673   2.828  17.357  0.00  0.00    +0.000 C 
BRANCH  20  21
ATOM     21  C   UNL     1       5.390   4.117  17.512  0.00  0.00    +0.000 A 
ATOM     22  C   UNL     1       5.114   5.345  16.947  0.00  0.00    +0.000 A 
ATOM     23  N   UNL     1       6.098   6.187  17.391  0.00  0.00    +0.000 N 
ATOM     24  C   UNL     1       6.347   7.513  17.055  0.00  0.00    +0.000 A 
ATOM     25  C   UNL     1       7.401   8.141  17.605  0.00  0.00    +0.000 A 
ATOM     26  C   UNL     1       8.228   7.418  18.562  0.00  0.00    +0.000 A 
ATOM     27  C   UNL     1       7.974   6.135  18.888  0.00  0.00    +0.000 A 
ATOM     28  C   UNL     1       6.882   5.457  18.276  0.00  0.00    +0.000 A 
ATOM     29  N   UNL     1       6.466   4.213  18.371  0.00  0.00    +0.000 NA
ENDBRANCH  20  21
ENDBRANCH   6  20
TORSDOF 3
ENDMDL
MODEL 9
REMARK VINA RESULT:      -7.4      0.972      1.873
REMARK  Name = 
REMARK  4 active torsions:
REMARK  status: ('A' for Active; 'I' for Inactive)
REMARK    1  A    between atoms: C_1  and  C_2
REMARK    2  A    between atoms: C_2  and  C_3
REMARK    3  A    between atoms: N_16  and  C_17
REMARK    4  A    between atoms: C_17  and  C_18
REMARK                            x       y       z     vdW  Elec       q    Type
REMARK                         _______ _______ _______ _____ _____    ______ ____
ROOT
ATOM      1  C   UNL     1       1.614  12.265  20.139  0.00  0.00    +0.000 C 
ATOM      2  C   UNL     1       0.950  10.948  19.769  0.00  0.00    +0.000 C 
ATOM      3  N   UNL     1       1.002   9.986  20.852  0.00  0.00    +0.000 N 
ATOM      4  C   UNL     1       1.253   8.712  20.382  0.00  0.00    +0.000 C 
ATOM      5  O   UNL     1       1.134   7.707  21.060  0.00  0.00    +0.000 OA
ATOM      6  N   UNL     1       1.631   8.803  19.083  0.00  0.00    +0.000 N 
ATOM      7  C   UNL     1       1.747  10.121  18.726  0.00  0.00    +0.000 C 
ATOM      8  O   UNL     1       2.247  10.556  17.699  0.00  0.00    +0.000 OA
ATOM      9  H   UNL     1       0.588  10.107  21.765  0.00  0.00    +0.000 HD
ENDROOT
BRANCH   2  10
ATOM     10  C   UNL     1      -0.486  11.164  19.261  0.00  0.00    +0.000 A 
ATOM     11  C   UNL     1      -1.425  11.877  20.036  0.00  0.00    +0.000 A 
ATOM     12  C   UNL     1      -2.718  12.120  19.573  0.00  0.00    +0.000 A 
ATOM     13  C   UNL     1      -3.114  11.620  18.341  0.00  0.00    +0.000 A 
ATOM     14  C   UNL     1      -2.207  10.904  17.556  0.00  0.00    +0.000 A 
ATOM     15  C   UNL     1      -0.908  10.669  18.015  0.00  0.00    +0.000 A 
ATOM     16  O   UNL     1      -2.524  10.392  16.324  0.00  0.00    +0.000 OA
ATOM     17  C   UNL     1      -3.744  10.949  15.820  0.00  0.00    +0.000 C 
ATOM     18  C   UNL     1      -4.809  10.999  16.902  0.00  0.00    +0.000 C 
ATOM     19  O   UNL     1      -4.407  11.870  17.964  0.00  0.00    +0.000 OA
ENDBRANCH   2  10
BRANCH   6  20
ATOM     20  C   UNL     1       1.674   7.708  18.146  0.00  0.00    +0.000 C 
BRANCH  20  21
ATOM     21  C   UNL     1       3.029   7.113  18.045  0.00  0.00    +0.000 A 
ATOM     22  C   UNL     1       4.061   7.432  17.187  0.00  0.00    +0.000 A 
ATOM     23  N   UNL     1       5.076   6.564  17.489  0.00  0.00    +0.000 N 
ATOM     24  C   UNL     1       6.308   6.390  16.869  0.00  0.00    +0.000 A 
ATOM     25  C   UNL     1       7.146   5.445  17.330  0.00  0.00    +0.000 A 
ATOM     26  C   UNL     1       6.746   4.656  18.487  0.00  0.00    +0.000 A 
ATOM     27  C   UNL     1       5.553   4.836  19.087  0.00  0.00    +0.000 A 
ATOM     28  C   UNL     1       4.648   5.809  18.575  0.00  0.00    +0.000 A 
ATOM     29  N   UNL     1       3.425   6.132  18.931  0.00  0.00    +0.000 NA
ENDBRANCH  20  21
ENDBRANCH   6  20
TORSDOF 3
ENDMDL
