MODEL 1
REMARK VINA RESULT:      -8.7      0.000      0.000
REMARK  Name = 
REMARK  3 active torsions:
REMARK  status: ('A' for Active; 'I' for Inactive)
REMARK    1  A    between atoms: N_13  and  C_14
REMARK    2  A    between atoms: N_17  and  C_18
REMARK    3  A    between atoms: C_23  and  C_24
REMARK                            x       y       z     vdW  Elec       q    Type
REMARK                         _______ _______ _______ _____ _____    ______ ____
ROOT
ATOM      1  O   UNL     1       2.045   3.377  21.318  0.00  0.00    +0.000 OA
ATOM      2  C   UNL     1       2.134   4.408  20.654  0.00  0.00    +0.000 C 
ATOM      3  N   UNL     1       1.813   5.617  21.203  0.00  0.00    +0.000 N 
ATOM      4  C   UNL     1       1.839   6.832  20.577  0.00  0.00    +0.000 A 
ATOM      5  N   UNL     1       1.226   7.906  21.154  0.00  0.00    +0.000 NA
ATOM      6  C   UNL     1       1.290   8.821  20.209  0.00  0.00    +0.000 A 
ATOM      7  C   UNL     1       0.750  10.133  20.096  0.00  0.00    +0.000 A 
ATOM      8  C   UNL     1       0.902  10.823  18.946  0.00  0.00    +0.000 A 
ATOM      9  C   UNL     1       1.626  10.262  17.812  0.00  0.00    +0.000 A 
ATOM     10  C   UNL     1       2.162   9.037  17.931  0.00  0.00    +0.000 A 
ATOM     11  N   UNL     1       1.990   8.320  19.111  0.00  0.00    +0.000 N 
ATOM     12  N   UNL     1       2.395   7.066  19.389  0.00  0.00    +0.000 NA
ATOM     13  N   UNL     1       2.484   4.414  19.340  0.00  0.00    +0.000 N 
ATOM     14  H   UNL     1       1.415   5.603  22.129  0.00  0.00    +0.000 HD
ATOM     15  H   UNL     1       2.680   5.330  18.935  0.00  0.00    +0.000 HD
ENDROOT
BRANCH  13  16
ATOM     16  C   UNL     1       2.859   3.252  18.549  0.00  0.00    +0.000 C 
ATOM     17  C   UNL     1       4.116   2.600  19.105  0.00  0.00    +0.000 C 
ATOM     18  C   UNL     1       5.238   3.524  18.620  0.00  0.00    +0.000 C 
ATOM     19  N   UNL     1       4.732   4.132  17.374  0.00  0.00    +0.000 N 
ATOM     20  C   UNL     1       3.342   3.671  17.144  0.00  0.00    +0.000 C 
BRANCH  19  21
ATOM     21  C   UNL     1       5.531   4.355  16.264  0.00  0.00    +0.000 A 
ATOM     22  C   UNL     1       5.389   3.584  15.093  0.00  0.00    +0.000 A 
ATOM     23  C   UNL     1       6.163   3.803  13.948  0.00  0.00    +0.000 A 
ATOM     24  C   UNL     1       7.098   4.826  13.930  0.00  0.00    +0.000 A 
ATOM     25  C   UNL     1       7.276   5.594  15.071  0.00  0.00    +0.000 A 
ATOM     26  C   UNL     1       6.525   5.357  16.250  0.00  0.00    +0.000 A 
BRANCH  26  27
ATOM     27  C   UNL     1       6.928   6.178  17.452  0.00  0.00    +0.000 C 
ATOM     28  F   UNL     1       7.614   5.545  18.440  0.00  0.00    +0.000 F 
ATOM     29  F   UNL     1       7.734   7.229  17.096  0.00  0.00    +0.000 F 
ATOM     30  F   UNL     1       5.852   6.754  18.065  0.00  0.00    +0.000 F 
ENDBRANCH  26  27
ENDBRANCH  19  21
ENDBRANCH  13  16
TORSDOF 3
ENDMDL
MODEL 2
REMARK VINA RESULT:      -8.2      2.272      7.075
REMARK  Name = 
REMARK  3 active torsions:
REMARK  status: ('A' for Active; 'I' for Inactive)
REMARK    1  A    between atoms: N_13  and  C_14
REMARK    2  A    between atoms: N_17  and  C_18
REMARK    3  A    between atoms: C_23  and  C_24
REMARK                            x       y       z     vdW  Elec       q    Type
REMARK                         _______ _______ _______ _____ _____    ______ ____
ROOT
ATOM      1  O   UNL     1       6.027   5.495  19.656  0.00  0.00    +0.000 OA
ATOM      2  C   UNL     1       5.913   5.014  18.530  0.00  0.00    +0.000 C 
ATOM      3  N   UNL     1       6.857   5.254  17.573  0.00  0.00    +0.000 N 
ATOM      4  C   UNL     1       6.844   4.809  16.280  0.00  0.00    +0.000 A 
ATOM      5  N   UNL     1       7.696   5.354  15.365  0.00  0.00    +0.000 NA
ATOM      6  C   UNL     1       7.279   4.834  14.230  0.00  0.00    +0.000 A 
ATOM      7  C   UNL     1       7.644   5.055  12.873  0.00  0.00    +0.000 A 
ATOM      8  C   UNL     1       6.967   4.431  11.887  0.00  0.00    +0.000 A 
ATOM      9  C   UNL     1       5.872   3.514  12.178  0.00  0.00    +0.000 A 
ATOM     10  C   UNL     1       5.548   3.282  13.460  0.00  0.00    +0.000 A 
ATOM     11  N   UNL     1       6.236   3.938  14.475  0.00  0.00    +0.000 N 
ATOM     12  N   UNL     1       6.015   3.882  15.802  0.00  0.00    +0.000 NA
ATOM     13  N   UNL     1       4.833   4.284  18.144  0.00  0.00    +0.000 N 
ATOM     14  H   UNL     1       7.584   5.912  17.809  0.00  0.00    +0.000 HD
ATOM     15  H   UNL     1       4.915   3.804  17.247  0.00  0.00    +0.000 HD
ENDROOT
BRANCH  13  16
ATOM     16  C   UNL     1       3.706   3.912  18.986  0.00  0.00    +0.000 C 
ATOM     17  C   UNL     1       2.423   3.836  18.170  0.00  0.00    +0.000 C 
ATOM     18  C   UNL     1       2.035   5.306  17.982  0.00  0.00    +0.000 C 
ATOM     19  N   UNL     1       2.596   6.010  19.152  0.00  0.00    +0.000 N 
ATOM     20  C   UNL     1       3.357   5.042  19.977  0.00  0.00    +0.000 C 
BRANCH  19  21
ATOM     21  C   UNL     1       1.930   7.034  19.807  0.00  0.00    +0.000 A 
ATOM     22  C   UNL     1       1.286   6.817  21.041  0.00  0.00    +0.000 A 
ATOM     23  C   UNL     1       0.629   7.838  21.738  0.00  0.00    +0.000 A 
ATOM     24  C   UNL     1       0.615   9.126  21.228  0.00  0.00    +0.000 A 
ATOM     25  C   UNL     1       1.225   9.372  20.006  0.00  0.00    +0.000 A 
ATOM     26  C   UNL     1       1.860   8.339  19.273  0.00  0.00    +0.000 A 
BRANCH  26  27
ATOM     27  C   UNL     1       2.354   8.728  17.898  0.00  0.00    +0.000 C 
ATOM     28  F   UNL     1       3.493   8.138  17.453  0.00  0.00    +0.000 F 
ATOM     29  F   UNL     1       1.422   8.445  16.932  0.00  0.00    +0.000 F 
ATOM     30  F   UNL     1       2.571  10.072  17.793  0.00  0.00    +0.000 F 
ENDBRANCH  26  27
ENDBRANCH  19  21
ENDBRANCH  13  16
TORSDOF 3
ENDMDL
MODEL 3
REMARK VINA RESULT:      -7.5      6.000      9.020
REMARK  Name = 
REMARK  3 active torsions:
REMARK  status: ('A' for Active; 'I' for Inactive)
REMARK    1  A    between atoms: N_13  and  C_14
REMARK    2  A    between atoms: N_17  and  C_18
REMARK    3  A    between atoms: C_23  and  C_24
REMARK                            x       y       z     vdW  Elec       q    Type
REMARK                         _______ _______ _______ _____ _____    ______ ____
ROOT
ATOM      1  O   UNL     1       0.007  14.179  20.848  0.00  0.00    +0.000 OA
ATOM      2  C   UNL     1      -1.179  13.861  20.786  0.00  0.00    +0.000 C 
ATOM      3  N   UNL     1      -2.019  14.099  21.836  0.00  0.00    +0.000 N 
ATOM      4  C   UNL     1      -3.345  13.776  21.914  0.00  0.00    +0.000 A 
ATOM      5  N   UNL     1      -3.984  13.813  23.118  0.00  0.00    +0.000 NA
ATOM      6  C   UNL     1      -5.154  13.274  22.845  0.00  0.00    +0.000 A 
ATOM      7  C   UNL     1      -6.262  12.905  23.658  0.00  0.00    +0.000 A 
ATOM      8  C   UNL     1      -7.317  12.272  23.105  0.00  0.00    +0.000 A 
ATOM      9  C   UNL     1      -7.360  11.967  21.681  0.00  0.00    +0.000 A 
ATOM     10  C   UNL     1      -6.329  12.343  20.908  0.00  0.00    +0.000 A 
ATOM     11  N   UNL     1      -5.234  12.981  21.482  0.00  0.00    +0.000 N 
ATOM     12  N   UNL     1      -4.091  13.372  20.886  0.00  0.00    +0.000 NA
ATOM     13  N   UNL     1      -1.713  13.206  19.721  0.00  0.00    +0.000 N 
ATOM     14  H   UNL     1      -1.597  14.451  22.681  0.00  0.00    +0.000 HD
ATOM     15  H   UNL     1      -2.731  13.134  19.705  0.00  0.00    +0.000 HD
ENDROOT
BRANCH  13  16
ATOM     16  C   UNL     1      -1.011  12.841  18.499  0.00  0.00    +0.000 C 
ATOM     17  C   UNL     1      -1.831  11.858  17.676  0.00  0.00    +0.000 C 
ATOM     18  C   UNL     1      -1.629  10.528  18.410  0.00  0.00    +0.000 C 
ATOM     19  N   UNL     1      -0.310  10.638  19.061  0.00  0.00    +0.000 N 
ATOM     20  C   UNL     1       0.239  11.992  18.811  0.00  0.00    +0.000 C 
BRANCH  19  21
ATOM     21  C   UNL     1       0.585   9.582  19.137  0.00  0.00    +0.000 A 
ATOM     22  C   UNL     1       1.315   9.158  18.008  0.00  0.00    +0.000 A 
ATOM     23  C   UNL     1       2.245   8.113  18.061  0.00  0.00    +0.000 A 
ATOM     24  C   UNL     1       2.492   7.467  19.262  0.00  0.00    +0.000 A 
ATOM     25  C   UNL     1       1.779   7.847  20.389  0.00  0.00    +0.000 A 
ATOM     26  C   UNL     1       0.807   8.878  20.340  0.00  0.00    +0.000 A 
BRANCH  26  27
ATOM     27  C   UNL     1       0.013   9.083  21.609  0.00  0.00    +0.000 C 
ATOM     28  F   UNL     1      -0.685  10.242  21.730  0.00  0.00    +0.000 F 
ATOM     29  F   UNL     1      -0.926   8.099  21.778  0.00  0.00    +0.000 F 
ATOM     30  F   UNL     1       0.800   9.010  22.724  0.00  0.00    +0.000 F 
ENDBRANCH  26  27
ENDBRANCH  19  21
ENDBRANCH  13  16
TORSDOF 3
ENDMDL
MODEL 4
REMARK VINA RESULT:      -7.3      5.799      8.897
REMARK  Name = 
REMARK  3 active torsions:
REMARK  status: ('A' for Active; 'I' for Inactive)
REMARK    1  A    between atoms: N_13  and  C_14
REMARK    2  A    between atoms: N_17  and  C_18
REMARK    3  A    between atoms: C_23  and  C_24
REMARK                            x       y       z     vdW  Elec       q    Type
REMARK                         _______ _______ _______ _____ _____    ______ ____
ROOT
ATOM      1  O   UNL     1      -0.869  13.827  23.478  0.00  0.00    +0.000 OA
ATOM      2  C   UNL     1      -1.661  13.568  22.575  0.00  0.00    +0.000 C 
ATOM      3  N   UNL     1      -2.990  13.400  22.842  0.00  0.00    +0.000 N 
ATOM      4  C   UNL     1      -3.972  13.084  21.946  0.00  0.00    +0.000 A 
ATOM      5  N   UNL     1      -5.193  12.670  22.392  0.00  0.00    +0.000 NA
ATOM      6  C   UNL     1      -5.794  12.286  21.286  0.00  0.00    +0.000 A 
ATOM      7  C   UNL     1      -7.041  11.648  21.035  0.00  0.00    +0.000 A 
ATOM      8  C   UNL     1      -7.364  11.281  19.777  0.00  0.00    +0.000 A 
ATOM      9  C   UNL     1      -6.469  11.536  18.656  0.00  0.00    +0.000 A 
ATOM     10  C   UNL     1      -5.307  12.166  18.889  0.00  0.00    +0.000 A 
ATOM     11  N   UNL     1      -4.968  12.530  20.188  0.00  0.00    +0.000 N 
ATOM     12  N   UNL     1      -3.829  13.106  20.621  0.00  0.00    +0.000 NA
ATOM     13  N   UNL     1      -1.274  13.369  21.287  0.00  0.00    +0.000 N 
ATOM     14  H   UNL     1      -3.260  13.403  23.814  0.00  0.00    +0.000 HD
ATOM     15  H   UNL     1      -2.025  13.318  20.597  0.00  0.00    +0.000 HD
ENDROOT
BRANCH  13  16
ATOM     16  C   UNL     1       0.082  13.486  20.772  0.00  0.00    +0.000 C 
ATOM     17  C   UNL     1       0.073  13.708  19.266  0.00  0.00    +0.000 C 
ATOM     18  C   UNL     1      -0.219  12.312  18.705  0.00  0.00    +0.000 C 
ATOM     19  N   UNL     1       0.311  11.369  19.709  0.00  0.00    +0.000 N 
ATOM     20  C   UNL     1       0.829  12.138  20.866  0.00  0.00    +0.000 C 
BRANCH  19  21
ATOM     21  C   UNL     1       0.962  10.193  19.371  0.00  0.00    +0.000 A 
ATOM     22  C   UNL     1       1.637  10.058  18.140  0.00  0.00    +0.000 A 
ATOM     23  C   UNL     1       2.325   8.893  17.783  0.00  0.00    +0.000 A 
ATOM     24  C   UNL     1       2.381   7.824  18.664  0.00  0.00    +0.000 A 
ATOM     25  C   UNL     1       1.714   7.917  19.877  0.00  0.00    +0.000 A 
ATOM     26  C   UNL     1       0.981   9.077  20.234  0.00  0.00    +0.000 A 
BRANCH  26  27
ATOM     27  C   UNL     1       0.193   8.976  21.519  0.00  0.00    +0.000 C 
ATOM     28  F   UNL     1       0.844   9.265  22.676  0.00  0.00    +0.000 F 
ATOM     29  F   UNL     1      -0.886   9.822  21.514  0.00  0.00    +0.000 F 
ATOM     30  F   UNL     1      -0.339   7.731  21.699  0.00  0.00    +0.000 F 
ENDBRANCH  26  27
ENDBRANCH  19  21
ENDBRANCH  13  16
TORSDOF 3
ENDMDL
MODEL 5
REMARK VINA RESULT:      -7.1      4.512      8.885
REMARK  Name = 
REMARK  3 active torsions:
REMARK  status: ('A' for Active; 'I' for Inactive)
REMARK    1  A    between atoms: N_13  and  C_14
REMARK    2  A    between atoms: N_17  and  C_18
REMARK    3  A    between atoms: C_23  and  C_24
REMARK                            x       y       z     vdW  Elec       q    Type
REMARK                         _______ _______ _______ _____ _____    ______ ____
ROOT
ATOM      1  O   UNL     1       2.029  10.251  17.387  0.00  0.00    +0.000 OA
ATOM      2  C   UNL     1       2.021   9.269  18.126  0.00  0.00    +0.000 C 
ATOM      3  N   UNL     1       2.250   8.019  17.624  0.00  0.00    +0.000 N 
ATOM      4  C   UNL     1       2.244   6.844  18.322  0.00  0.00    +0.000 A 
ATOM      5  N   UNL     1       2.206   5.656  17.652  0.00  0.00    +0.000 NA
ATOM      6  C   UNL     1       2.022   4.781  18.618  0.00  0.00    +0.000 A 
ATOM      7  C   UNL     1       1.782   3.378  18.618  0.00  0.00    +0.000 A 
ATOM      8  C   UNL     1       1.535   2.741  19.782  0.00  0.00    +0.000 A 
ATOM      9  C   UNL     1       1.523   3.456  21.052  0.00  0.00    +0.000 A 
ATOM     10  C   UNL     1       1.780   4.773  21.054  0.00  0.00    +0.000 A 
ATOM     11  N   UNL     1       2.020   5.431  19.852  0.00  0.00    +0.000 N 
ATOM     12  N   UNL     1       2.231   6.746  19.651  0.00  0.00    +0.000 NA
ATOM     13  N   UNL     1       1.724   9.344  19.451  0.00  0.00    +0.000 N 
ATOM     14  H   UNL     1       2.326   7.941  16.622  0.00  0.00    +0.000 HD
ATOM     15  H   UNL     1       1.902   8.499  19.997  0.00  0.00    +0.000 HD
ENDROOT
BRANCH  13  16
ATOM     16  C   UNL     1       1.440  10.559  20.198  0.00  0.00    +0.000 C 
ATOM     17  C   UNL     1       0.752  10.237  21.516  0.00  0.00    +0.000 C 
ATOM     18  C   UNL     1      -0.691   9.934  21.098  0.00  0.00    +0.000 C 
ATOM     19  N   UNL     1      -0.912  10.714  19.865  0.00  0.00    +0.000 N 
ATOM     20  C   UNL     1       0.351  11.399  19.496  0.00  0.00    +0.000 C 
BRANCH  19  21
ATOM     21  C   UNL     1      -2.104  11.363  19.586  0.00  0.00    +0.000 A 
ATOM     22  C   UNL     1      -2.656  12.300  20.483  0.00  0.00    +0.000 A 
ATOM     23  C   UNL     1      -3.844  12.989  20.216  0.00  0.00    +0.000 A 
ATOM     24  C   UNL     1      -4.512  12.779  19.020  0.00  0.00    +0.000 A 
ATOM     25  C   UNL     1      -4.006  11.852  18.121  0.00  0.00    +0.000 A 
ATOM     26  C   UNL     1      -2.825  11.119  18.397  0.00  0.00    +0.000 A 
BRANCH  26  27
ATOM     27  C   UNL     1      -2.477  10.047  17.391  0.00  0.00    +0.000 C 
ATOM     28  F   UNL     1      -1.206   9.567  17.404  0.00  0.00    +0.000 F 
ATOM     29  F   UNL     1      -3.264   8.935  17.549  0.00  0.00    +0.000 F 
ATOM     30  F   UNL     1      -2.701  10.455  16.107  0.00  0.00    +0.000 F 
ENDBRANCH  26  27
ENDBRANCH  19  21
ENDBRANCH  13  16
TORSDOF 3
ENDMDL
MODEL 6
REMARK VINA RESULT:      -7.1      4.552      9.044
REMARK  Name = 
REMARK  3 active torsions:
REMARK  status: ('A' for Active; 'I' for Inactive)
REMARK    1  A    between atoms: N_13  and  C_14
REMARK    2  A    between atoms: N_17  and  C_18
REMARK    3  A    between atoms: C_23  and  C_24
REMARK                            x       y       z     vdW  Elec       q    Type
REMARK                         _______ _______ _______ _____ _____    ______ ____
ROOT
ATOM      1  O   UNL     1       2.290  11.139  17.318  0.00  0.00    +0.000 OA
ATOM      2  C   UNL     1       2.195  10.147  18.039  0.00  0.00    +0.000 C 
ATOM      3  N   UNL     1       2.577   8.917  17.583  0.00  0.00    +0.000 N 
ATOM      4  C   UNL     1       2.502   7.733  18.262  0.00  0.00    +0.000 A 
ATOM      5  N   UNL     1       2.650   6.555  17.591  0.00  0.00    +0.000 NA
ATOM      6  C   UNL     1       2.336   5.658  18.502  0.00  0.00    +0.000 A 
ATOM      7  C   UNL     1       2.172   4.245  18.452  0.00  0.00    +0.000 A 
ATOM      8  C   UNL     1       1.746   3.581  19.546  0.00  0.00    +0.000 A 
ATOM      9  C   UNL     1       1.460   4.276  20.795  0.00  0.00    +0.000 A 
ATOM     10  C   UNL     1       1.645   5.605  20.851  0.00  0.00    +0.000 A 
ATOM     11  N   UNL     1       2.070   6.290  19.717  0.00  0.00    +0.000 N 
ATOM     12  N   UNL     1       2.247   7.617  19.565  0.00  0.00    +0.000 NA
ATOM     13  N   UNL     1       1.653  10.189  19.285  0.00  0.00    +0.000 N 
ATOM     14  H   UNL     1       2.843   8.857  16.612  0.00  0.00    +0.000 HD
ATOM     15  H   UNL     1       1.769   9.346  19.851  0.00  0.00    +0.000 HD
ENDROOT
BRANCH  13  16
ATOM     16  C   UNL     1       1.172  11.378  19.971  0.00  0.00    +0.000 C 
ATOM     17  C   UNL     1       0.553  11.016  21.313  0.00  0.00    +0.000 C 
ATOM     18  C   UNL     1      -0.821  10.456  20.929  0.00  0.00    +0.000 C 
ATOM     19  N   UNL     1      -1.173  11.121  19.660  0.00  0.00    +0.000 N 
ATOM     20  C   UNL     1      -0.044  11.985  19.240  0.00  0.00    +0.000 C 
BRANCH  19  21
ATOM     21  C   UNL     1      -2.458  11.547  19.362  0.00  0.00    +0.000 A 
ATOM     22  C   UNL     1      -3.175  12.383  20.241  0.00  0.00    +0.000 A 
ATOM     23  C   UNL     1      -4.463  12.850  19.955  0.00  0.00    +0.000 A 
ATOM     24  C   UNL     1      -5.072  12.510  18.757  0.00  0.00    +0.000 A 
ATOM     25  C   UNL     1      -4.401  11.675  17.875  0.00  0.00    +0.000 A 
ATOM     26  C   UNL     1      -3.113  11.164  18.171  0.00  0.00    +0.000 A 
BRANCH  26  27
ATOM     27  C   UNL     1      -2.571  10.157  17.184  0.00  0.00    +0.000 C 
ATOM     28  F   UNL     1      -3.301   9.030  16.976  0.00  0.00    +0.000 F 
ATOM     29  F   UNL     1      -2.427  10.705  15.935  0.00  0.00    +0.000 F 
ATOM     30  F   UNL     1      -1.320   9.727  17.523  0.00  0.00    +0.000 F 
ENDBRANCH  26  27
ENDBRANCH  19  21
ENDBRANCH  13  16
TORSDOF 3
ENDMDL
MODEL 7
REMARK VINA RESULT:      -7.0      5.046      9.769
REMARK  Name = 
REMARK  3 active torsions:
REMARK  status: ('A' for Active; 'I' for Inactive)
REMARK    1  A    between atoms: N_13  and  C_14
REMARK    2  A    between atoms: N_17  and  C_18
REMARK    3  A    between atoms: C_23  and  C_24
REMARK                            x       y       z     vdW  Elec       q    Type
REMARK                         _______ _______ _______ _____ _____    ______ ____
ROOT
ATOM      1  O   UNL     1       1.651  12.897  17.793  0.00  0.00    +0.000 OA
ATOM      2  C   UNL     1       1.664  11.818  18.382  0.00  0.00    +0.000 C 
ATOM      3  N   UNL     1       2.235  10.719  17.806  0.00  0.00    +0.000 N 
ATOM      4  C   UNL     1       2.297   9.459  18.331  0.00  0.00    +0.000 A 
ATOM      5  N   UNL     1       2.639   8.406  17.533  0.00  0.00    +0.000 NA
ATOM      6  C   UNL     1       2.413   7.366  18.308  0.00  0.00    +0.000 A 
ATOM      7  C   UNL     1       2.452   5.963  18.078  0.00  0.00    +0.000 A 
ATOM      8  C   UNL     1       2.075   5.113  19.056  0.00  0.00    +0.000 A 
ATOM      9  C   UNL     1       1.639   5.598  20.359  0.00  0.00    +0.000 A 
ATOM     10  C   UNL     1       1.633   6.921  20.586  0.00  0.00    +0.000 A 
ATOM     11  N   UNL     1       2.007   7.797  19.572  0.00  0.00    +0.000 N 
ATOM     12  N   UNL     1       2.003   9.144  19.592  0.00  0.00    +0.000 NA
ATOM     13  N   UNL     1       1.067  11.627  19.589  0.00  0.00    +0.000 N 
ATOM     14  H   UNL     1       2.549  10.819  16.853  0.00  0.00    +0.000 HD
ATOM     15  H   UNL     1       1.275  10.743  20.055  0.00  0.00    +0.000 HD
ENDROOT
BRANCH  13  16
ATOM     16  C   UNL     1       0.394  12.644  20.382  0.00  0.00    +0.000 C 
ATOM     17  C   UNL     1      -0.142  12.053  21.678  0.00  0.00    +0.000 C 
ATOM     18  C   UNL     1      -1.402  11.303  21.230  0.00  0.00    +0.000 C 
ATOM     19  N   UNL     1      -1.875  12.017  20.028  0.00  0.00    +0.000 N 
ATOM     20  C   UNL     1      -0.915  13.100  19.703  0.00  0.00    +0.000 C 
BRANCH  19  21
ATOM     21  C   UNL     1      -3.216  12.241  19.762  0.00  0.00    +0.000 A 
ATOM     22  C   UNL     1      -4.031  12.961  20.659  0.00  0.00    +0.000 A 
ATOM     23  C   UNL     1      -5.381  13.225  20.404  0.00  0.00    +0.000 A 
ATOM     24  C   UNL     1      -5.960  12.793  19.222  0.00  0.00    +0.000 A 
ATOM     25  C   UNL     1      -5.192  12.068  18.323  0.00  0.00    +0.000 A 
ATOM     26  C   UNL     1      -3.833  11.760  18.587  0.00  0.00    +0.000 A 
BRANCH  26  27
ATOM     27  C   UNL     1      -3.169  10.845  17.585  0.00  0.00    +0.000 C 
ATOM     28  F   UNL     1      -2.615   9.698  18.058  0.00  0.00    +0.000 F 
ATOM     29  F   UNL     1      -4.052  10.426  16.624  0.00  0.00    +0.000 F 
ATOM     30  F   UNL     1      -2.173  11.476  16.895  0.00  0.00    +0.000 F 
ENDBRANCH  26  27
ENDBRANCH  19  21
ENDBRANCH  13  16
TORSDOF 3
ENDMDL
MODEL 8
REMARK VINA RESULT:      -7.0      4.744      8.934
REMARK  Name = 
REMARK  3 active torsions:
REMARK  status: ('A' for Active; 'I' for Inactive)
REMARK    1  A    between atoms: N_13  and  C_14
REMARK    2  A    between atoms: N_17  and  C_18
REMARK    3  A    between atoms: C_23  and  C_24
REMARK                            x       y       z     vdW  Elec       q    Type
REMARK                         _______ _______ _______ _____ _____    ______ ____
ROOT
ATOM      1  O   UNL     1      -1.246  11.260  23.684  0.00  0.00    +0.000 OA
ATOM      2  C   UNL     1      -0.810  10.912  22.588  0.00  0.00    +0.000 C 
ATOM      3  N   UNL     1      -0.198   9.700  22.437  0.00  0.00    +0.000 N 
ATOM      4  C   UNL     1       0.354   9.200  21.291  0.00  0.00    +0.000 A 
ATOM      5  N   UNL     1       1.176   8.113  21.350  0.00  0.00    +0.000 NA
ATOM      6  C   UNL     1       1.653   8.039  20.125  0.00  0.00    +0.000 A 
ATOM      7  C   UNL     1       2.643   7.214  19.522  0.00  0.00    +0.000 A 
ATOM      8  C   UNL     1       3.002   7.428  18.239  0.00  0.00    +0.000 A 
ATOM      9  C   UNL     1       2.386   8.481  17.442  0.00  0.00    +0.000 A 
ATOM     10  C   UNL     1       1.430   9.239  18.003  0.00  0.00    +0.000 A 
ATOM     11  N   UNL     1       1.072   9.027  19.330  0.00  0.00    +0.000 N 
ATOM     12  N   UNL     1       0.189   9.721  20.075  0.00  0.00    +0.000 NA
ATOM     13  N   UNL     1      -0.844  11.714  21.491  0.00  0.00    +0.000 N 
ATOM     14  H   UNL     1      -0.041   9.164  23.276  0.00  0.00    +0.000 HD
ATOM     15  H   UNL     1      -0.602  11.269  20.605  0.00  0.00    +0.000 HD
ENDROOT
BRANCH  13  16
ATOM     16  C   UNL     1      -1.435  13.041  21.418  0.00  0.00    +0.000 C 
ATOM     17  C   UNL     1      -2.325  13.171  20.191  0.00  0.00    +0.000 C 
ATOM     18  C   UNL     1      -1.324  13.351  19.045  0.00  0.00    +0.000 C 
ATOM     19  N   UNL     1      -0.138  13.981  19.658  0.00  0.00    +0.000 N 
ATOM     20  C   UNL     1      -0.362  14.110  21.118  0.00  0.00    +0.000 C 
BRANCH  19  21
ATOM     21  C   UNL     1       0.602  14.969  19.028  0.00  0.00    +0.000 A 
ATOM     22  C   UNL     1       0.020  16.199  18.662  0.00  0.00    +0.000 A 
ATOM     23  C   UNL     1       0.749  17.225  18.049  0.00  0.00    +0.000 A 
ATOM     24  C   UNL     1       2.103  17.059  17.801  0.00  0.00    +0.000 A 
ATOM     25  C   UNL     1       2.705  15.854  18.134  0.00  0.00    +0.000 A 
ATOM     26  C   UNL     1       1.969  14.794  18.719  0.00  0.00    +0.000 A 
BRANCH  26  27
ATOM     27  C   UNL     1       2.725  13.497  18.893  0.00  0.00    +0.000 C 
ATOM     28  F   UNL     1       2.099  12.353  18.515  0.00  0.00    +0.000 F 
ATOM     29  F   UNL     1       3.895  13.499  18.177  0.00  0.00    +0.000 F 
ATOM     30  F   UNL     1       3.107  13.296  20.189  0.00  0.00    +0.000 F 
ENDBRANCH  26  27
ENDBRANCH  19  21
ENDBRANCH  13  16
TORSDOF 3
ENDMDL
MODEL 9
REMARK VINA RESULT:      -7.0      5.303      9.006
REMARK  Name = 
REMARK  3 active torsions:
REMARK  status: ('A' for Active; 'I' for Inactive)
REMARK    1  A    between atoms: N_13  and  C_14
REMARK    2  A    between atoms: N_17  and  C_18
REMARK    3  A    between atoms: C_23  and  C_24
REMARK                            x       y       z     vdW  Elec       q    Type
REMARK                         _______ _______ _______ _____ _____    ______ ____
ROOT
ATOM      1  O   UNL     1      -0.683  10.706  23.438  0.00  0.00    +0.000 OA
ATOM      2  C   UNL     1      -0.172  10.385  22.367  0.00  0.00    +0.000 C 
ATOM      3  N   UNL     1       0.227   9.097  22.146  0.00  0.00    +0.000 N 
ATOM      4  C   UNL     1       0.831   8.610  21.020  0.00  0.00    +0.000 A 
ATOM      5  N   UNL     1       1.427   7.383  21.046  0.00  0.00    +0.000 NA
ATOM      6  C   UNL     1       2.046   7.334  19.885  0.00  0.00    +0.000 A 
ATOM      7  C   UNL     1       2.943   6.393  19.307  0.00  0.00    +0.000 A 
ATOM      8  C   UNL     1       3.507   6.654  18.109  0.00  0.00    +0.000 A 
ATOM      9  C   UNL     1       3.205   7.877  17.376  0.00  0.00    +0.000 A 
ATOM     10  C   UNL     1       2.334   8.749  17.907  0.00  0.00    +0.000 A 
ATOM     11  N   UNL     1       1.766   8.487  19.150  0.00  0.00    +0.000 N 
ATOM     12  N   UNL     1       0.930   9.265  19.864  0.00  0.00    +0.000 NA
ATOM     13  N   UNL     1       0.090  11.278  21.376  0.00  0.00    +0.000 N 
ATOM     14  H   UNL     1       0.169   8.464  22.928  0.00  0.00    +0.000 HD
ATOM     15  H   UNL     1       0.366  10.880  20.478  0.00  0.00    +0.000 HD
ENDROOT
BRANCH  13  16
ATOM     16  C   UNL     1      -0.236  12.696  21.393  0.00  0.00    +0.000 C 
ATOM     17  C   UNL     1      -1.148  13.055  20.228  0.00  0.00    +0.000 C 
ATOM     18  C   UNL     1      -0.192  13.099  19.031  0.00  0.00    +0.000 C 
ATOM     19  N   UNL     1       1.124  13.460  19.595  0.00  0.00    +0.000 N 
ATOM     20  C   UNL     1       1.005  13.554  21.070  0.00  0.00    +0.000 C 
BRANCH  19  21
ATOM     21  C   UNL     1       2.007  14.319  18.961  0.00  0.00    +0.000 A 
ATOM     22  C   UNL     1       3.298  13.896  18.587  0.00  0.00    +0.000 A 
ATOM     23  C   UNL     1       4.201  14.734  17.922  0.00  0.00    +0.000 A 
ATOM     24  C   UNL     1       3.830  16.026  17.587  0.00  0.00    +0.000 A 
ATOM     25  C   UNL     1       2.572  16.480  17.955  0.00  0.00    +0.000 A 
ATOM     26  C   UNL     1       1.662  15.655  18.663  0.00  0.00    +0.000 A 
BRANCH  26  27
ATOM     27  C   UNL     1       0.391  16.332  19.118  0.00  0.00    +0.000 C 
ATOM     28  F   UNL     1       0.045  16.199  20.425  0.00  0.00    +0.000 F 
ATOM     29  F   UNL     1       0.443  17.687  18.915  0.00  0.00    +0.000 F 
ATOM     30  F   UNL     1      -0.697  15.913  18.406  0.00  0.00    +0.000 F 
ENDBRANCH  26  27
ENDBRANCH  19  21
ENDBRANCH  13  16
TORSDOF 3
ENDMDL
