MODEL 1
REMARK VINA RESULT:      -8.5      0.000      0.000
REMARK  Name = 
REMARK  5 active torsions:
REMARK  status: ('A' for Active; 'I' for Inactive)
REMARK    1  A    between atoms: C_1  and  C_2
REMARK    2  A    between atoms: C_2  and  N_3
REMARK    3  A    between atoms: C_2  and  C_15
REMARK    4  A    between atoms: N_3  and  C_4
REMARK    5  A    between atoms: C_18  and  N_19
REMARK                            x       y       z     vdW  Elec       q    Type
REMARK                         _______ _______ _______ _____ _____    ______ ____
ROOT
ATOM      1  C   UNL     1       2.889   8.117  18.017  0.00  0.00    +0.000 C 
ATOM      2  C   UNL     1       2.080   7.438  19.131  0.00  0.00    +0.000 C 
ENDROOT
BRANCH   2   3
ATOM      3  C   UNL     1       1.337   8.507  19.934  0.00  0.00    +0.000 A 
ATOM      4  C   UNL     1       1.210   8.401  21.324  0.00  0.00    +0.000 A 
ATOM      5  C   UNL     1       0.548   9.394  22.067  0.00  0.00    +0.000 A 
ATOM      6  C   UNL     1      -0.004  10.527  21.454  0.00  0.00    +0.000 A 
ATOM      7  C   UNL     1       0.092  10.605  20.057  0.00  0.00    +0.000 A 
ATOM      8  C   UNL     1       0.758   9.623  19.312  0.00  0.00    +0.000 A 
BRANCH   6   9
ATOM      9  N   UNL     1      -0.607  11.579  22.202  0.00  0.00    +0.000 N 
ATOM     10  C   UNL     1      -1.731  11.368  23.082  0.00  0.00    +0.000 C 
ATOM     11  C   UNL     1      -2.342  12.743  23.245  0.00  0.00    +0.000 C 
ATOM     12  C   UNL     1      -1.151  13.673  23.139  0.00  0.00    +0.000 C 
ATOM     13  C   UNL     1      -0.201  12.923  22.231  0.00  0.00    +0.000 C 
ATOM     14  O   UNL     1       0.749  13.463  21.685  0.00  0.00    +0.000 OA
ENDBRANCH   6   9
ENDBRANCH   2   3
BRANCH   2  15
ATOM     15  N   UNL     1       2.913   6.675  20.071  0.00  0.00    +0.000 N 
ATOM     16  H   UNL     1       3.545   7.276  20.586  0.00  0.00    +0.000 HD
BRANCH  15  17
ATOM     17  C   UNL     1       3.600   5.536  19.620  0.00  0.00    +0.000 A 
ATOM     18  N   UNL     1       4.915   5.629  19.369  0.00  0.00    +0.000 NA
ATOM     19  C   UNL     1       5.549   4.506  19.021  0.00  0.00    +0.000 A 
ATOM     20  N   UNL     1       4.996   3.301  18.873  0.00  0.00    +0.000 NA
ATOM     21  C   UNL     1       3.668   3.218  19.060  0.00  0.00    +0.000 A 
ATOM     22  C   UNL     1       3.014   1.997  18.885  0.00  0.00    +0.000 A 
ATOM     23  F   UNL     1       3.719   0.903  18.547  0.00  0.00    +0.000 F 
ATOM     24  C   UNL     1       1.635   1.849  19.039  0.00  0.00    +0.000 A 
ATOM     25  C   UNL     1       0.865   2.949  19.383  0.00  0.00    +0.000 A 
ATOM     26  C   UNL     1       1.490   4.179  19.581  0.00  0.00    +0.000 A 
ATOM     27  C   UNL     1       2.895   4.328  19.431  0.00  0.00    +0.000 A 
ENDBRANCH  15  17
ENDBRANCH   2  15
TORSDOF 4
ENDMDL
MODEL 2
REMARK VINA RESULT:      -8.4      4.247      8.929
REMARK  Name = 
REMARK  5 active torsions:
REMARK  status: ('A' for Active; 'I' for Inactive)
REMARK    1  A    between atoms: C_1  and  C_2
REMARK    2  A    between atoms: C_2  and  N_3
REMARK    3  A    between atoms: C_2  and  C_15
REMARK    4  A    between atoms: N_3  and  C_4
REMARK    5  A    between atoms: C_18  and  N_19
REMARK                            x       y       z     vdW  Elec       q    Type
REMARK                         _______ _______ _______ _____ _____    ______ ____
ROOT
ATOM      1  C   UNL     1       1.980   5.154  20.808  0.00  0.00    +0.000 C 
ATOM      2  C   UNL     1       1.923   6.254  19.737  0.00  0.00    +0.000 C 
ENDROOT
BRANCH   2   3
ATOM      3  C   UNL     1       2.906   5.913  18.616  0.00  0.00    +0.000 A 
ATOM      4  C   UNL     1       3.156   4.583  18.260  0.00  0.00    +0.000 A 
ATOM      5  C   UNL     1       4.041   4.268  17.214  0.00  0.00    +0.000 A 
ATOM      6  C   UNL     1       4.701   5.265  16.484  0.00  0.00    +0.000 A 
ATOM      7  C   UNL     1       4.477   6.593  16.873  0.00  0.00    +0.000 A 
ATOM      8  C   UNL     1       3.590   6.913  17.909  0.00  0.00    +0.000 A 
BRANCH   6   9
ATOM      9  N   UNL     1       5.538   4.965  15.371  0.00  0.00    +0.000 N 
ATOM     10  C   UNL     1       5.051   4.313  14.179  0.00  0.00    +0.000 C 
ATOM     11  C   UNL     1       6.295   3.749  13.526  0.00  0.00    +0.000 C 
ATOM     12  C   UNL     1       7.374   4.739  13.908  0.00  0.00    +0.000 C 
ATOM     13  C   UNL     1       6.902   5.274  15.242  0.00  0.00    +0.000 C 
ATOM     14  O   UNL     1       7.638   5.886  16.002  0.00  0.00    +0.000 OA
ENDBRANCH   6   9
ENDBRANCH   2   3
BRANCH   2  15
ATOM     15  N   UNL     1       2.279   7.583  20.251  0.00  0.00    +0.000 N 
ATOM     16  H   UNL     1       2.481   7.561  21.244  0.00  0.00    +0.000 HD
BRANCH  15  17
ATOM     17  C   UNL     1       1.457   8.683  19.957  0.00  0.00    +0.000 A 
ATOM     18  N   UNL     1       1.413   9.141  18.697  0.00  0.00    +0.000 NA
ATOM     19  C   UNL     1       0.558  10.136  18.440  0.00  0.00    +0.000 A 
ATOM     20  N   UNL     1      -0.240  10.737  19.324  0.00  0.00    +0.000 NA
ATOM     21  C   UNL     1      -0.149  10.326  20.599  0.00  0.00    +0.000 A 
ATOM     22  C   UNL     1      -0.926  10.936  21.587  0.00  0.00    +0.000 A 
ATOM     23  F   UNL     1      -1.776  11.924  21.254  0.00  0.00    +0.000 F 
ATOM     24  C   UNL     1      -0.860  10.573  22.932  0.00  0.00    +0.000 A 
ATOM     25  C   UNL     1       0.004   9.563  23.325  0.00  0.00    +0.000 A 
ATOM     26  C   UNL     1       0.780   8.922  22.362  0.00  0.00    +0.000 A 
ATOM     27  C   UNL     1       0.709   9.288  20.990  0.00  0.00    +0.000 A 
ENDBRANCH  15  17
ENDBRANCH   2  15
TORSDOF 4
ENDMDL
MODEL 3
REMARK VINA RESULT:      -8.4      4.288      8.891
REMARK  Name = 
REMARK  5 active torsions:
REMARK  status: ('A' for Active; 'I' for Inactive)
REMARK    1  A    between atoms: C_1  and  C_2
REMARK    2  A    between atoms: C_2  and  N_3
REMARK    3  A    between atoms: C_2  and  C_15
REMARK    4  A    between atoms: N_3  and  C_4
REMARK    5  A    between atoms: C_18  and  N_19
REMARK                            x       y       z     vdW  Elec       q    Type
REMARK                         _______ _______ _______ _____ _____    ______ ____
ROOT
ATOM      1  C   UNL     1       1.225   9.099  22.014  0.00  0.00    +0.000 C 
ATOM      2  C   UNL     1       0.692   9.054  20.575  0.00  0.00    +0.000 C 
ENDROOT
BRANCH   2   3
ATOM      3  C   UNL     1       1.646   8.225  19.712  0.00  0.00    +0.000 A 
ATOM      4  C   UNL     1       2.178   7.020  20.185  0.00  0.00    +0.000 A 
ATOM      5  C   UNL     1       3.036   6.245  19.386  0.00  0.00    +0.000 A 
ATOM      6  C   UNL     1       3.388   6.640  18.089  0.00  0.00    +0.000 A 
ATOM      7  C   UNL     1       2.885   7.868  17.637  0.00  0.00    +0.000 A 
ATOM      8  C   UNL     1       2.022   8.640  18.426  0.00  0.00    +0.000 A 
BRANCH   6   9
ATOM      9  N   UNL     1       4.192   5.827  17.238  0.00  0.00    +0.000 N 
ATOM     10  C   UNL     1       5.377   6.319  16.576  0.00  0.00    +0.000 C 
ATOM     11  C   UNL     1       5.599   5.349  15.436  0.00  0.00    +0.000 C 
ATOM     12  C   UNL     1       5.075   4.037  15.982  0.00  0.00    +0.000 C 
ATOM     13  C   UNL     1       3.993   4.467  16.948  0.00  0.00    +0.000 C 
ATOM     14  O   UNL     1       3.150   3.694  17.377  0.00  0.00    +0.000 OA
ENDBRANCH   6   9
ENDBRANCH   2   3
BRANCH   2  15
ATOM     15  N   UNL     1       0.575  10.382  19.957  0.00  0.00    +0.000 N 
ATOM     16  H   UNL     1       1.283  11.020  20.301  0.00  0.00    +0.000 HD
BRANCH  15  17
ATOM     17  C   UNL     1      -0.672  11.026  19.927  0.00  0.00    +0.000 A 
ATOM     18  N   UNL     1      -1.037  11.782  20.974  0.00  0.00    +0.000 NA
ATOM     19  C   UNL     1      -2.193  12.443  20.874  0.00  0.00    +0.000 A 
ATOM     20  N   UNL     1      -3.038  12.403  19.842  0.00  0.00    +0.000 NA
ATOM     21  C   UNL     1      -2.708  11.595  18.821  0.00  0.00    +0.000 A 
ATOM     22  C   UNL     1      -3.562  11.472  17.723  0.00  0.00    +0.000 A 
ATOM     23  F   UNL     1      -4.706  12.179  17.684  0.00  0.00    +0.000 F 
ATOM     24  C   UNL     1      -3.290  10.632  16.644  0.00  0.00    +0.000 A 
ATOM     25  C   UNL     1      -2.125   9.881  16.640  0.00  0.00    +0.000 A 
ATOM     26  C   UNL     1      -1.243   9.992  17.713  0.00  0.00    +0.000 A 
ATOM     27  C   UNL     1      -1.517  10.854  18.810  0.00  0.00    +0.000 A 
ENDBRANCH  15  17
ENDBRANCH   2  15
TORSDOF 4
ENDMDL
MODEL 4
REMARK VINA RESULT:      -8.3      4.425      8.974
REMARK  Name = 
REMARK  5 active torsions:
REMARK  status: ('A' for Active; 'I' for Inactive)
REMARK    1  A    between atoms: C_1  and  C_2
REMARK    2  A    between atoms: C_2  and  N_3
REMARK    3  A    between atoms: C_2  and  C_15
REMARK    4  A    between atoms: N_3  and  C_4
REMARK    5  A    between atoms: C_18  and  N_19
REMARK                            x       y       z     vdW  Elec       q    Type
REMARK                         _______ _______ _______ _____ _____    ______ ____
ROOT
ATOM      1  C   UNL     1       1.004   9.976  21.810  0.00  0.00    +0.000 C 
ATOM      2  C   UNL     1       0.335   9.611  20.477  0.00  0.00    +0.000 C 
ENDROOT
BRANCH   2   3
ATOM      3  C   UNL     1       1.264   8.688  19.685  0.00  0.00    +0.000 A 
ATOM      4  C   UNL     1       1.667   9.018  18.387  0.00  0.00    +0.000 A 
ATOM      5  C   UNL     1       2.539   8.183  17.666  0.00  0.00    +0.000 A 
ATOM      6  C   UNL     1       3.044   6.998  18.216  0.00  0.00    +0.000 A 
ATOM      7  C   UNL     1       2.603   6.654  19.501  0.00  0.00    +0.000 A 
ATOM      8  C   UNL     1       1.741   7.486  20.227  0.00  0.00    +0.000 A 
BRANCH   6   9
ATOM      9  N   UNL     1       3.990   6.183  17.529  0.00  0.00    +0.000 N 
ATOM     10  C   UNL     1       5.227   6.703  16.995  0.00  0.00    +0.000 C 
ATOM     11  C   UNL     1       5.643   5.682  15.957  0.00  0.00    +0.000 C 
ATOM     12  C   UNL     1       5.116   4.377  16.513  0.00  0.00    +0.000 C 
ATOM     13  C   UNL     1       3.896   4.801  17.303  0.00  0.00    +0.000 C 
ATOM     14  O   UNL     1       3.043   4.007  17.670  0.00  0.00    +0.000 OA
ENDBRANCH   6   9
ENDBRANCH   2   3
BRANCH   2  15
ATOM     15  N   UNL     1       0.045  10.779  19.633  0.00  0.00    +0.000 N 
ATOM     16  H   UNL     1       0.693  11.539  19.809  0.00  0.00    +0.000 HD
BRANCH  15  17
ATOM     17  C   UNL     1      -1.266  11.277  19.566  0.00  0.00    +0.000 A 
ATOM     18  N   UNL     1      -1.735  12.009  20.587  0.00  0.00    +0.000 NA
ATOM     19  C   UNL     1      -2.957  12.532  20.450  0.00  0.00    +0.000 A 
ATOM     20  N   UNL     1      -3.769  12.376  19.403  0.00  0.00    +0.000 NA
ATOM     21  C   UNL     1      -3.329  11.589  18.408  0.00  0.00    +0.000 A 
ATOM     22  C   UNL     1      -4.140  11.348  17.297  0.00  0.00    +0.000 A 
ATOM     23  F   UNL     1      -5.355  11.919  17.220  0.00  0.00    +0.000 F 
ATOM     24  C   UNL     1      -3.752  10.521  16.243  0.00  0.00    +0.000 A 
ATOM     25  C   UNL     1      -2.510   9.907  16.279  0.00  0.00    +0.000 A 
ATOM     26  C   UNL     1      -1.669  10.140  17.365  0.00  0.00    +0.000 A 
ATOM     27  C   UNL     1      -2.062  10.987  18.436  0.00  0.00    +0.000 A 
ENDBRANCH  15  17
ENDBRANCH   2  15
TORSDOF 4
ENDMDL
MODEL 5
REMARK VINA RESULT:      -8.3      4.548      8.957
REMARK  Name = 
REMARK  5 active torsions:
REMARK  status: ('A' for Active; 'I' for Inactive)
REMARK    1  A    between atoms: C_1  and  C_2
REMARK    2  A    between atoms: C_2  and  N_3
REMARK    3  A    between atoms: C_2  and  C_15
REMARK    4  A    between atoms: N_3  and  C_4
REMARK    5  A    between atoms: C_18  and  N_19
REMARK                            x       y       z     vdW  Elec       q    Type
REMARK                         _______ _______ _______ _____ _____    ______ ____
ROOT
ATOM      1  C   UNL     1       1.345  11.517  20.891  0.00  0.00    +0.000 C 
ATOM      2  C   UNL     1       0.385  10.610  20.109  0.00  0.00    +0.000 C 
ENDROOT
BRANCH   2   3
ATOM      3  C   UNL     1       1.160   9.407  19.569  0.00  0.00    +0.000 A 
ATOM      4  C   UNL     1       1.480   8.328  20.400  0.00  0.00    +0.000 A 
ATOM      5  C   UNL     1       2.172   7.210  19.900  0.00  0.00    +0.000 A 
ATOM      6  C   UNL     1       2.562   7.127  18.557  0.00  0.00    +0.000 A 
ATOM      7  C   UNL     1       2.273   8.230  17.740  0.00  0.00    +0.000 A 
ATOM      8  C   UNL     1       1.577   9.342  18.231  0.00  0.00    +0.000 A 
BRANCH   6   9
ATOM      9  N   UNL     1       3.191   5.968  18.018  0.00  0.00    +0.000 N 
ATOM     10  C   UNL     1       4.593   5.929  17.673  0.00  0.00    +0.000 C 
ATOM     11  C   UNL     1       4.707   4.768  16.708  0.00  0.00    +0.000 C 
ATOM     12  C   UNL     1       3.635   3.809  17.179  0.00  0.00    +0.000 C 
ATOM     13  C   UNL     1       2.589   4.723  17.780  0.00  0.00    +0.000 C 
ATOM     14  O   UNL     1       1.449   4.350  18.015  0.00  0.00    +0.000 OA
ENDBRANCH   6   9
ENDBRANCH   2   3
BRANCH   2  15
ATOM     15  N   UNL     1      -0.246  11.282  18.964  0.00  0.00    +0.000 N 
ATOM     16  H   UNL     1       0.268  12.109  18.684  0.00  0.00    +0.000 HD
BRANCH  15  17
ATOM     17  C   UNL     1      -1.621  11.565  18.999  0.00  0.00    +0.000 A 
ATOM     18  N   UNL     1      -2.134  12.156  20.088  0.00  0.00    +0.000 NA
ATOM     19  C   UNL     1      -3.429  12.483  20.051  0.00  0.00    +0.000 A 
ATOM     20  N   UNL     1      -4.271  12.254  19.041  0.00  0.00    +0.000 NA
ATOM     21  C   UNL     1      -3.777  11.603  17.976  0.00  0.00    +0.000 A 
ATOM     22  C   UNL     1      -4.608  11.294  16.898  0.00  0.00    +0.000 A 
ATOM     23  F   UNL     1      -5.900  11.665  16.922  0.00  0.00    +0.000 F 
ATOM     24  C   UNL     1      -4.162  10.598  15.774  0.00  0.00    +0.000 A 
ATOM     25  C   UNL     1      -2.839  10.190  15.704  0.00  0.00    +0.000 A 
ATOM     26  C   UNL     1      -1.979  10.497  16.756  0.00  0.00    +0.000 A 
ATOM     27  C   UNL     1      -2.432  11.212  17.898  0.00  0.00    +0.000 A 
ENDBRANCH  15  17
ENDBRANCH   2  15
TORSDOF 4
ENDMDL
MODEL 6
REMARK VINA RESULT:      -8.2      1.395      2.278
REMARK  Name = 
REMARK  5 active torsions:
REMARK  status: ('A' for Active; 'I' for Inactive)
REMARK    1  A    between atoms: C_1  and  C_2
REMARK    2  A    between atoms: C_2  and  N_3
REMARK    3  A    between atoms: C_2  and  C_15
REMARK    4  A    between atoms: N_3  and  C_4
REMARK    5  A    between atoms: C_18  and  N_19
REMARK                            x       y       z     vdW  Elec       q    Type
REMARK                         _______ _______ _______ _____ _____    ______ ____
ROOT
ATOM      1  C   UNL     1       2.425   8.842  18.019  0.00  0.00    +0.000 C 
ATOM      2  C   UNL     1       1.597   8.144  19.107  0.00  0.00    +0.000 C 
ENDROOT
BRANCH   2   3
ATOM      3  C   UNL     1       0.950   9.203  20.002  0.00  0.00    +0.000 A 
ATOM      4  C   UNL     1       0.450  10.392  19.460  0.00  0.00    +0.000 A 
ATOM      5  C   UNL     1      -0.166  11.356  20.278  0.00  0.00    +0.000 A 
ATOM      6  C   UNL     1      -0.310  11.167  21.658  0.00  0.00    +0.000 A 
ATOM      7  C   UNL     1       0.230   9.992  22.199  0.00  0.00    +0.000 A 
ATOM      8  C   UNL     1       0.837   9.023  21.389  0.00  0.00    +0.000 A 
BRANCH   6   9
ATOM      9  N   UNL     1      -1.002  12.097  22.485  0.00  0.00    +0.000 N 
ATOM     10  C   UNL     1      -2.222  11.767  23.183  0.00  0.00    +0.000 C 
ATOM     11  C   UNL     1      -2.854  13.109  23.487  0.00  0.00    +0.000 C 
ATOM     12  C   UNL     1      -1.664  14.026  23.670  0.00  0.00    +0.000 C 
ATOM     13  C   UNL     1      -0.609  13.414  22.774  0.00  0.00    +0.000 C 
ATOM     14  O   UNL     1       0.396  14.020  22.435  0.00  0.00    +0.000 OA
ENDBRANCH   6   9
ENDBRANCH   2   3
BRANCH   2  15
ATOM     15  N   UNL     1       2.397   7.263  19.970  0.00  0.00    +0.000 N 
ATOM     16  H   UNL     1       3.382   7.495  19.934  0.00  0.00    +0.000 HD
BRANCH  15  17
ATOM     17  C   UNL     1       2.232   5.871  19.881  0.00  0.00    +0.000 A 
ATOM     18  N   UNL     1       1.425   5.256  20.758  0.00  0.00    +0.000 NA
ATOM     19  C   UNL     1       1.231   3.945  20.592  0.00  0.00    +0.000 A 
ATOM     20  N   UNL     1       1.783   3.179  19.649  0.00  0.00    +0.000 NA
ATOM     21  C   UNL     1       2.643   3.779  18.810  0.00  0.00    +0.000 A 
ATOM     22  C   UNL     1       3.290   3.033  17.822  0.00  0.00    +0.000 A 
ATOM     23  F   UNL     1       3.036   1.718  17.703  0.00  0.00    +0.000 F 
ATOM     24  C   UNL     1       4.212   3.591  16.936  0.00  0.00    +0.000 A 
ATOM     25  C   UNL     1       4.510   4.942  17.022  0.00  0.00    +0.000 A 
ATOM     26  C   UNL     1       3.870   5.718  17.986  0.00  0.00    +0.000 A 
ATOM     27  C   UNL     1       2.926   5.151  18.884  0.00  0.00    +0.000 A 
ENDBRANCH  15  17
ENDBRANCH   2  15
TORSDOF 4
ENDMDL
MODEL 7
REMARK VINA RESULT:      -8.1      4.211      8.950
REMARK  Name = 
REMARK  5 active torsions:
REMARK  status: ('A' for Active; 'I' for Inactive)
REMARK    1  A    between atoms: C_1  and  C_2
REMARK    2  A    between atoms: C_2  and  N_3
REMARK    3  A    between atoms: C_2  and  C_15
REMARK    4  A    between atoms: N_3  and  C_4
REMARK    5  A    between atoms: C_18  and  N_19
REMARK                            x       y       z     vdW  Elec       q    Type
REMARK                         _______ _______ _______ _____ _____    ______ ____
ROOT
ATOM      1  C   UNL     1       1.241   8.744  21.697  0.00  0.00    +0.000 C 
ATOM      2  C   UNL     1       0.851   8.715  20.213  0.00  0.00    +0.000 C 
ENDROOT
BRANCH   2   3
ATOM      3  C   UNL     1       1.901   7.922  19.433  0.00  0.00    +0.000 A 
ATOM      4  C   UNL     1       2.398   8.395  18.214  0.00  0.00    +0.000 A 
ATOM      5  C   UNL     1       3.381   7.679  17.506  0.00  0.00    +0.000 A 
ATOM      6  C   UNL     1       3.904   6.474  17.991  0.00  0.00    +0.000 A 
ATOM      7  C   UNL     1       3.371   5.986  19.193  0.00  0.00    +0.000 A 
ATOM      8  C   UNL     1       2.398   6.699  19.906  0.00  0.00    +0.000 A 
BRANCH   6   9
ATOM      9  N   UNL     1       4.955   5.779  17.327  0.00  0.00    +0.000 N 
ATOM     10  C   UNL     1       5.168   5.861  15.901  0.00  0.00    +0.000 C 
ATOM     11  C   UNL     1       5.995   4.635  15.576  0.00  0.00    +0.000 C 
ATOM     12  C   UNL     1       6.818   4.422  16.828  0.00  0.00    +0.000 C 
ATOM     13  C   UNL     1       5.932   4.968  17.927  0.00  0.00    +0.000 C 
ATOM     14  O   UNL     1       6.125   4.724  19.108  0.00  0.00    +0.000 OA
ENDBRANCH   6   9
ENDBRANCH   2   3
BRANCH   2  15
ATOM     15  N   UNL     1       0.766  10.053  19.609  0.00  0.00    +0.000 N 
ATOM     16  H   UNL     1       1.542  10.641  19.888  0.00  0.00    +0.000 HD
BRANCH  15  17
ATOM     17  C   UNL     1      -0.435  10.776  19.695  0.00  0.00    +0.000 A 
ATOM     18  N   UNL     1      -0.658  11.537  20.777  0.00  0.00    +0.000 NA
ATOM     19  C   UNL     1      -1.772  12.273  20.785  0.00  0.00    +0.000 A 
ATOM     20  N   UNL     1      -2.702  12.306  19.828  0.00  0.00    +0.000 NA
ATOM     21  C   UNL     1      -2.515  11.495  18.774  0.00  0.00    +0.000 A 
ATOM     22  C   UNL     1      -3.466  11.447  17.752  0.00  0.00    +0.000 A 
ATOM     23  F   UNL     1      -4.560  12.227  17.820  0.00  0.00    +0.000 F 
ATOM     24  C   UNL     1      -3.343  10.609  16.644  0.00  0.00    +0.000 A 
ATOM     25  C   UNL     1      -2.235   9.784  16.532  0.00  0.00    +0.000 A 
ATOM     26  C   UNL     1      -1.259   9.820  17.526  0.00  0.00    +0.000 A 
ATOM     27  C   UNL     1      -1.381  10.678  18.652  0.00  0.00    +0.000 A 
ENDBRANCH  15  17
ENDBRANCH   2  15
TORSDOF 4
ENDMDL
MODEL 8
REMARK VINA RESULT:      -8.1      0.987      1.389
REMARK  Name = 
REMARK  5 active torsions:
REMARK  status: ('A' for Active; 'I' for Inactive)
REMARK    1  A    between atoms: C_1  and  C_2
REMARK    2  A    between atoms: C_2  and  N_3
REMARK    3  A    between atoms: C_2  and  C_15
REMARK    4  A    between atoms: N_3  and  C_4
REMARK    5  A    between atoms: C_18  and  N_19
REMARK                            x       y       z     vdW  Elec       q    Type
REMARK                         _______ _______ _______ _____ _____    ______ ____
ROOT
ATOM      1  C   UNL     1       3.078   8.121  17.821  0.00  0.00    +0.000 C 
ATOM      2  C   UNL     1       2.181   7.434  18.860  0.00  0.00    +0.000 C 
ENDROOT
BRANCH   2   3
ATOM      3  C   UNL     1       1.343   8.494  19.579  0.00  0.00    +0.000 A 
ATOM      4  C   UNL     1       1.004   9.693  18.943  0.00  0.00    +0.000 A 
ATOM      5  C   UNL     1       0.215  10.658  19.592  0.00  0.00    +0.000 A 
ATOM      6  C   UNL     1      -0.268  10.460  20.892  0.00  0.00    +0.000 A 
ATOM      7  C   UNL     1       0.110   9.274  21.538  0.00  0.00    +0.000 A 
ATOM      8  C   UNL     1       0.889   8.305  20.892  0.00  0.00    +0.000 A 
BRANCH   6   9
ATOM      9  N   UNL     1      -1.134  11.392  21.532  0.00  0.00    +0.000 N 
ATOM     10  C   UNL     1      -1.129  11.613  22.959  0.00  0.00    +0.000 C 
ATOM     11  C   UNL     1      -2.475  12.243  23.245  0.00  0.00    +0.000 C 
ATOM     12  C   UNL     1      -2.773  13.027  21.985  0.00  0.00    +0.000 C 
ATOM     13  C   UNL     1      -2.066  12.236  20.906  0.00  0.00    +0.000 C 
ATOM     14  O   UNL     1      -2.301  12.391  19.717  0.00  0.00    +0.000 OA
ENDBRANCH   6   9
ENDBRANCH   2   3
BRANCH   2  15
ATOM     15  N   UNL     1       2.937   6.698  19.883  0.00  0.00    +0.000 N 
ATOM     16  H   UNL     1       3.536   7.312  20.423  0.00  0.00    +0.000 HD
BRANCH  15  17
ATOM     17  C   UNL     1       3.645   5.540  19.522  0.00  0.00    +0.000 A 
ATOM     18  N   UNL     1       4.972   5.619  19.348  0.00  0.00    +0.000 NA
ATOM     19  C   UNL     1       5.621   4.481  19.085  0.00  0.00    +0.000 A 
ATOM     20  N   UNL     1       5.071   3.272  18.953  0.00  0.00    +0.000 NA
ATOM     21  C   UNL     1       3.735   3.201  19.060  0.00  0.00    +0.000 A 
ATOM     22  C   UNL     1       3.085   1.975  18.895  0.00  0.00    +0.000 A 
ATOM     23  F   UNL     1       3.804   0.866  18.645  0.00  0.00    +0.000 F 
ATOM     24  C   UNL     1       1.699   1.838  18.970  0.00  0.00    +0.000 A 
ATOM     25  C   UNL     1       0.915   2.953  19.222  0.00  0.00    +0.000 A 
ATOM     26  C   UNL     1       1.533   4.188  19.408  0.00  0.00    +0.000 A 
ATOM     27  C   UNL     1       2.946   4.327  19.339  0.00  0.00    +0.000 A 
ENDBRANCH  15  17
ENDBRANCH   2  15
TORSDOF 4
ENDMDL
MODEL 9
REMARK VINA RESULT:      -8.0      1.060      1.483
REMARK  Name = 
REMARK  5 active torsions:
REMARK  status: ('A' for Active; 'I' for Inactive)
REMARK    1  A    between atoms: C_1  and  C_2
REMARK    2  A    between atoms: C_2  and  N_3
REMARK    3  A    between atoms: C_2  and  C_15
REMARK    4  A    between atoms: N_3  and  C_4
REMARK    5  A    between atoms: C_18  and  N_19
REMARK                            x       y       z     vdW  Elec       q    Type
REMARK                         _______ _______ _______ _____ _____    ______ ____
ROOT
ATOM      1  C   UNL     1       3.297   8.050  17.653  0.00  0.00    +0.000 C 
ATOM      2  C   UNL     1       2.313   7.405  18.639  0.00  0.00    +0.000 C 
ENDROOT
BRANCH   2   3
ATOM      3  C   UNL     1       1.463   8.499  19.288  0.00  0.00    +0.000 A 
ATOM      4  C   UNL     1       1.007   9.591  18.542  0.00  0.00    +0.000 A 
ATOM      5  C   UNL     1       0.207  10.586  19.131  0.00  0.00    +0.000 A 
ATOM      6  C   UNL     1      -0.171  10.524  20.479  0.00  0.00    +0.000 A 
ATOM      7  C   UNL     1       0.324   9.448  21.230  0.00  0.00    +0.000 A 
ATOM      8  C   UNL     1       1.115   8.449  20.646  0.00  0.00    +0.000 A 
BRANCH   6   9
ATOM      9  N   UNL     1      -1.046  11.481  21.068  0.00  0.00    +0.000 N 
ATOM     10  C   UNL     1      -1.969  12.278  20.295  0.00  0.00    +0.000 C 
ATOM     11  C   UNL     1      -2.292  13.452  21.194  0.00  0.00    +0.000 C 
ATOM     12  C   UNL     1      -2.202  12.866  22.587  0.00  0.00    +0.000 C 
ATOM     13  C   UNL     1      -1.174  11.765  22.437  0.00  0.00    +0.000 C 
ATOM     14  O   UNL     1      -0.624  11.246  23.397  0.00  0.00    +0.000 OA
ENDBRANCH   6   9
ENDBRANCH   2   3
BRANCH   2  15
ATOM     15  N   UNL     1       2.977   6.660  19.718  0.00  0.00    +0.000 N 
ATOM     16  H   UNL     1       3.543   7.266  20.299  0.00  0.00    +0.000 HD
BRANCH  15  17
ATOM     17  C   UNL     1       3.690   5.489  19.414  0.00  0.00    +0.000 A 
ATOM     18  N   UNL     1       5.027   5.550  19.318  0.00  0.00    +0.000 NA
ATOM     19  C   UNL     1       5.676   4.401  19.109  0.00  0.00    +0.000 A 
ATOM     20  N   UNL     1       5.119   3.198  18.958  0.00  0.00    +0.000 NA
ATOM     21  C   UNL     1       3.778   3.143  18.987  0.00  0.00    +0.000 A 
ATOM     22  C   UNL     1       3.124   1.923  18.798  0.00  0.00    +0.000 A 
ATOM     23  F   UNL     1       3.843   0.803  18.605  0.00  0.00    +0.000 F 
ATOM     24  C   UNL     1       1.735   1.804  18.792  0.00  0.00    +0.000 A 
ATOM     25  C   UNL     1       0.952   2.931  18.982  0.00  0.00    +0.000 A 
ATOM     26  C   UNL     1       1.572   4.161  19.190  0.00  0.00    +0.000 A 
ATOM     27  C   UNL     1       2.988   4.282  19.204  0.00  0.00    +0.000 A 
ENDBRANCH  15  17
ENDBRANCH   2  15
TORSDOF 4
ENDMDL
