MODEL 1
REMARK VINA RESULT:      -8.2      0.000      0.000
REMARK  Name = 
REMARK  3 active torsions:
REMARK  status: ('A' for Active; 'I' for Inactive)
REMARK    1  A    between atoms: C_2  and  C_15
REMARK    2  A    between atoms: N_3  and  C_4
REMARK    3  A    between atoms: C_4  and  C_5
REMARK                            x       y       z     vdW  Elec       q    Type
REMARK                         _______ _______ _______ _____ _____    ______ ____
ROOT
ATOM      1  O   UNL     1       4.005   4.925  19.572  0.00  0.00    +0.000 OA
ATOM      2  C   UNL     1       3.603   5.768  18.779  0.00  0.00    +0.000 C 
ATOM      3  N   UNL     1       4.402   6.300  17.801  0.00  0.00    +0.000 N 
ATOM      4  H   UNL     1       4.053   7.021  17.172  0.00  0.00    +0.000 HD
ENDROOT
BRANCH   2   5
ATOM      5  C   UNL     1       2.216   6.424  18.863  0.00  0.00    +0.000 C 
ATOM      6  C   UNL     1       2.020   7.537  17.816  0.00  0.00    +0.000 C 
ATOM      7  C   UNL     1       2.256   8.931  18.373  0.00  0.00    +0.000 C 
ATOM      8  N   UNL     1       1.413   9.101  19.548  0.00  0.00    +0.000 N 
ATOM      9  C   UNL     1       0.297   9.930  19.607  0.00  0.00    +0.000 A 
ATOM     10  C   UNL     1      -0.497  10.188  18.344  0.00  0.00    +0.000 A 
ATOM     11  C   UNL     1      -1.556  11.003  18.373  0.00  0.00    +0.000 A 
ATOM     12  C   UNL     1      -1.890  11.610  19.593  0.00  0.00    +0.000 A 
ATOM     13  N   UNL     1      -2.824  12.462  19.961  0.00  0.00    +0.000 NA
ATOM     14  N   UNL     1      -2.615  12.668  21.308  0.00  0.00    +0.000 NA
ATOM     15  N   UNL     1      -1.587  11.957  21.756  0.00  0.00    +0.000 NA
ATOM     16  N   UNL     1      -1.122  11.284  20.687  0.00  0.00    +0.000 N 
ATOM     17  N   UNL     1      -0.050  10.455  20.757  0.00  0.00    +0.000 NA
ATOM     18  C   UNL     1       1.858   8.290  20.675  0.00  0.00    +0.000 C 
ATOM     19  C   UNL     1       1.775   6.805  20.299  0.00  0.00    +0.000 C 
ENDBRANCH   2   5
BRANCH   3  20
ATOM     20  C   UNL     1       5.818   6.024  17.676  0.00  0.00    +0.000 C 
BRANCH  20  21
ATOM     21  C   UNL     1       6.041   5.446  16.314  0.00  0.00    +0.000 A 
ATOM     22  N   UNL     1       5.317   4.498  15.741  0.00  0.00    +0.000 NA
ATOM     23  C   UNL     1       5.901   4.267  14.521  0.00  0.00    +0.000 A 
ATOM     24  C   UNL     1       5.548   3.349  13.522  0.00  0.00    +0.000 A 
ATOM     25  C   UNL     1       6.322   3.310  12.359  0.00  0.00    +0.000 A 
ATOM     26 CL   UNL     1       5.920   2.184  11.118  0.00  0.00    +0.000 Cl
ATOM     27  C   UNL     1       7.414   4.162  12.184  0.00  0.00    +0.000 A 
ATOM     28  C   UNL     1       7.777   5.088  13.171  0.00  0.00    +0.000 A 
ATOM     29  C   UNL     1       6.994   5.106  14.329  0.00  0.00    +0.000 A 
ATOM     30  N   UNL     1       7.055   5.853  15.479  0.00  0.00    +0.000 N 
ATOM     31  H   UNL     1       7.737   6.573  15.679  0.00  0.00    +0.000 HD
ENDBRANCH  20  21
ENDBRANCH   3  20
TORSDOF 3
ENDMDL
MODEL 2
REMARK VINA RESULT:      -8.1      5.796     11.649
REMARK  Name = 
REMARK  3 active torsions:
REMARK  status: ('A' for Active; 'I' for Inactive)
REMARK    1  A    between atoms: C_2  and  C_15
REMARK    2  A    between atoms: N_3  and  C_4
REMARK    3  A    between atoms: C_4  and  C_5
REMARK                            x       y       z     vdW  Elec       q    Type
REMARK                         _______ _______ _______ _____ _____    ______ ____
ROOT
ATOM      1  O   UNL     1       0.598  11.472  21.489  0.00  0.00    +0.000 OA
ATOM      2  C   UNL     1      -0.061  11.069  20.539  0.00  0.00    +0.000 C 
ATOM      3  N   UNL     1      -0.943  11.870  19.862  0.00  0.00    +0.000 N 
ATOM      4  H   UNL     1      -1.502  11.503  19.093  0.00  0.00    +0.000 HD
ENDROOT
BRANCH   2   5
ATOM      5  C   UNL     1      -0.083   9.603  20.077  0.00  0.00    +0.000 C 
ATOM      6  C   UNL     1       0.178   8.614  21.229  0.00  0.00    +0.000 C 
ATOM      7  C   UNL     1       1.621   8.139  21.296  0.00  0.00    +0.000 C 
ATOM      8  N   UNL     1       1.985   7.603  19.991  0.00  0.00    +0.000 N 
ATOM      9  C   UNL     1       2.194   6.254  19.723  0.00  0.00    +0.000 A 
ATOM     10  C   UNL     1       1.447   5.216  20.532  0.00  0.00    +0.000 A 
ATOM     11  C   UNL     1       1.656   3.914  20.308  0.00  0.00    +0.000 A 
ATOM     12  C   UNL     1       2.585   3.554  19.322  0.00  0.00    +0.000 A 
ATOM     13  N   UNL     1       3.040   2.401  18.875  0.00  0.00    +0.000 NA
ATOM     14  N   UNL     1       3.946   2.727  17.889  0.00  0.00    +0.000 NA
ATOM     15  N   UNL     1       4.040   4.042  17.728  0.00  0.00    +0.000 NA
ATOM     16  N   UNL     1       3.187   4.575  18.623  0.00  0.00    +0.000 N 
ATOM     17  N   UNL     1       3.022   5.914  18.764  0.00  0.00    +0.000 NA
ATOM     18  C   UNL     1       2.097   8.641  18.974  0.00  0.00    +0.000 C 
ATOM     19  C   UNL     1       0.737   9.326  18.792  0.00  0.00    +0.000 C 
ENDBRANCH   2   5
BRANCH   3  20
ATOM     20  C   UNL     1      -1.282  13.218  20.264  0.00  0.00    +0.000 C 
BRANCH  20  21
ATOM     21  C   UNL     1      -2.427  13.124  21.224  0.00  0.00    +0.000 A 
ATOM     22  N   UNL     1      -3.672  13.505  20.992  0.00  0.00    +0.000 NA
ATOM     23  C   UNL     1      -4.361  13.259  22.153  0.00  0.00    +0.000 A 
ATOM     24  C   UNL     1      -5.708  13.498  22.460  0.00  0.00    +0.000 A 
ATOM     25  C   UNL     1      -6.164  13.157  23.736  0.00  0.00    +0.000 A 
ATOM     26 CL   UNL     1      -7.812  13.449  24.146  0.00  0.00    +0.000 Cl
ATOM     27  C   UNL     1      -5.312  12.588  24.685  0.00  0.00    +0.000 A 
ATOM     28  C   UNL     1      -3.964  12.339  24.392  0.00  0.00    +0.000 A 
ATOM     29  C   UNL     1      -3.527  12.694  23.113  0.00  0.00    +0.000 A 
ATOM     30  N   UNL     1      -2.305  12.608  22.492  0.00  0.00    +0.000 N 
ATOM     31  H   UNL     1      -1.459  12.238  22.906  0.00  0.00    +0.000 HD
ENDBRANCH  20  21
ENDBRANCH   3  20
TORSDOF 3
ENDMDL
MODEL 3
REMARK VINA RESULT:      -8.1      5.232      9.228
REMARK  Name = 
REMARK  3 active torsions:
REMARK  status: ('A' for Active; 'I' for Inactive)
REMARK    1  A    between atoms: C_2  and  C_15
REMARK    2  A    between atoms: N_3  and  C_4
REMARK    3  A    between atoms: C_4  and  C_5
REMARK                            x       y       z     vdW  Elec       q    Type
REMARK                         _______ _______ _______ _____ _____    ______ ____
ROOT
ATOM      1  O   UNL     1       1.137  11.487  21.099  0.00  0.00    +0.000 OA
ATOM      2  C   UNL     1       0.812  11.109  19.980  0.00  0.00    +0.000 C 
ATOM      3  N   UNL     1       0.569  11.978  18.949  0.00  0.00    +0.000 N 
ATOM      4  H   UNL     1       0.272  11.641  18.036  0.00  0.00    +0.000 HD
ENDROOT
BRANCH   2   5
ATOM      5  C   UNL     1       0.508   9.643  19.631  0.00  0.00    +0.000 C 
ATOM      6  C   UNL     1       0.593   8.711  20.855  0.00  0.00    +0.000 C 
ATOM      7  C   UNL     1       1.921   7.978  20.959  0.00  0.00    +0.000 C 
ATOM      8  N   UNL     1       2.160   7.287  19.700  0.00  0.00    +0.000 N 
ATOM      9  C   UNL     1       2.108   5.907  19.534  0.00  0.00    +0.000 A 
ATOM     10  C   UNL     1       1.190   5.092  20.419  0.00  0.00    +0.000 A 
ATOM     11  C   UNL     1       1.146   3.761  20.295  0.00  0.00    +0.000 A 
ATOM     12  C   UNL     1       1.978   3.159  19.340  0.00  0.00    +0.000 A 
ATOM     13  N   UNL     1       2.201   1.911  18.983  0.00  0.00    +0.000 NA
ATOM     14  N   UNL     1       3.140   1.985  17.976  0.00  0.00    +0.000 NA
ATOM     15  N   UNL     1       3.477   3.243  17.716  0.00  0.00    +0.000 NA
ATOM     16  N   UNL     1       2.752   3.993  18.566  0.00  0.00    +0.000 N 
ATOM     17  N   UNL     1       2.845   5.346  18.605  0.00  0.00    +0.000 NA
ATOM     18  C   UNL     1       2.453   8.207  18.606  0.00  0.00    +0.000 C 
ATOM     19  C   UNL     1       1.244   9.120  18.371  0.00  0.00    +0.000 C 
ENDBRANCH   2   5
BRANCH   3  20
ATOM     20  C   UNL     1       0.548  13.418  19.096  0.00  0.00    +0.000 C 
BRANCH  20  21
ATOM     21  C   UNL     1       1.970  13.887  19.109  0.00  0.00    +0.000 A 
ATOM     22  N   UNL     1       2.750  14.038  18.051  0.00  0.00    +0.000 NA
ATOM     23  C   UNL     1       3.964  14.453  18.539  0.00  0.00    +0.000 A 
ATOM     24  C   UNL     1       5.152  14.739  17.851  0.00  0.00    +0.000 A 
ATOM     25  C   UNL     1       6.263  15.143  18.595  0.00  0.00    +0.000 A 
ATOM     26 CL   UNL     1       7.741  15.490  17.778  0.00  0.00    +0.000 Cl
ATOM     27  C   UNL     1       6.203  15.268  19.984  0.00  0.00    +0.000 A 
ATOM     28  C   UNL     1       5.022  14.990  20.686  0.00  0.00    +0.000 A 
ATOM     29  C   UNL     1       3.924  14.581  19.923  0.00  0.00    +0.000 A 
ATOM     30  N   UNL     1       2.641  14.225  20.260  0.00  0.00    +0.000 N 
ATOM     31  H   UNL     1       2.261  14.207  21.198  0.00  0.00    +0.000 HD
ENDBRANCH  20  21
ENDBRANCH   3  20
TORSDOF 3
ENDMDL
MODEL 4
REMARK VINA RESULT:      -8.0      5.474      9.313
REMARK  Name = 
REMARK  3 active torsions:
REMARK  status: ('A' for Active; 'I' for Inactive)
REMARK    1  A    between atoms: C_2  and  C_15
REMARK    2  A    between atoms: N_3  and  C_4
REMARK    3  A    between atoms: C_4  and  C_5
REMARK                            x       y       z     vdW  Elec       q    Type
REMARK                         _______ _______ _______ _____ _____    ______ ____
ROOT
ATOM      1  O   UNL     1       0.436  11.730  20.710  0.00  0.00    +0.000 OA
ATOM      2  C   UNL     1       0.562  11.215  19.606  0.00  0.00    +0.000 C 
ATOM      3  N   UNL     1       0.781  11.950  18.471  0.00  0.00    +0.000 N 
ATOM      4  H   UNL     1       0.853  11.501  17.560  0.00  0.00    +0.000 HD
ENDROOT
BRANCH   2   5
ATOM      5  C   UNL     1       0.358   9.715  19.338  0.00  0.00    +0.000 C 
ATOM      6  C   UNL     1       0.482   8.861  20.614  0.00  0.00    +0.000 C 
ATOM      7  C   UNL     1       1.852   8.223  20.777  0.00  0.00    +0.000 C 
ATOM      8  N   UNL     1       2.155   7.479  19.562  0.00  0.00    +0.000 N 
ATOM      9  C   UNL     1       2.194   6.091  19.476  0.00  0.00    +0.000 A 
ATOM     10  C   UNL     1       1.315   5.270  20.394  0.00  0.00    +0.000 A 
ATOM     11  C   UNL     1       1.358   3.934  20.345  0.00  0.00    +0.000 A 
ATOM     12  C   UNL     1       2.243   3.334  19.437  0.00  0.00    +0.000 A 
ATOM     13  N   UNL     1       2.551   2.085  19.155  0.00  0.00    +0.000 NA
ATOM     14  N   UNL     1       3.500   2.162  18.158  0.00  0.00    +0.000 NA
ATOM     15  N   UNL     1       3.761   3.423  17.831  0.00  0.00    +0.000 NA
ATOM     16  N   UNL     1       2.975   4.171  18.627  0.00  0.00    +0.000 N 
ATOM     17  N   UNL     1       2.981   5.527  18.589  0.00  0.00    +0.000 NA
ATOM     18  C   UNL     1       2.407   8.353  18.423  0.00  0.00    +0.000 C 
ATOM     19  C   UNL     1       1.147   9.172  18.119  0.00  0.00    +0.000 C 
ENDBRANCH   2   5
BRANCH   3  20
ATOM     20  C   UNL     1       0.765  13.397  18.430  0.00  0.00    +0.000 C 
BRANCH  20  21
ATOM     21  C   UNL     1       2.160  13.867  18.698  0.00  0.00    +0.000 A 
ATOM     22  N   UNL     1       2.640  14.260  19.867  0.00  0.00    +0.000 NA
ATOM     23  C   UNL     1       3.942  14.626  19.633  0.00  0.00    +0.000 A 
ATOM     24  C   UNL     1       4.899  15.135  20.521  0.00  0.00    +0.000 A 
ATOM     25  C   UNL     1       6.168  15.438  20.021  0.00  0.00    +0.000 A 
ATOM     26 CL   UNL     1       7.362  16.077  21.086  0.00  0.00    +0.000 Cl
ATOM     27  C   UNL     1       6.487  15.236  18.676  0.00  0.00    +0.000 A 
ATOM     28  C   UNL     1       5.542  14.723  17.777  0.00  0.00    +0.000 A 
ATOM     29  C   UNL     1       4.277  14.434  18.297  0.00  0.00    +0.000 A 
ATOM     30  N   UNL     1       3.130  13.940  17.726  0.00  0.00    +0.000 N 
ATOM     31  H   UNL     1       3.018  13.684  16.753  0.00  0.00    +0.000 HD
ENDBRANCH  20  21
ENDBRANCH   3  20
TORSDOF 3
ENDMDL
MODEL 5
REMARK VINA RESULT:      -8.0      5.867     11.607
REMARK  Name = 
REMARK  3 active torsions:
REMARK  status: ('A' for Active; 'I' for Inactive)
REMARK    1  A    between atoms: C_2  and  C_15
REMARK    2  A    between atoms: N_3  and  C_4
REMARK    3  A    between atoms: C_4  and  C_5
REMARK                            x       y       z     vdW  Elec       q    Type
REMARK                         _______ _______ _______ _____ _____    ______ ____
ROOT
ATOM      1  O   UNL     1       0.906  11.711  20.689  0.00  0.00    +0.000 OA
ATOM      2  C   UNL     1       0.041  11.186  19.999  0.00  0.00    +0.000 C 
ATOM      3  N   UNL     1      -1.057  11.869  19.547  0.00  0.00    +0.000 N 
ATOM      4  H   UNL     1      -1.777  11.402  18.999  0.00  0.00    +0.000 HD
ENDROOT
BRANCH   2   5
ATOM      5  C   UNL     1       0.010   9.685  19.669  0.00  0.00    +0.000 C 
ATOM      6  C   UNL     1       0.181   8.799  20.918  0.00  0.00    +0.000 C 
ATOM      7  C   UNL     1       1.605   8.304  21.111  0.00  0.00    +0.000 C 
ATOM      8  N   UNL     1       2.029   7.645  19.883  0.00  0.00    +0.000 N 
ATOM      9  C   UNL     1       2.220   6.274  19.748  0.00  0.00    +0.000 A 
ATOM     10  C   UNL     1       1.403   5.328  20.602  0.00  0.00    +0.000 A 
ATOM     11  C   UNL     1       1.592   4.008  20.507  0.00  0.00    +0.000 A 
ATOM     12  C   UNL     1       2.566   3.541  19.613  0.00  0.00    +0.000 A 
ATOM     13  N   UNL     1       3.017   2.344  19.298  0.00  0.00    +0.000 NA
ATOM     14  N   UNL     1       3.985   2.562  18.341  0.00  0.00    +0.000 NA
ATOM     15  N   UNL     1       4.120   3.855  18.070  0.00  0.00    +0.000 NA
ATOM     16  N   UNL     1       3.231   4.483  18.862  0.00  0.00    +0.000 N 
ATOM     17  N   UNL     1       3.092   5.833  18.873  0.00  0.00    +0.000 NA
ATOM     18  C   UNL     1       2.224   8.585  18.785  0.00  0.00    +0.000 C 
ATOM     19  C   UNL     1       0.893   9.277  18.463  0.00  0.00    +0.000 C 
ENDBRANCH   2   5
BRANCH   3  20
ATOM     20  C   UNL     1      -1.377  13.228  19.931  0.00  0.00    +0.000 C 
BRANCH  20  21
ATOM     21  C   UNL     1      -2.732  13.204  20.568  0.00  0.00    +0.000 A 
ATOM     22  N   UNL     1      -3.015  13.557  21.811  0.00  0.00    +0.000 NA
ATOM     23  C   UNL     1      -4.363  13.345  21.962  0.00  0.00    +0.000 A 
ATOM     24  C   UNL     1      -5.176  13.535  23.088  0.00  0.00    +0.000 A 
ATOM     25  C   UNL     1      -6.535  13.234  22.978  0.00  0.00    +0.000 A 
ATOM     26 CL   UNL     1      -7.558  13.446  24.349  0.00  0.00    +0.000 Cl
ATOM     27  C   UNL     1      -7.082  12.762  21.782  0.00  0.00    +0.000 A 
ATOM     28  C   UNL     1      -6.283  12.572  20.647  0.00  0.00    +0.000 A 
ATOM     29  C   UNL     1      -4.925  12.873  20.780  0.00  0.00    +0.000 A 
ATOM     30  N   UNL     1      -3.868  12.802  19.906  0.00  0.00    +0.000 N 
ATOM     31  H   UNL     1      -3.919  12.496  18.943  0.00  0.00    +0.000 HD
ENDBRANCH  20  21
ENDBRANCH   3  20
TORSDOF 3
ENDMDL
MODEL 6
REMARK VINA RESULT:      -8.0      5.630     11.030
REMARK  Name = 
REMARK  3 active torsions:
REMARK  status: ('A' for Active; 'I' for Inactive)
REMARK    1  A    between atoms: C_2  and  C_15
REMARK    2  A    between atoms: N_3  and  C_4
REMARK    3  A    between atoms: C_4  and  C_5
REMARK                            x       y       z     vdW  Elec       q    Type
REMARK                         _______ _______ _______ _____ _____    ______ ____
ROOT
ATOM      1  O   UNL     1       1.340  11.509  19.005  0.00  0.00    +0.000 OA
ATOM      2  C   UNL     1       0.453  10.794  18.557  0.00  0.00    +0.000 C 
ATOM      3  N   UNL     1      -0.759  11.289  18.153  0.00  0.00    +0.000 N 
ATOM      4  H   UNL     1      -1.492  10.670  17.811  0.00  0.00    +0.000 HD
ENDROOT
BRANCH   2   5
ATOM      5  C   UNL     1       0.534   9.259  18.515  0.00  0.00    +0.000 C 
ATOM      6  C   UNL     1       0.328   8.616  19.900  0.00  0.00    +0.000 C 
ATOM      7  C   UNL     1       1.633   8.253  20.591  0.00  0.00    +0.000 C 
ATOM      8  N   UNL     1       2.412   7.419  19.686  0.00  0.00    +0.000 N 
ATOM      9  C   UNL     1       2.646   6.060  19.870  0.00  0.00    +0.000 A 
ATOM     10  C   UNL     1       1.617   5.227  20.604  0.00  0.00    +0.000 A 
ATOM     11  C   UNL     1       1.837   3.925  20.814  0.00  0.00    +0.000 A 
ATOM     12  C   UNL     1       3.039   3.373  20.349  0.00  0.00    +0.000 A 
ATOM     13  N   UNL     1       3.573   2.171  20.408  0.00  0.00    +0.000 NA
ATOM     14  N   UNL     1       4.783   2.279  19.756  0.00  0.00    +0.000 NA
ATOM     15  N   UNL     1       4.983   3.512  19.302  0.00  0.00    +0.000 NA
ATOM     16  N   UNL     1       3.892   4.211  19.667  0.00  0.00    +0.000 N 
ATOM     17  N   UNL     1       3.745   5.530  19.387  0.00  0.00    +0.000 NA
ATOM     18  C   UNL     1       2.921   8.165  18.541  0.00  0.00    +0.000 C 
ATOM     19  C   UNL     1       1.743   8.705  17.720  0.00  0.00    +0.000 C 
ENDBRANCH   2   5
BRANCH   3  20
ATOM     20  C   UNL     1      -1.166  12.668  18.325  0.00  0.00    +0.000 C 
BRANCH  20  21
ATOM     21  C   UNL     1      -2.042  12.726  19.537  0.00  0.00    +0.000 A 
ATOM     22  N   UNL     1      -1.659  12.520  20.787  0.00  0.00    +0.000 NA
ATOM     23  C   UNL     1      -2.792  12.647  21.551  0.00  0.00    +0.000 A 
ATOM     24  C   UNL     1      -2.955  12.505  22.936  0.00  0.00    +0.000 A 
ATOM     25  C   UNL     1      -4.233  12.682  23.471  0.00  0.00    +0.000 A 
ATOM     26 CL   UNL     1      -4.467  12.503  25.169  0.00  0.00    +0.000 Cl
ATOM     27  C   UNL     1      -5.324  12.998  22.659  0.00  0.00    +0.000 A 
ATOM     28  C   UNL     1      -5.177  13.147  21.273  0.00  0.00    +0.000 A 
ATOM     29  C   UNL     1      -3.891  12.959  20.758  0.00  0.00    +0.000 A 
ATOM     30  N   UNL     1      -3.385  13.015  19.482  0.00  0.00    +0.000 N 
ATOM     31  H   UNL     1      -3.915  13.223  18.646  0.00  0.00    +0.000 HD
ENDBRANCH  20  21
ENDBRANCH   3  20
TORSDOF 3
ENDMDL
MODEL 7
REMARK VINA RESULT:      -8.0      3.815     10.452
REMARK  Name = 
REMARK  3 active torsions:
REMARK  status: ('A' for Active; 'I' for Inactive)
REMARK    1  A    between atoms: C_2  and  C_15
REMARK    2  A    between atoms: N_3  and  C_4
REMARK    3  A    between atoms: C_4  and  C_5
REMARK                            x       y       z     vdW  Elec       q    Type
REMARK                         _______ _______ _______ _____ _____    ______ ____
ROOT
ATOM      1  O   UNL     1       1.921   5.417  20.564  0.00  0.00    +0.000 OA
ATOM      2  C   UNL     1       2.180   6.359  19.826  0.00  0.00    +0.000 C 
ATOM      3  N   UNL     1       2.049   7.664  20.223  0.00  0.00    +0.000 N 
ATOM      4  H   UNL     1       2.242   8.430  19.581  0.00  0.00    +0.000 HD
ENDROOT
BRANCH   2   5
ATOM      5  C   UNL     1       2.549   6.203  18.342  0.00  0.00    +0.000 C 
ATOM      6  C   UNL     1       2.792   4.735  17.942  0.00  0.00    +0.000 C 
ATOM      7  C   UNL     1       4.264   4.356  17.921  0.00  0.00    +0.000 C 
ATOM      8  N   UNL     1       4.966   5.303  17.065  0.00  0.00    +0.000 N 
ATOM      9  C   UNL     1       5.498   4.995  15.817  0.00  0.00    +0.000 A 
ATOM     10  C   UNL     1       4.846   3.912  14.984  0.00  0.00    +0.000 A 
ATOM     11  C   UNL     1       5.358   3.583  13.794  0.00  0.00    +0.000 A 
ATOM     12  C   UNL     1       6.508   4.257  13.359  0.00  0.00    +0.000 A 
ATOM     13  N   UNL     1       7.267   4.168  12.286  0.00  0.00    +0.000 NA
ATOM     14  N   UNL     1       8.252   5.117  12.459  0.00  0.00    +0.000 NA
ATOM     15  N   UNL     1       8.098   5.776  13.602  0.00  0.00    +0.000 NA
ATOM     16  N   UNL     1       7.003   5.247  14.178  0.00  0.00    +0.000 N 
ATOM     17  N   UNL     1       6.541   5.663  15.384  0.00  0.00    +0.000 NA
ATOM     18  C   UNL     1       5.046   6.633  17.656  0.00  0.00    +0.000 C 
ATOM     19  C   UNL     1       3.631   7.194  17.845  0.00  0.00    +0.000 C 
ENDBRANCH   2   5
BRANCH   3  20
ATOM     20  C   UNL     1       1.481   8.069  21.492  0.00  0.00    +0.000 C 
BRANCH  20  21
ATOM     21  C   UNL     1       0.745   9.351  21.262  0.00  0.00    +0.000 A 
ATOM     22  N   UNL     1       0.724  10.395  22.075  0.00  0.00    +0.000 NA
ATOM     23  C   UNL     1      -0.095  11.319  21.477  0.00  0.00    +0.000 A 
ATOM     24  C   UNL     1      -0.480  12.591  21.921  0.00  0.00    +0.000 A 
ATOM     25  C   UNL     1      -1.340  13.340  21.114  0.00  0.00    +0.000 A 
ATOM     26 CL   UNL     1      -1.840  14.903  21.640  0.00  0.00    +0.000 Cl
ATOM     27  C   UNL     1      -1.806  12.846  19.894  0.00  0.00    +0.000 A 
ATOM     28  C   UNL     1      -1.427  11.578  19.433  0.00  0.00    +0.000 A 
ATOM     29  C   UNL     1      -0.571  10.843  20.259  0.00  0.00    +0.000 A 
ATOM     30  N   UNL     1      -0.013   9.594  20.141  0.00  0.00    +0.000 N 
ATOM     31  H   UNL     1      -0.148   8.959  19.365  0.00  0.00    +0.000 HD
ENDBRANCH  20  21
ENDBRANCH   3  20
TORSDOF 3
ENDMDL
MODEL 8
REMARK VINA RESULT:      -7.8      4.033      5.463
REMARK  Name = 
REMARK  3 active torsions:
REMARK  status: ('A' for Active; 'I' for Inactive)
REMARK    1  A    between atoms: C_2  and  C_15
REMARK    2  A    between atoms: N_3  and  C_4
REMARK    3  A    between atoms: C_4  and  C_5
REMARK                            x       y       z     vdW  Elec       q    Type
REMARK                         _______ _______ _______ _____ _____    ______ ____
ROOT
ATOM      1  O   UNL     1       2.461  10.868  17.929  0.00  0.00    +0.000 OA
ATOM      2  C   UNL     1       1.609  10.078  18.316  0.00  0.00    +0.000 C 
ATOM      3  N   UNL     1       1.811   8.723  18.326  0.00  0.00    +0.000 N 
ATOM      4  H   UNL     1       1.076   8.085  18.626  0.00  0.00    +0.000 HD
ENDROOT
BRANCH   2   5
ATOM      5  C   UNL     1       0.181  10.490  18.708  0.00  0.00    +0.000 C 
ATOM      6  C   UNL     1       0.007  12.018  18.798  0.00  0.00    +0.000 C 
ATOM      7  C   UNL     1       0.106  12.549  20.219  0.00  0.00    +0.000 C 
ATOM      8  N   UNL     1      -0.844  11.818  21.046  0.00  0.00    +0.000 N 
ATOM      9  C   UNL     1      -2.011  12.361  21.576  0.00  0.00    +0.000 A 
ATOM     10  C   UNL     1      -2.708  13.480  20.832  0.00  0.00    +0.000 A 
ATOM     11  C   UNL     1      -3.815  14.033  21.339  0.00  0.00    +0.000 A 
ATOM     12  C   UNL     1      -4.290  13.555  22.568  0.00  0.00    +0.000 A 
ATOM     13  N   UNL     1      -5.304  13.881  23.343  0.00  0.00    +0.000 NA
ATOM     14  N   UNL     1      -5.225  13.027  24.422  0.00  0.00    +0.000 NA
ATOM     15  N   UNL     1      -4.196  12.194  24.310  0.00  0.00    +0.000 NA
ATOM     16  N   UNL     1      -3.600  12.514  23.146  0.00  0.00    +0.000 N 
ATOM     17  N   UNL     1      -2.488  11.878  22.699  0.00  0.00    +0.000 NA
ATOM     18  C   UNL     1      -0.448  10.431  21.257  0.00  0.00    +0.000 C 
ATOM     19  C   UNL     1      -0.404   9.703  19.908  0.00  0.00    +0.000 C 
ENDBRANCH   2   5
BRANCH   3  20
ATOM     20  C   UNL     1       2.982   8.077  17.773  0.00  0.00    +0.000 C 
BRANCH  20  21
ATOM     21  C   UNL     1       3.143   6.766  18.476  0.00  0.00    +0.000 A 
ATOM     22  N   UNL     1       4.139   5.910  18.313  0.00  0.00    +0.000 NA
ATOM     23  C   UNL     1       3.856   4.846  19.132  0.00  0.00    +0.000 A 
ATOM     24  C   UNL     1       4.569   3.656  19.328  0.00  0.00    +0.000 A 
ATOM     25  C   UNL     1       4.054   2.718  20.226  0.00  0.00    +0.000 A 
ATOM     26 CL   UNL     1       4.903   1.240  20.479  0.00  0.00    +0.000 Cl
ATOM     27  C   UNL     1       2.865   2.952  20.920  0.00  0.00    +0.000 A 
ATOM     28  C   UNL     1       2.142   4.139  20.738  0.00  0.00    +0.000 A 
ATOM     29  C   UNL     1       2.672   5.061  19.830  0.00  0.00    +0.000 A 
ATOM     30  N   UNL     1       2.244   6.294  19.403  0.00  0.00    +0.000 N 
ATOM     31  H   UNL     1       1.405   6.766  19.713  0.00  0.00    +0.000 HD
ENDBRANCH  20  21
ENDBRANCH   3  20
TORSDOF 3
ENDMDL
MODEL 9
REMARK VINA RESULT:      -7.8      3.956      6.022
REMARK  Name = 
REMARK  3 active torsions:
REMARK  status: ('A' for Active; 'I' for Inactive)
REMARK    1  A    between atoms: C_2  and  C_15
REMARK    2  A    between atoms: N_3  and  C_4
REMARK    3  A    between atoms: C_4  and  C_5
REMARK                            x       y       z     vdW  Elec       q    Type
REMARK                         _______ _______ _______ _____ _____    ______ ____
ROOT
ATOM      1  O   UNL     1      -0.561   9.718  17.519  0.00  0.00    +0.000 OA
ATOM      2  C   UNL     1      -0.026  10.022  18.578  0.00  0.00    +0.000 C 
ATOM      3  N   UNL     1       1.314   9.845  18.805  0.00  0.00    +0.000 N 
ATOM      4  H   UNL     1       1.730  10.079  19.704  0.00  0.00    +0.000 HD
ENDROOT
BRANCH   2   5
ATOM      5  C   UNL     1      -0.799  10.509  19.814  0.00  0.00    +0.000 C 
ATOM      6  C   UNL     1      -1.758  11.671  19.496  0.00  0.00    +0.000 C 
ATOM      7  C   UNL     1      -1.179  13.035  19.834  0.00  0.00    +0.000 C 
ATOM      8  N   UNL     1      -0.751  13.016  21.226  0.00  0.00    +0.000 N 
ATOM      9  C   UNL     1      -1.382  13.706  22.256  0.00  0.00    +0.000 A 
ATOM     10  C   UNL     1      -2.870  13.971  22.164  0.00  0.00    +0.000 A 
ATOM     11  C   UNL     1      -3.489  14.656  23.130  0.00  0.00    +0.000 A 
ATOM     12  C   UNL     1      -2.721  15.124  24.206  0.00  0.00    +0.000 A 
ATOM     13  N   UNL     1      -2.995  15.833  25.282  0.00  0.00    +0.000 NA
ATOM     14  N   UNL     1      -1.795  15.955  25.950  0.00  0.00    +0.000 NA
ATOM     15  N   UNL     1      -0.814  15.331  25.308  0.00  0.00    +0.000 NA
ATOM     16  N   UNL     1      -1.383  14.802  24.209  0.00  0.00    +0.000 N 
ATOM     17  N   UNL     1      -0.676  14.097  23.291  0.00  0.00    +0.000 NA
ATOM     18  C   UNL     1       0.421  12.174  21.437  0.00  0.00    +0.000 C 
ATOM     19  C   UNL     1       0.079  10.724  21.073  0.00  0.00    +0.000 C 
ENDBRANCH   2   5
BRANCH   3  20
ATOM     20  C   UNL     1       2.207   9.175  17.883  0.00  0.00    +0.000 C 
BRANCH  20  21
ATOM     21  C   UNL     1       2.342   7.757  18.343  0.00  0.00    +0.000 A 
ATOM     22  N   UNL     1       2.678   6.722  17.590  0.00  0.00    +0.000 NA
ATOM     23  C   UNL     1       2.646   5.630  18.421  0.00  0.00    +0.000 A 
ATOM     24  C   UNL     1       2.898   4.282  18.133  0.00  0.00    +0.000 A 
ATOM     25  C   UNL     1       2.790   3.354  19.172  0.00  0.00    +0.000 A 
ATOM     26 CL   UNL     1       3.082   1.687  18.845  0.00  0.00    +0.000 Cl
ATOM     27  C   UNL     1       2.448   3.749  20.467  0.00  0.00    +0.000 A 
ATOM     28  C   UNL     1       2.198   5.094  20.772  0.00  0.00    +0.000 A 
ATOM     29  C   UNL     1       2.305   6.004  19.717  0.00  0.00    +0.000 A 
ATOM     30  N   UNL     1       2.127   7.364  19.642  0.00  0.00    +0.000 N 
ATOM     31  H   UNL     1       1.872   7.968  20.413  0.00  0.00    +0.000 HD
ENDBRANCH  20  21
ENDBRANCH   3  20
TORSDOF 3
ENDMDL
