MODEL 1
REMARK VINA RESULT:      -9.1      0.000      0.000
REMARK  Name = 
REMARK  4 active torsions:
REMARK  status: ('A' for Active; 'I' for Inactive)
REMARK    1  A    between atoms: C_2  and  C_3
REMARK    2  A    between atoms: C_3  and  C_4
REMARK    3  A    between atoms: N_14  and  C_15
REMARK    4  A    between atoms: C_20  and  C_21
REMARK                            x       y       z     vdW  Elec       q    Type
REMARK                         _______ _______ _______ _____ _____    ______ ____
ROOT
ATOM      1  O   UNL     1       1.833   7.802  20.578  0.00  0.00    +0.000 OA
ATOM      2  C   UNL     1       2.095   7.590  19.396  0.00  0.00    +0.000 C 
ATOM      3  N   UNL     1       2.431   6.365  18.834  0.00  0.00    +0.000 N 
ATOM      4  H   UNL     1       2.918   6.376  17.938  0.00  0.00    +0.000 HD
ENDROOT
BRANCH   3   5
ATOM      5  C   UNL     1       2.319   5.092  19.458  0.00  0.00    +0.000 A 
ATOM      6  C   UNL     1       1.357   4.878  20.465  0.00  0.00    +0.000 A 
ATOM      7  C   UNL     1       1.204   3.640  21.089  0.00  0.00    +0.000 A 
ATOM      8  C   UNL     1       2.006   2.580  20.712  0.00  0.00    +0.000 A 
ATOM      9  C   UNL     1       2.955   2.761  19.707  0.00  0.00    +0.000 A 
ATOM     10  C   UNL     1       3.131   4.004  19.047  0.00  0.00    +0.000 A 
BRANCH  10  11
ATOM     11  C   UNL     1       4.168   4.120  17.987  0.00  0.00    +0.000 A 
ATOM     12  N   UNL     1       4.010   3.803  16.713  0.00  0.00    +0.000 NA
ATOM     13  C   UNL     1       5.143   4.162  15.981  0.00  0.00    +0.000 A 
ATOM     14  C   UNL     1       5.312   4.060  14.582  0.00  0.00    +0.000 A 
ATOM     15  C   UNL     1       6.519   4.458  13.990  0.00  0.00    +0.000 A 
ATOM     16  C   UNL     1       7.556   4.965  14.768  0.00  0.00    +0.000 A 
ATOM     17  C   UNL     1       7.412   5.085  16.150  0.00  0.00    +0.000 A 
ATOM     18  C   UNL     1       6.200   4.675  16.732  0.00  0.00    +0.000 A 
ATOM     19  S   UNL     1       5.752   4.695  18.382  0.00  0.00    +0.000 S 
ENDBRANCH  10  11
ENDBRANCH   3   5
BRANCH   2  20
ATOM     20  C   UNL     1       2.049   8.734  18.401  0.00  0.00    +0.000 C 
BRANCH  20  21
ATOM     21  C   UNL     1       0.859   9.642  18.569  0.00  0.00    +0.000 A 
ATOM     22  C   UNL     1       0.830  10.625  19.572  0.00  0.00    +0.000 A 
ATOM     23  C   UNL     1      -0.290  11.443  19.731  0.00  0.00    +0.000 A 
ATOM     24  C   UNL     1      -1.395  11.275  18.902  0.00  0.00    +0.000 A 
ATOM     25  C   UNL     1      -1.374  10.302  17.899  0.00  0.00    +0.000 A 
ATOM     26  C   UNL     1      -0.261   9.477  17.745  0.00  0.00    +0.000 A 
ATOM     27  O   UNL     1      -2.414  10.090  17.030  0.00  0.00    +0.000 OA
ATOM     28  C   UNL     1      -3.316  11.200  17.030  0.00  0.00    +0.000 C 
ATOM     29  C   UNL     1      -3.639  11.633  18.450  0.00  0.00    +0.000 C 
ATOM     30  O   UNL     1      -2.466  12.104  19.121  0.00  0.00    +0.000 OA
ENDBRANCH  20  21
ENDBRANCH   2  20
TORSDOF 4
ENDMDL
MODEL 2
REMARK VINA RESULT:      -8.9      1.338      1.480
REMARK  Name = 
REMARK  4 active torsions:
REMARK  status: ('A' for Active; 'I' for Inactive)
REMARK    1  A    between atoms: C_2  and  C_3
REMARK    2  A    between atoms: C_3  and  C_4
REMARK    3  A    between atoms: N_14  and  C_15
REMARK    4  A    between atoms: C_20  and  C_21
REMARK                            x       y       z     vdW  Elec       q    Type
REMARK                         _______ _______ _______ _____ _____    ______ ____
ROOT
ATOM      1  O   UNL     1       3.755   7.075  19.316  0.00  0.00    +0.000 OA
ATOM      2  C   UNL     1       2.682   6.911  18.743  0.00  0.00    +0.000 C 
ATOM      3  N   UNL     1       1.922   5.747  18.735  0.00  0.00    +0.000 N 
ATOM      4  H   UNL     1       1.235   5.638  17.990  0.00  0.00    +0.000 HD
ENDROOT
BRANCH   3   5
ATOM      5  C   UNL     1       2.119   4.606  19.562  0.00  0.00    +0.000 A 
ATOM      6  C   UNL     1       1.227   4.333  20.618  0.00  0.00    +0.000 A 
ATOM      7  C   UNL     1       1.376   3.216  21.440  0.00  0.00    +0.000 A 
ATOM      8  C   UNL     1       2.417   2.336  21.217  0.00  0.00    +0.000 A 
ATOM      9  C   UNL     1       3.304   2.575  20.168  0.00  0.00    +0.000 A 
ATOM     10  C   UNL     1       3.178   3.697  19.309  0.00  0.00    +0.000 A 
BRANCH  10  11
ATOM     11  C   UNL     1       4.167   3.885  18.214  0.00  0.00    +0.000 A 
ATOM     12  N   UNL     1       3.942   3.686  16.927  0.00  0.00    +0.000 NA
ATOM     13  C   UNL     1       5.049   4.086  16.175  0.00  0.00    +0.000 A 
ATOM     14  C   UNL     1       5.149   4.105  14.766  0.00  0.00    +0.000 A 
ATOM     15  C   UNL     1       6.337   4.530  14.153  0.00  0.00    +0.000 A 
ATOM     16  C   UNL     1       7.421   4.945  14.921  0.00  0.00    +0.000 A 
ATOM     17  C   UNL     1       7.345   4.945  16.314  0.00  0.00    +0.000 A 
ATOM     18  C   UNL     1       6.152   4.509  16.916  0.00  0.00    +0.000 A 
ATOM     19  S   UNL     1       5.781   4.392  18.581  0.00  0.00    +0.000 S 
ENDBRANCH  10  11
ENDBRANCH   3   5
BRANCH   2  20
ATOM     20  C   UNL     1       2.064   8.056  17.963  0.00  0.00    +0.000 C 
BRANCH  20  21
ATOM     21  C   UNL     1       1.268   9.012  18.811  0.00  0.00    +0.000 A 
ATOM     22  C   UNL     1       1.139   8.820  20.196  0.00  0.00    +0.000 A 
ATOM     23  C   UNL     1       0.378   9.703  20.966  0.00  0.00    +0.000 A 
ATOM     24  C   UNL     1      -0.273  10.771  20.357  0.00  0.00    +0.000 A 
ATOM     25  C   UNL     1      -0.146  10.972  18.979  0.00  0.00    +0.000 A 
ATOM     26  C   UNL     1       0.604  10.087  18.207  0.00  0.00    +0.000 A 
ATOM     27  O   UNL     1      -0.739  12.012  18.310  0.00  0.00    +0.000 OA
ATOM     28  C   UNL     1      -1.155  13.036  19.220  0.00  0.00    +0.000 C 
ATOM     29  C   UNL     1      -1.884  12.436  20.410  0.00  0.00    +0.000 C 
ATOM     30  O   UNL     1      -1.012  11.591  21.170  0.00  0.00    +0.000 OA
ENDBRANCH  20  21
ENDBRANCH   2  20
TORSDOF 4
ENDMDL
MODEL 3
REMARK VINA RESULT:      -8.9      1.752      2.355
REMARK  Name = 
REMARK  4 active torsions:
REMARK  status: ('A' for Active; 'I' for Inactive)
REMARK    1  A    between atoms: C_2  and  C_3
REMARK    2  A    between atoms: C_3  and  C_4
REMARK    3  A    between atoms: N_14  and  C_15
REMARK    4  A    between atoms: C_20  and  C_21
REMARK                            x       y       z     vdW  Elec       q    Type
REMARK                         _______ _______ _______ _____ _____    ______ ____
ROOT
ATOM      1  O   UNL     1       2.823   7.592  19.794  0.00  0.00    +0.000 OA
ATOM      2  C   UNL     1       2.198   7.167  18.826  0.00  0.00    +0.000 C 
ATOM      3  N   UNL     1       1.928   5.834  18.540  0.00  0.00    +0.000 N 
ATOM      4  H   UNL     1       1.685   5.599  17.578  0.00  0.00    +0.000 HD
ENDROOT
BRANCH   3   5
ATOM      5  C   UNL     1       2.122   4.729  19.414  0.00  0.00    +0.000 A 
ATOM      6  C   UNL     1       1.209   4.482  20.458  0.00  0.00    +0.000 A 
ATOM      7  C   UNL     1       1.355   3.399  21.326  0.00  0.00    +0.000 A 
ATOM      8  C   UNL     1       2.414   2.528  21.161  0.00  0.00    +0.000 A 
ATOM      9  C   UNL     1       3.322   2.741  20.125  0.00  0.00    +0.000 A 
ATOM     10  C   UNL     1       3.200   3.827  19.221  0.00  0.00    +0.000 A 
BRANCH  10  11
ATOM     11  C   UNL     1       4.211   3.989  18.143  0.00  0.00    +0.000 A 
ATOM     12  N   UNL     1       4.041   3.677  16.870  0.00  0.00    +0.000 NA
ATOM     13  C   UNL     1       5.147   4.083  16.120  0.00  0.00    +0.000 A 
ATOM     14  C   UNL     1       5.292   3.999  14.717  0.00  0.00    +0.000 A 
ATOM     15  C   UNL     1       6.473   4.446  14.106  0.00  0.00    +0.000 A 
ATOM     16  C   UNL     1       7.505   4.984  14.870  0.00  0.00    +0.000 A 
ATOM     17  C   UNL     1       7.384   5.087  16.255  0.00  0.00    +0.000 A 
ATOM     18  C   UNL     1       6.199   4.628  16.856  0.00  0.00    +0.000 A 
ATOM     19  S   UNL     1       5.781   4.618  18.514  0.00  0.00    +0.000 S 
ENDBRANCH  10  11
ENDBRANCH   3   5
BRANCH   2  20
ATOM     20  C   UNL     1       1.625   8.143  17.816  0.00  0.00    +0.000 C 
BRANCH  20  21
ATOM     21  C   UNL     1       1.362   9.516  18.375  0.00  0.00    +0.000 A 
ATOM     22  C   UNL     1       0.275   9.756  19.232  0.00  0.00    +0.000 A 
ATOM     23  C   UNL     1       0.030  11.040  19.724  0.00  0.00    +0.000 A 
ATOM     24  C   UNL     1       0.858  12.095  19.352  0.00  0.00    +0.000 A 
ATOM     25  C   UNL     1       1.944  11.864  18.503  0.00  0.00    +0.000 A 
ATOM     26  C   UNL     1       2.185  10.586  18.003  0.00  0.00    +0.000 A 
ATOM     27  O   UNL     1       2.816  12.847  18.109  0.00  0.00    +0.000 OA
ATOM     28  C   UNL     1       2.706  13.998  18.951  0.00  0.00    +0.000 C 
ATOM     29  C   UNL     1       1.250  14.371  19.167  0.00  0.00    +0.000 C 
ATOM     30  O   UNL     1       0.553  13.331  19.862  0.00  0.00    +0.000 OA
ENDBRANCH  20  21
ENDBRANCH   2  20
TORSDOF 4
ENDMDL
MODEL 4
REMARK VINA RESULT:      -8.8      1.190      1.575
REMARK  Name = 
REMARK  4 active torsions:
REMARK  status: ('A' for Active; 'I' for Inactive)
REMARK    1  A    between atoms: C_2  and  C_3
REMARK    2  A    between atoms: C_3  and  C_4
REMARK    3  A    between atoms: N_14  and  C_15
REMARK    4  A    between atoms: C_20  and  C_21
REMARK                            x       y       z     vdW  Elec       q    Type
REMARK                         _______ _______ _______ _____ _____    ______ ____
ROOT
ATOM      1  O   UNL     1       2.293   7.923  20.035  0.00  0.00    +0.000 OA
ATOM      2  C   UNL     1       2.117   7.475  18.906  0.00  0.00    +0.000 C 
ATOM      3  N   UNL     1       2.253   6.148  18.516  0.00  0.00    +0.000 N 
ATOM      4  H   UNL     1       2.386   5.961  17.522  0.00  0.00    +0.000 HD
ENDROOT
BRANCH   3   5
ATOM      5  C   UNL     1       2.399   5.027  19.379  0.00  0.00    +0.000 A 
ATOM      6  C   UNL     1       1.525   4.854  20.470  0.00  0.00    +0.000 A 
ATOM      7  C   UNL     1       1.625   3.760  21.330  0.00  0.00    +0.000 A 
ATOM      8  C   UNL     1       2.596   2.803  21.109  0.00  0.00    +0.000 A 
ATOM      9  C   UNL     1       3.463   2.942  20.027  0.00  0.00    +0.000 A 
ATOM     10  C   UNL     1       3.386   4.038  19.130  0.00  0.00    +0.000 A 
BRANCH  10  11
ATOM     11  C   UNL     1       4.349   4.118  18.000  0.00  0.00    +0.000 A 
ATOM     12  N   UNL     1       4.095   3.794  16.744  0.00  0.00    +0.000 NA
ATOM     13  C   UNL     1       5.184   4.118  15.931  0.00  0.00    +0.000 A 
ATOM     14  C   UNL     1       5.253   3.999  14.525  0.00  0.00    +0.000 A 
ATOM     15  C   UNL     1       6.425   4.362  13.847  0.00  0.00    +0.000 A 
ATOM     16  C   UNL     1       7.525   4.850  14.546  0.00  0.00    +0.000 A 
ATOM     17  C   UNL     1       7.481   4.987  15.933  0.00  0.00    +0.000 A 
ATOM     18  C   UNL     1       6.302   4.611  16.602  0.00  0.00    +0.000 A 
ATOM     19  S   UNL     1       5.970   4.658  18.278  0.00  0.00    +0.000 S 
ENDBRANCH  10  11
ENDBRANCH   3   5
BRANCH   2  20
ATOM     20  C   UNL     1       1.694   8.407  17.785  0.00  0.00    +0.000 C 
BRANCH  20  21
ATOM     21  C   UNL     1       1.304   9.784  18.252  0.00  0.00    +0.000 A 
ATOM     22  C   UNL     1       2.202  10.861  18.168  0.00  0.00    +0.000 A 
ATOM     23  C   UNL     1       1.835  12.128  18.627  0.00  0.00    +0.000 A 
ATOM     24  C   UNL     1       0.576  12.325  19.188  0.00  0.00    +0.000 A 
ATOM     25  C   UNL     1      -0.325  11.259  19.272  0.00  0.00    +0.000 A 
ATOM     26  C   UNL     1       0.043   9.992  18.824  0.00  0.00    +0.000 A 
ATOM     27  O   UNL     1      -1.588  11.379  19.792  0.00  0.00    +0.000 OA
ATOM     28  C   UNL     1      -1.984  12.751  19.868  0.00  0.00    +0.000 C 
ATOM     29  C   UNL     1      -0.875  13.599  20.467  0.00  0.00    +0.000 C 
ATOM     30  O   UNL     1       0.286  13.590  19.629  0.00  0.00    +0.000 OA
ENDBRANCH  20  21
ENDBRANCH   2  20
TORSDOF 4
ENDMDL
MODEL 5
REMARK VINA RESULT:      -8.8      1.801      2.373
REMARK  Name = 
REMARK  4 active torsions:
REMARK  status: ('A' for Active; 'I' for Inactive)
REMARK    1  A    between atoms: C_2  and  C_3
REMARK    2  A    between atoms: C_3  and  C_4
REMARK    3  A    between atoms: N_14  and  C_15
REMARK    4  A    between atoms: C_20  and  C_21
REMARK                            x       y       z     vdW  Elec       q    Type
REMARK                         _______ _______ _______ _____ _____    ______ ____
ROOT
ATOM      1  O   UNL     1       1.615   5.588  17.763  0.00  0.00    +0.000 OA
ATOM      2  C   UNL     1       2.308   6.306  18.480  0.00  0.00    +0.000 C 
ATOM      3  N   UNL     1       2.870   5.953  19.701  0.00  0.00    +0.000 N 
ATOM      4  H   UNL     1       3.147   6.709  20.327  0.00  0.00    +0.000 HD
ENDROOT
BRANCH   3   5
ATOM      5  C   UNL     1       2.945   4.642  20.247  0.00  0.00    +0.000 A 
ATOM      6  C   UNL     1       2.163   4.294  21.366  0.00  0.00    +0.000 A 
ATOM      7  C   UNL     1       2.195   3.015  21.921  0.00  0.00    +0.000 A 
ATOM      8  C   UNL     1       3.003   2.046  21.360  0.00  0.00    +0.000 A 
ATOM      9  C   UNL     1       3.775   2.360  20.242  0.00  0.00    +0.000 A 
ATOM     10  C   UNL     1       3.761   3.648  19.649  0.00  0.00    +0.000 A 
BRANCH  10  11
ATOM     11  C   UNL     1       4.616   3.906  18.459  0.00  0.00    +0.000 A 
ATOM     12  N   UNL     1       4.385   3.471  17.233  0.00  0.00    +0.000 NA
ATOM     13  C   UNL     1       5.317   4.011  16.344  0.00  0.00    +0.000 A 
ATOM     14  C   UNL     1       5.340   3.846  14.941  0.00  0.00    +0.000 A 
ATOM     15  C   UNL     1       6.351   4.451  14.180  0.00  0.00    +0.000 A 
ATOM     16  C   UNL     1       7.332   5.224  14.794  0.00  0.00    +0.000 A 
ATOM     17  C   UNL     1       7.327   5.411  16.176  0.00  0.00    +0.000 A 
ATOM     18  C   UNL     1       6.313   4.793  16.928  0.00  0.00    +0.000 A 
ATOM     19  S   UNL     1       6.067   4.836  18.619  0.00  0.00    +0.000 S 
ENDBRANCH  10  11
ENDBRANCH   3   5
BRANCH   2  20
ATOM     20  C   UNL     1       2.629   7.721  18.039  0.00  0.00    +0.000 C 
BRANCH  20  21
ATOM     21  C   UNL     1       1.786   8.775  18.707  0.00  0.00    +0.000 A 
ATOM     22  C   UNL     1       1.308   9.885  17.990  0.00  0.00    +0.000 A 
ATOM     23  C   UNL     1       0.547  10.866  18.629  0.00  0.00    +0.000 A 
ATOM     24  C   UNL     1       0.272  10.755  19.989  0.00  0.00    +0.000 A 
ATOM     25  C   UNL     1       0.741   9.652  20.708  0.00  0.00    +0.000 A 
ATOM     26  C   UNL     1       1.509   8.677  20.075  0.00  0.00    +0.000 A 
ATOM     27  O   UNL     1       0.494   9.462  22.044  0.00  0.00    +0.000 OA
ATOM     28  C   UNL     1      -0.581  10.293  22.490  0.00  0.00    +0.000 C 
ATOM     29  C   UNL     1      -0.410  11.715  21.984  0.00  0.00    +0.000 C 
ATOM     30  O   UNL     1      -0.471  11.760  20.554  0.00  0.00    +0.000 OA
ENDBRANCH  20  21
ENDBRANCH   2  20
TORSDOF 4
ENDMDL
MODEL 6
REMARK VINA RESULT:      -8.7      4.232      9.034
REMARK  Name = 
REMARK  4 active torsions:
REMARK  status: ('A' for Active; 'I' for Inactive)
REMARK    1  A    between atoms: C_2  and  C_3
REMARK    2  A    between atoms: C_3  and  C_4
REMARK    3  A    between atoms: N_14  and  C_15
REMARK    4  A    between atoms: C_20  and  C_21
REMARK                            x       y       z     vdW  Elec       q    Type
REMARK                         _______ _______ _______ _____ _____    ______ ____
ROOT
ATOM      1  O   UNL     1      -0.269   9.996  18.275  0.00  0.00    +0.000 OA
ATOM      2  C   UNL     1       0.884  10.133  18.676  0.00  0.00    +0.000 C 
ATOM      3  N   UNL     1       1.281  10.795  19.832  0.00  0.00    +0.000 N 
ATOM      4  H   UNL     1       2.251  11.103  19.888  0.00  0.00    +0.000 HD
ENDROOT
BRANCH   3   5
ATOM      5  C   UNL     1       0.431  11.243  20.881  0.00  0.00    +0.000 A 
ATOM      6  C   UNL     1      -0.197  10.312  21.731  0.00  0.00    +0.000 A 
ATOM      7  C   UNL     1      -1.024  10.711  22.781  0.00  0.00    +0.000 A 
ATOM      8  C   UNL     1      -1.233  12.056  23.014  0.00  0.00    +0.000 A 
ATOM      9  C   UNL     1      -0.610  12.998  22.196  0.00  0.00    +0.000 A 
ATOM     10  C   UNL     1       0.241  12.627  21.125  0.00  0.00    +0.000 A 
BRANCH  10  11
ATOM     11  C   UNL     1       0.867  13.691  20.295  0.00  0.00    +0.000 A 
ATOM     12  N   UNL     1       2.020  13.596  19.656  0.00  0.00    +0.000 NA
ATOM     13  C   UNL     1       2.234  14.732  18.872  0.00  0.00    +0.000 A 
ATOM     14  C   UNL     1       3.310  14.954  17.984  0.00  0.00    +0.000 A 
ATOM     15  C   UNL     1       3.391  16.156  17.267  0.00  0.00    +0.000 A 
ATOM     16  C   UNL     1       2.412  17.135  17.413  0.00  0.00    +0.000 A 
ATOM     17  C   UNL     1       1.334  16.937  18.276  0.00  0.00    +0.000 A 
ATOM     18  C   UNL     1       1.270  15.731  18.995  0.00  0.00    +0.000 A 
ATOM     19  S   UNL     1       0.085  15.226  20.120  0.00  0.00    +0.000 S 
ENDBRANCH  10  11
ENDBRANCH   3   5
BRANCH   2  20
ATOM     20  C   UNL     1       2.030   9.529  17.886  0.00  0.00    +0.000 C 
BRANCH  20  21
ATOM     21  C   UNL     1       2.427   8.151  18.345  0.00  0.00    +0.000 A 
ATOM     22  C   UNL     1       1.980   7.636  19.573  0.00  0.00    +0.000 A 
ATOM     23  C   UNL     1       2.376   6.365  19.996  0.00  0.00    +0.000 A 
ATOM     24  C   UNL     1       3.233   5.607  19.203  0.00  0.00    +0.000 A 
ATOM     25  C   UNL     1       3.679   6.109  17.978  0.00  0.00    +0.000 A 
ATOM     26  C   UNL     1       3.294   7.381  17.559  0.00  0.00    +0.000 A 
ATOM     27  O   UNL     1       4.506   5.414  17.133  0.00  0.00    +0.000 OA
ATOM     28  C   UNL     1       4.532   4.024  17.470  0.00  0.00    +0.000 C 
ATOM     29  C   UNL     1       4.707   3.835  18.967  0.00  0.00    +0.000 C 
ATOM     30  O   UNL     1       3.591   4.373  19.684  0.00  0.00    +0.000 OA
ENDBRANCH  20  21
ENDBRANCH   2  20
TORSDOF 4
ENDMDL
MODEL 7
REMARK VINA RESULT:      -8.7      3.641      7.939
REMARK  Name = 
REMARK  4 active torsions:
REMARK  status: ('A' for Active; 'I' for Inactive)
REMARK    1  A    between atoms: C_2  and  C_3
REMARK    2  A    between atoms: C_3  and  C_4
REMARK    3  A    between atoms: N_14  and  C_15
REMARK    4  A    between atoms: C_20  and  C_21
REMARK                            x       y       z     vdW  Elec       q    Type
REMARK                         _______ _______ _______ _____ _____    ______ ____
ROOT
ATOM      1  O   UNL     1       6.419   5.092  19.982  0.00  0.00    +0.000 OA
ATOM      2  C   UNL     1       5.748   5.252  18.966  0.00  0.00    +0.000 C 
ATOM      3  N   UNL     1       4.470   4.756  18.737  0.00  0.00    +0.000 N 
ATOM      4  H   UNL     1       4.158   4.689  17.768  0.00  0.00    +0.000 HD
ENDROOT
BRANCH   3   5
ATOM      5  C   UNL     1       3.609   4.167  19.703  0.00  0.00    +0.000 A 
ATOM      6  C   UNL     1       3.805   2.831  20.108  0.00  0.00    +0.000 A 
ATOM      7  C   UNL     1       2.994   2.223  21.065  0.00  0.00    +0.000 A 
ATOM      8  C   UNL     1       1.970   2.942  21.651  0.00  0.00    +0.000 A 
ATOM      9  C   UNL     1       1.765   4.270  21.280  0.00  0.00    +0.000 A 
ATOM     10  C   UNL     1       2.575   4.921  20.315  0.00  0.00    +0.000 A 
BRANCH  10  11
ATOM     11  C   UNL     1       2.291   6.339  19.970  0.00  0.00    +0.000 A 
ATOM     12  N   UNL     1       2.616   6.940  18.838  0.00  0.00    +0.000 NA
ATOM     13  C   UNL     1       2.079   8.228  18.802  0.00  0.00    +0.000 A 
ATOM     14  C   UNL     1       2.141   9.138  17.723  0.00  0.00    +0.000 A 
ATOM     15  C   UNL     1       1.555  10.407  17.841  0.00  0.00    +0.000 A 
ATOM     16  C   UNL     1       0.901  10.778  19.013  0.00  0.00    +0.000 A 
ATOM     17  C   UNL     1       0.818   9.896  20.090  0.00  0.00    +0.000 A 
ATOM     18  C   UNL     1       1.416   8.630  19.961  0.00  0.00    +0.000 A 
ATOM     19  S   UNL     1       1.481   7.363  21.107  0.00  0.00    +0.000 S 
ENDBRANCH  10  11
ENDBRANCH   3   5
BRANCH   2  20
ATOM     20  C   UNL     1       6.306   6.073  17.819  0.00  0.00    +0.000 C 
BRANCH  20  21
ATOM     21  C   UNL     1       6.193   5.401  16.476  0.00  0.00    +0.000 A 
ATOM     22  C   UNL     1       5.205   4.435  16.227  0.00  0.00    +0.000 A 
ATOM     23  C   UNL     1       5.128   3.802  14.984  0.00  0.00    +0.000 A 
ATOM     24  C   UNL     1       6.046   4.118  13.988  0.00  0.00    +0.000 A 
ATOM     25  C   UNL     1       7.031   5.082  14.225  0.00  0.00    +0.000 A 
ATOM     26  C   UNL     1       7.116   5.706  15.468  0.00  0.00    +0.000 A 
ATOM     27  O   UNL     1       7.957   5.461  13.288  0.00  0.00    +0.000 OA
ATOM     28  C   UNL     1       7.557   5.052  11.977  0.00  0.00    +0.000 C 
ATOM     29  C   UNL     1       7.089   3.607  11.983  0.00  0.00    +0.000 C 
ATOM     30  O   UNL     1       5.920   3.451  12.796  0.00  0.00    +0.000 OA
ENDBRANCH  20  21
ENDBRANCH   2  20
TORSDOF 4
ENDMDL
MODEL 8
REMARK VINA RESULT:      -8.7      1.080      1.961
REMARK  Name = 
REMARK  4 active torsions:
REMARK  status: ('A' for Active; 'I' for Inactive)
REMARK    1  A    between atoms: C_2  and  C_3
REMARK    2  A    between atoms: C_3  and  C_4
REMARK    3  A    between atoms: N_14  and  C_15
REMARK    4  A    between atoms: C_20  and  C_21
REMARK                            x       y       z     vdW  Elec       q    Type
REMARK                         _______ _______ _______ _____ _____    ______ ____
ROOT
ATOM      1  O   UNL     1       1.633   7.609  20.742  0.00  0.00    +0.000 OA
ATOM      2  C   UNL     1       1.968   7.446  19.572  0.00  0.00    +0.000 C 
ATOM      3  N   UNL     1       2.379   6.251  18.992  0.00  0.00    +0.000 N 
ATOM      4  H   UNL     1       2.916   6.308  18.127  0.00  0.00    +0.000 HD
ENDROOT
BRANCH   3   5
ATOM      5  C   UNL     1       2.277   4.955  19.570  0.00  0.00    +0.000 A 
ATOM      6  C   UNL     1       1.316   4.697  20.567  0.00  0.00    +0.000 A 
ATOM      7  C   UNL     1       1.173   3.437  21.146  0.00  0.00    +0.000 A 
ATOM      8  C   UNL     1       1.982   2.397  20.731  0.00  0.00    +0.000 A 
ATOM      9  C   UNL     1       2.929   2.622  19.733  0.00  0.00    +0.000 A 
ATOM     10  C   UNL     1       3.097   3.890  19.119  0.00  0.00    +0.000 A 
BRANCH  10  11
ATOM     11  C   UNL     1       4.132   4.051  18.064  0.00  0.00    +0.000 A 
ATOM     12  N   UNL     1       3.985   3.755  16.784  0.00  0.00    +0.000 NA
ATOM     13  C   UNL     1       5.111   4.157  16.062  0.00  0.00    +0.000 A 
ATOM     14  C   UNL     1       5.285   4.086  14.661  0.00  0.00    +0.000 A 
ATOM     15  C   UNL     1       6.483   4.526  14.080  0.00  0.00    +0.000 A 
ATOM     16  C   UNL     1       7.505   5.043  14.871  0.00  0.00    +0.000 A 
ATOM     17  C   UNL     1       7.356   5.133  16.255  0.00  0.00    +0.000 A 
ATOM     18  C   UNL     1       6.153   4.681  16.825  0.00  0.00    +0.000 A 
ATOM     19  S   UNL     1       5.701   4.658  18.474  0.00  0.00    +0.000 S 
ENDBRANCH  10  11
ENDBRANCH   3   5
BRANCH   2  20
ATOM     20  C   UNL     1       1.939   8.620  18.611  0.00  0.00    +0.000 C 
BRANCH  20  21
ATOM     21  C   UNL     1       0.932   9.679  18.973  0.00  0.00    +0.000 A 
ATOM     22  C   UNL     1      -0.215   9.890  18.190  0.00  0.00    +0.000 A 
ATOM     23  C   UNL     1      -1.128  10.892  18.525  0.00  0.00    +0.000 A 
ATOM     24  C   UNL     1      -0.894  11.701  19.633  0.00  0.00    +0.000 A 
ATOM     25  C   UNL     1       0.243  11.495  20.420  0.00  0.00    +0.000 A 
ATOM     26  C   UNL     1       1.160  10.503  20.082  0.00  0.00    +0.000 A 
ATOM     27  O   UNL     1       0.531  12.237  21.538  0.00  0.00    +0.000 OA
ATOM     28  C   UNL     1      -0.625  12.947  21.994  0.00  0.00    +0.000 C 
ATOM     29  C   UNL     1      -1.328  13.633  20.836  0.00  0.00    +0.000 C 
ATOM     30  O   UNL     1      -1.825  12.673  19.898  0.00  0.00    +0.000 OA
ENDBRANCH  20  21
ENDBRANCH   2  20
TORSDOF 4
ENDMDL
MODEL 9
REMARK VINA RESULT:      -8.6      3.978      8.709
REMARK  Name = 
REMARK  4 active torsions:
REMARK  status: ('A' for Active; 'I' for Inactive)
REMARK    1  A    between atoms: C_2  and  C_3
REMARK    2  A    between atoms: C_3  and  C_4
REMARK    3  A    between atoms: N_14  and  C_15
REMARK    4  A    between atoms: C_20  and  C_21
REMARK                            x       y       z     vdW  Elec       q    Type
REMARK                         _______ _______ _______ _____ _____    ______ ____
ROOT
ATOM      1  O   UNL     1      -0.055   9.698  18.098  0.00  0.00    +0.000 OA
ATOM      2  C   UNL     1       1.088   9.752  18.544  0.00  0.00    +0.000 C 
ATOM      3  N   UNL     1       1.472  10.303  19.761  0.00  0.00    +0.000 N 
ATOM      4  H   UNL     1       2.452  10.563  19.871  0.00  0.00    +0.000 HD
ENDROOT
BRANCH   3   5
ATOM      5  C   UNL     1       0.606  10.703  20.816  0.00  0.00    +0.000 A 
ATOM      6  C   UNL     1      -0.028   9.735  21.619  0.00  0.00    +0.000 A 
ATOM      7  C   UNL     1      -0.871  10.087  22.673  0.00  0.00    +0.000 A 
ATOM      8  C   UNL     1      -1.090  11.421  22.958  0.00  0.00    +0.000 A 
ATOM      9  C   UNL     1      -0.461  12.398  22.189  0.00  0.00    +0.000 A 
ATOM     10  C   UNL     1       0.407  12.076  21.114  0.00  0.00    +0.000 A 
BRANCH  10  11
ATOM     11  C   UNL     1       1.038  13.176  20.338  0.00  0.00    +0.000 A 
ATOM     12  N   UNL     1       2.199  13.112  19.709  0.00  0.00    +0.000 NA
ATOM     13  C   UNL     1       2.418  14.280  18.976  0.00  0.00    +0.000 A 
ATOM     14  C   UNL     1       3.504  14.544  18.112  0.00  0.00    +0.000 A 
ATOM     15  C   UNL     1       3.588  15.775  17.446  0.00  0.00    +0.000 A 
ATOM     16  C   UNL     1       2.603  16.742  17.620  0.00  0.00    +0.000 A 
ATOM     17  C   UNL     1       1.515  16.504  18.460  0.00  0.00    +0.000 A 
ATOM     18  C   UNL     1       1.447  15.270  19.128  0.00  0.00    +0.000 A 
ATOM     19  S   UNL     1       0.250  14.713  20.215  0.00  0.00    +0.000 S 
ENDBRANCH  10  11
ENDBRANCH   3   5
BRANCH   2  20
ATOM     20  C   UNL     1       2.234   9.163  17.744  0.00  0.00    +0.000 C 
BRANCH  20  21
ATOM     21  C   UNL     1       2.669   7.800  18.213  0.00  0.00    +0.000 A 
ATOM     22  C   UNL     1       3.738   7.127  17.599  0.00  0.00    +0.000 A 
ATOM     23  C   UNL     1       4.115   5.853  18.031  0.00  0.00    +0.000 A 
ATOM     24  C   UNL     1       3.418   5.236  19.065  0.00  0.00    +0.000 A 
ATOM     25  C   UNL     1       2.355   5.901  19.684  0.00  0.00    +0.000 A 
ATOM     26  C   UNL     1       1.970   7.167  19.249  0.00  0.00    +0.000 A 
ATOM     27  O   UNL     1       1.634   5.368  20.722  0.00  0.00    +0.000 OA
ATOM     28  C   UNL     1       2.328   4.268  21.318  0.00  0.00    +0.000 C 
ATOM     29  C   UNL     1       2.861   3.326  20.252  0.00  0.00    +0.000 C 
ATOM     30  O   UNL     1       3.833   3.981  19.430  0.00  0.00    +0.000 OA
ENDBRANCH  20  21
ENDBRANCH   2  20
TORSDOF 4
ENDMDL
