MODEL 1
REMARK VINA RESULT:      -9.0      0.000      0.000
REMARK  Name = 
REMARK  4 active torsions:
REMARK  status: ('A' for Active; 'I' for Inactive)
REMARK    1  A    between atoms: C_2  and  C_3
REMARK    2  A    between atoms: C_3  and  C_4
REMARK    3  A    between atoms: C_4  and  C_5
REMARK    4  A    between atoms: N_16  and  C_17
REMARK                            x       y       z     vdW  Elec       q    Type
REMARK                         _______ _______ _______ _____ _____    ______ ____
ROOT
ATOM      1  O   UNL     1       0.778   4.506  20.091  0.00  0.00    +0.000 OA
ATOM      2  C   UNL     1       1.813   4.764  20.698  0.00  0.00    +0.000 C 
ATOM      3  N   UNL     1       2.606   5.879  20.520  0.00  0.00    +0.000 N 
ATOM      4  H   UNL     1       3.569   5.859  20.850  0.00  0.00    +0.000 HD
ENDROOT
BRANCH   3   5
ATOM      5  C   UNL     1       2.326   6.986  19.677  0.00  0.00    +0.000 A 
ATOM      6  C   UNL     1       2.738   7.026  18.339  0.00  0.00    +0.000 A 
ATOM      7  C   UNL     1       2.476   8.144  17.553  0.00  0.00    +0.000 A 
ATOM      8  C   UNL     1       1.799   9.227  18.098  0.00  0.00    +0.000 A 
ATOM      9  C   UNL     1       1.352   9.186  19.427  0.00  0.00    +0.000 A 
ATOM     10  C   UNL     1       0.657  10.268  19.981  0.00  0.00    +0.000 A 
ATOM     11  C   UNL     1       0.212  10.206  21.292  0.00  0.00    +0.000 A 
ATOM     12  C   UNL     1       0.481   9.057  22.012  0.00  0.00    +0.000 A 
ATOM     13  N   UNL     1       1.158   7.992  21.519  0.00  0.00    +0.000 NA
ATOM     14  C   UNL     1       1.596   8.052  20.237  0.00  0.00    +0.000 A 
ENDBRANCH   3   5
BRANCH   2  15
ATOM     15  C   UNL     1       2.355   3.783  21.718  0.00  0.00    +0.000 C 
BRANCH  15  16
ATOM     16  C   UNL     1       3.105   2.653  21.023  0.00  0.00    +0.000 C 
BRANCH  16  17
ATOM     17  C   UNL     1       3.646   3.119  19.693  0.00  0.00    +0.000 A 
ATOM     18  N   UNL     1       4.815   3.665  19.620  0.00  0.00    +0.000 NA
ATOM     19  C   UNL     1       5.272   4.067  18.353  0.00  0.00    +0.000 A 
ATOM     20  C   UNL     1       6.539   4.644  18.243  0.00  0.00    +0.000 A 
ATOM     21  C   UNL     1       7.043   5.024  16.995  0.00  0.00    +0.000 A 
ATOM     22  C   UNL     1       6.280   4.831  15.842  0.00  0.00    +0.000 A 
ATOM     23  C   UNL     1       5.009   4.269  15.937  0.00  0.00    +0.000 A 
ATOM     24  C   UNL     1       4.515   3.894  17.190  0.00  0.00    +0.000 A 
ATOM     25  C   UNL     1       3.175   3.301  17.336  0.00  0.00    +0.000 A 
ATOM     26  O   UNL     1       2.433   3.129  16.377  0.00  0.00    +0.000 OA
ATOM     27  N   UNL     1       2.821   2.950  18.614  0.00  0.00    +0.000 N 
ATOM     28  H   UNL     1       1.888   2.570  18.727  0.00  0.00    +0.000 HD
ENDBRANCH  16  17
ENDBRANCH  15  16
ENDBRANCH   2  15
TORSDOF 4
ENDMDL
MODEL 2
REMARK VINA RESULT:      -8.8      1.438      2.004
REMARK  Name = 
REMARK  4 active torsions:
REMARK  status: ('A' for Active; 'I' for Inactive)
REMARK    1  A    between atoms: C_2  and  C_3
REMARK    2  A    between atoms: C_3  and  C_4
REMARK    3  A    between atoms: C_4  and  C_5
REMARK    4  A    between atoms: N_16  and  C_17
REMARK                            x       y       z     vdW  Elec       q    Type
REMARK                         _______ _______ _______ _____ _____    ______ ____
ROOT
ATOM      1  O   UNL     1       1.255   4.694  19.160  0.00  0.00    +0.000 OA
ATOM      2  C   UNL     1       2.083   5.015  20.008  0.00  0.00    +0.000 C 
ATOM      3  N   UNL     1       2.590   6.281  20.212  0.00  0.00    +0.000 N 
ATOM      4  H   UNL     1       3.463   6.389  20.726  0.00  0.00    +0.000 HD
ENDROOT
BRANCH   3   5
ATOM      5  C   UNL     1       2.179   7.471  19.553  0.00  0.00    +0.000 A 
ATOM      6  C   UNL     1       2.489   7.723  18.211  0.00  0.00    +0.000 A 
ATOM      7  C   UNL     1       2.100   8.915  17.610  0.00  0.00    +0.000 A 
ATOM      8  C   UNL     1       1.397   9.862  18.344  0.00  0.00    +0.000 A 
ATOM      9  C   UNL     1       1.052   9.606  19.680  0.00  0.00    +0.000 A 
ATOM     10  C   UNL     1       0.331  10.548  20.424  0.00  0.00    +0.000 A 
ATOM     11  C   UNL     1      -0.012  10.275  21.739  0.00  0.00    +0.000 A 
ATOM     12  C   UNL     1       0.382   9.061  22.270  0.00  0.00    +0.000 A 
ATOM     13  N   UNL     1       1.088   8.127  21.590  0.00  0.00    +0.000 NA
ATOM     14  C   UNL     1       1.426   8.393  20.304  0.00  0.00    +0.000 A 
ENDBRANCH   3   5
BRANCH   2  15
ATOM     15  C   UNL     1       2.685   3.960  20.914  0.00  0.00    +0.000 C 
BRANCH  15  16
ATOM     16  C   UNL     1       3.383   2.886  20.090  0.00  0.00    +0.000 C 
BRANCH  16  17
ATOM     17  C   UNL     1       4.367   3.511  19.131  0.00  0.00    +0.000 A 
ATOM     18  N   UNL     1       4.204   3.384  17.855  0.00  0.00    +0.000 NA
ATOM     19  C   UNL     1       5.145   3.999  17.011  0.00  0.00    +0.000 A 
ATOM     20  C   UNL     1       4.982   3.893  15.628  0.00  0.00    +0.000 A 
ATOM     21  C   UNL     1       5.877   4.521  14.755  0.00  0.00    +0.000 A 
ATOM     22  C   UNL     1       6.947   5.262  15.261  0.00  0.00    +0.000 A 
ATOM     23  C   UNL     1       7.129   5.366  16.638  0.00  0.00    +0.000 A 
ATOM     24  C   UNL     1       6.229   4.732  17.501  0.00  0.00    +0.000 A 
ATOM     25  C   UNL     1       6.388   4.813  18.963  0.00  0.00    +0.000 A 
ATOM     26  O   UNL     1       7.319   5.416  19.482  0.00  0.00    +0.000 OA
ATOM     27  N   UNL     1       5.423   4.173  19.697  0.00  0.00    +0.000 N 
ATOM     28  H   UNL     1       5.543   4.198  20.704  0.00  0.00    +0.000 HD
ENDBRANCH  16  17
ENDBRANCH  15  16
ENDBRANCH   2  15
TORSDOF 4
ENDMDL
MODEL 3
REMARK VINA RESULT:      -8.7      6.776      8.764
REMARK  Name = 
REMARK  4 active torsions:
REMARK  status: ('A' for Active; 'I' for Inactive)
REMARK    1  A    between atoms: C_2  and  C_3
REMARK    2  A    between atoms: C_3  and  C_4
REMARK    3  A    between atoms: C_4  and  C_5
REMARK    4  A    between atoms: N_16  and  C_17
REMARK                            x       y       z     vdW  Elec       q    Type
REMARK                         _______ _______ _______ _____ _____    ______ ____
ROOT
ATOM      1  O   UNL     1       8.168   6.935  18.681  0.00  0.00    +0.000 OA
ATOM      2  C   UNL     1       7.680   7.707  17.861  0.00  0.00    +0.000 C 
ATOM      3  N   UNL     1       6.796   7.377  16.856  0.00  0.00    +0.000 N 
ATOM      4  H   UNL     1       6.682   8.011  16.067  0.00  0.00    +0.000 HD
ENDROOT
BRANCH   3   5
ATOM      5  C   UNL     1       6.201   6.105  16.640  0.00  0.00    +0.000 A 
ATOM      6  C   UNL     1       6.859   5.085  15.943  0.00  0.00    +0.000 A 
ATOM      7  C   UNL     1       6.230   3.864  15.721  0.00  0.00    +0.000 A 
ATOM      8  C   UNL     1       4.942   3.653  16.197  0.00  0.00    +0.000 A 
ATOM      9  C   UNL     1       4.287   4.656  16.926  0.00  0.00    +0.000 A 
ATOM     10  C   UNL     1       2.993   4.448  17.422  0.00  0.00    +0.000 A 
ATOM     11  C   UNL     1       2.364   5.445  18.151  0.00  0.00    +0.000 A 
ATOM     12  C   UNL     1       3.052   6.626  18.359  0.00  0.00    +0.000 A 
ATOM     13  N   UNL     1       4.298   6.872  17.890  0.00  0.00    +0.000 NA
ATOM     14  C   UNL     1       4.915   5.899  17.175  0.00  0.00    +0.000 A 
ENDBRANCH   3   5
BRANCH   2  15
ATOM     15  C   UNL     1       8.087   9.167  17.863  0.00  0.00    +0.000 C 
BRANCH  15  16
ATOM     16  C   UNL     1       9.096   9.438  18.973  0.00  0.00    +0.000 C 
BRANCH  16  17
ATOM     17  C   UNL     1       9.504  10.891  18.973  0.00  0.00    +0.000 A 
ATOM     18  N   UNL     1      10.114  11.395  17.951  0.00  0.00    +0.000 NA
ATOM     19  C   UNL     1      10.459  12.758  18.002  0.00  0.00    +0.000 A 
ATOM     20  C   UNL     1      11.101  13.333  16.904  0.00  0.00    +0.000 A 
ATOM     21  C   UNL     1      11.429  14.693  16.903  0.00  0.00    +0.000 A 
ATOM     22  C   UNL     1      11.116  15.491  18.005  0.00  0.00    +0.000 A 
ATOM     23  C   UNL     1      10.486  14.928  19.113  0.00  0.00    +0.000 A 
ATOM     24  C   UNL     1      10.166  13.567  19.103  0.00  0.00    +0.000 A 
ATOM     25  C   UNL     1       9.504  12.931  20.255  0.00  0.00    +0.000 A 
ATOM     26  O   UNL     1       9.227  13.556  21.272  0.00  0.00    +0.000 OA
ATOM     27  N   UNL     1       9.217  11.597  20.109  0.00  0.00    +0.000 N 
ATOM     28  H   UNL     1       8.790  11.145  20.910  0.00  0.00    +0.000 HD
ENDBRANCH  16  17
ENDBRANCH  15  16
ENDBRANCH   2  15
TORSDOF 4
ENDMDL
MODEL 4
REMARK VINA RESULT:      -8.6      6.780      7.916
REMARK  Name = 
REMARK  4 active torsions:
REMARK  status: ('A' for Active; 'I' for Inactive)
REMARK    1  A    between atoms: C_2  and  C_3
REMARK    2  A    between atoms: C_3  and  C_4
REMARK    3  A    between atoms: C_4  and  C_5
REMARK    4  A    between atoms: N_16  and  C_17
REMARK                            x       y       z     vdW  Elec       q    Type
REMARK                         _______ _______ _______ _____ _____    ______ ____
ROOT
ATOM      1  O   UNL     1       9.202   9.991  19.811  0.00  0.00    +0.000 OA
ATOM      2  C   UNL     1       8.958  10.078  18.611  0.00  0.00    +0.000 C 
ATOM      3  N   UNL     1       9.347  11.101  17.772  0.00  0.00    +0.000 N 
ATOM      4  H   UNL     1       8.861  11.228  16.886  0.00  0.00    +0.000 HD
ENDROOT
BRANCH   3   5
ATOM      5  C   UNL     1      10.187  12.196  18.111  0.00  0.00    +0.000 A 
ATOM      6  C   UNL     1      11.550  12.031  18.382  0.00  0.00    +0.000 A 
ATOM      7  C   UNL     1      12.333  13.122  18.745  0.00  0.00    +0.000 A 
ATOM      8  C   UNL     1      11.760  14.384  18.836  0.00  0.00    +0.000 A 
ATOM      9  C   UNL     1      10.402  14.566  18.534  0.00  0.00    +0.000 A 
ATOM     10  C   UNL     1       9.818  15.837  18.609  0.00  0.00    +0.000 A 
ATOM     11  C   UNL     1       8.478  16.002  18.296  0.00  0.00    +0.000 A 
ATOM     12  C   UNL     1       7.761  14.883  17.917  0.00  0.00    +0.000 A 
ATOM     13  N   UNL     1       8.283  13.635  17.841  0.00  0.00    +0.000 NA
ATOM     14  C   UNL     1       9.593  13.472  18.149  0.00  0.00    +0.000 A 
ENDBRANCH   3   5
BRANCH   2  15
ATOM     15  C   UNL     1       8.110   9.020  17.934  0.00  0.00    +0.000 C 
BRANCH  15  16
ATOM     16  C   UNL     1       8.391   7.647  18.534  0.00  0.00    +0.000 C 
BRANCH  16  17
ATOM     17  C   UNL     1       7.404   6.631  18.013  0.00  0.00    +0.000 A 
ATOM     18  N   UNL     1       6.700   5.925  18.836  0.00  0.00    +0.000 NA
ATOM     19  C   UNL     1       5.788   5.004  18.292  0.00  0.00    +0.000 A 
ATOM     20  C   UNL     1       5.001   4.242  19.159  0.00  0.00    +0.000 A 
ATOM     21  C   UNL     1       4.057   3.340  18.656  0.00  0.00    +0.000 A 
ATOM     22  C   UNL     1       3.893   3.191  17.278  0.00  0.00    +0.000 A 
ATOM     23  C   UNL     1       4.679   3.936  16.401  0.00  0.00    +0.000 A 
ATOM     24  C   UNL     1       5.621   4.833  16.915  0.00  0.00    +0.000 A 
ATOM     25  C   UNL     1       6.476   5.636  16.024  0.00  0.00    +0.000 A 
ATOM     26  O   UNL     1       6.414   5.539  14.804  0.00  0.00    +0.000 OA
ATOM     27  N   UNL     1       7.337   6.499  16.653  0.00  0.00    +0.000 N 
ATOM     28  H   UNL     1       7.951   7.032  16.047  0.00  0.00    +0.000 HD
ENDBRANCH  16  17
ENDBRANCH  15  16
ENDBRANCH   2  15
TORSDOF 4
ENDMDL
MODEL 5
REMARK VINA RESULT:      -8.6      1.074      1.325
REMARK  Name = 
REMARK  4 active torsions:
REMARK  status: ('A' for Active; 'I' for Inactive)
REMARK    1  A    between atoms: C_2  and  C_3
REMARK    2  A    between atoms: C_3  and  C_4
REMARK    3  A    between atoms: C_4  and  C_5
REMARK    4  A    between atoms: N_16  and  C_17
REMARK                            x       y       z     vdW  Elec       q    Type
REMARK                         _______ _______ _______ _____ _____    ______ ____
ROOT
ATOM      1  O   UNL     1       1.376   4.186  18.943  0.00  0.00    +0.000 OA
ATOM      2  C   UNL     1       2.149   4.454  19.858  0.00  0.00    +0.000 C 
ATOM      3  N   UNL     1       2.714   5.687  20.111  0.00  0.00    +0.000 N 
ATOM      4  H   UNL     1       3.547   5.740  20.696  0.00  0.00    +0.000 HD
ENDROOT
BRANCH   3   5
ATOM      5  C   UNL     1       2.432   6.900  19.429  0.00  0.00    +0.000 A 
ATOM      6  C   UNL     1       2.915   7.158  18.140  0.00  0.00    +0.000 A 
ATOM      7  C   UNL     1       2.648   8.373  17.518  0.00  0.00    +0.000 A 
ATOM      8  C   UNL     1       1.894   9.336  18.176  0.00  0.00    +0.000 A 
ATOM      9  C   UNL     1       1.376   9.075  19.453  0.00  0.00    +0.000 A 
ATOM     10  C   UNL     1       0.603  10.034  20.120  0.00  0.00    +0.000 A 
ATOM     11  C   UNL     1       0.089   9.756  21.377  0.00  0.00    +0.000 A 
ATOM     12  C   UNL     1       0.369   8.521  21.930  0.00  0.00    +0.000 A 
ATOM     13  N   UNL     1       1.119   7.569  21.326  0.00  0.00    +0.000 NA
ATOM     14  C   UNL     1       1.625   7.840  20.097  0.00  0.00    +0.000 A 
ENDBRANCH   3   5
BRANCH   2  15
ATOM     15  C   UNL     1       2.609   3.363  20.804  0.00  0.00    +0.000 C 
BRANCH  15  16
ATOM     16  C   UNL     1       3.753   2.569  20.185  0.00  0.00    +0.000 C 
BRANCH  16  17
ATOM     17  C   UNL     1       4.551   3.438  19.244  0.00  0.00    +0.000 A 
ATOM     18  N   UNL     1       5.422   4.272  19.708  0.00  0.00    +0.000 NA
ATOM     19  C   UNL     1       6.144   5.047  18.783  0.00  0.00    +0.000 A 
ATOM     20  C   UNL     1       7.105   5.942  19.257  0.00  0.00    +0.000 A 
ATOM     21  C   UNL     1       7.869   6.704  18.367  0.00  0.00    +0.000 A 
ATOM     22  C   UNL     1       7.676   6.577  16.991  0.00  0.00    +0.000 A 
ATOM     23  C   UNL     1       6.713   5.697  16.503  0.00  0.00    +0.000 A 
ATOM     24  C   UNL     1       5.954   4.942  17.403  0.00  0.00    +0.000 A 
ATOM     25  C   UNL     1       4.921   4.003  16.930  0.00  0.00    +0.000 A 
ATOM     26  O   UNL     1       4.671   3.859  15.740  0.00  0.00    +0.000 OA
ATOM     27  N   UNL     1       4.268   3.302  17.912  0.00  0.00    +0.000 N 
ATOM     28  H   UNL     1       3.535   2.677  17.596  0.00  0.00    +0.000 HD
ENDBRANCH  16  17
ENDBRANCH  15  16
ENDBRANCH   2  15
TORSDOF 4
ENDMDL
MODEL 6
REMARK VINA RESULT:      -8.4      6.871      9.341
REMARK  Name = 
REMARK  4 active torsions:
REMARK  status: ('A' for Active; 'I' for Inactive)
REMARK    1  A    between atoms: C_2  and  C_3
REMARK    2  A    between atoms: C_3  and  C_4
REMARK    3  A    between atoms: C_4  and  C_5
REMARK    4  A    between atoms: N_16  and  C_17
REMARK                            x       y       z     vdW  Elec       q    Type
REMARK                         _______ _______ _______ _____ _____    ______ ____
ROOT
ATOM      1  O   UNL     1       8.146   6.809  18.649  0.00  0.00    +0.000 OA
ATOM      2  C   UNL     1       7.665   7.683  17.934  0.00  0.00    +0.000 C 
ATOM      3  N   UNL     1       6.567   7.549  17.109  0.00  0.00    +0.000 N 
ATOM      4  H   UNL     1       6.428   8.221  16.356  0.00  0.00    +0.000 HD
ENDROOT
BRANCH   3   5
ATOM      5  C   UNL     1       5.724   6.411  17.006  0.00  0.00    +0.000 A 
ATOM      6  C   UNL     1       4.698   6.159  17.924  0.00  0.00    +0.000 A 
ATOM      7  C   UNL     1       3.915   5.015  17.811  0.00  0.00    +0.000 A 
ATOM      8  C   UNL     1       4.151   4.116  16.779  0.00  0.00    +0.000 A 
ATOM      9  C   UNL     1       5.155   4.374  15.833  0.00  0.00    +0.000 A 
ATOM     10  C   UNL     1       5.392   3.481  14.781  0.00  0.00    +0.000 A 
ATOM     11  C   UNL     1       6.380   3.757  13.848  0.00  0.00    +0.000 A 
ATOM     12  C   UNL     1       7.105   4.924  14.002  0.00  0.00    +0.000 A 
ATOM     13  N   UNL     1       6.916   5.809  15.009  0.00  0.00    +0.000 NA
ATOM     14  C   UNL     1       5.952   5.540  15.923  0.00  0.00    +0.000 A 
ENDBRANCH   3   5
BRANCH   2  15
ATOM     15  C   UNL     1       8.321   9.047  17.862  0.00  0.00    +0.000 C 
BRANCH  15  16
ATOM     16  C   UNL     1       9.008   9.378  19.182  0.00  0.00    +0.000 C 
BRANCH  16  17
ATOM     17  C   UNL     1       9.565  10.780  19.151  0.00  0.00    +0.000 A 
ATOM     18  N   UNL     1      10.021  11.276  18.048  0.00  0.00    +0.000 NA
ATOM     19  C   UNL     1      10.515  12.592  18.077  0.00  0.00    +0.000 A 
ATOM     20  C   UNL     1      10.997  13.158  16.895  0.00  0.00    +0.000 A 
ATOM     21  C   UNL     1      11.464  14.477  16.876  0.00  0.00    +0.000 A 
ATOM     22  C   UNL     1      11.454  15.242  18.043  0.00  0.00    +0.000 A 
ATOM     23  C   UNL     1      10.988  14.686  19.233  0.00  0.00    +0.000 A 
ATOM     24  C   UNL     1      10.525  13.366  19.240  0.00  0.00    +0.000 A 
ATOM     25  C   UNL     1      10.029  12.739  20.477  0.00  0.00    +0.000 A 
ATOM     26  O   UNL     1      10.018  13.334  21.548  0.00  0.00    +0.000 OA
ATOM     27  N   UNL     1       9.576  11.451  20.344  0.00  0.00    +0.000 N 
ATOM     28  H   UNL     1       9.262  11.001  21.197  0.00  0.00    +0.000 HD
ENDBRANCH  16  17
ENDBRANCH  15  16
ENDBRANCH   2  15
TORSDOF 4
ENDMDL
MODEL 7
REMARK VINA RESULT:      -8.4      7.453      8.591
REMARK  Name = 
REMARK  4 active torsions:
REMARK  status: ('A' for Active; 'I' for Inactive)
REMARK    1  A    between atoms: C_2  and  C_3
REMARK    2  A    between atoms: C_3  and  C_4
REMARK    3  A    between atoms: C_4  and  C_5
REMARK    4  A    between atoms: N_16  and  C_17
REMARK                            x       y       z     vdW  Elec       q    Type
REMARK                         _______ _______ _______ _____ _____    ______ ____
ROOT
ATOM      1  O   UNL     1      10.250  11.577  20.230  0.00  0.00    +0.000 OA
ATOM      2  C   UNL     1       9.908  11.114  19.146  0.00  0.00    +0.000 C 
ATOM      3  N   UNL     1       9.951  11.768  17.932  0.00  0.00    +0.000 N 
ATOM      4  H   UNL     1       9.387  11.416  17.160  0.00  0.00    +0.000 HD
ENDROOT
BRANCH   3   5
ATOM      5  C   UNL     1      10.490  13.058  17.687  0.00  0.00    +0.000 A 
ATOM      6  C   UNL     1      11.826  13.249  17.317  0.00  0.00    +0.000 A 
ATOM      7  C   UNL     1      12.328  14.531  17.121  0.00  0.00    +0.000 A 
ATOM      8  C   UNL     1      11.497  15.631  17.289  0.00  0.00    +0.000 A 
ATOM      9  C   UNL     1      10.147  15.451  17.627  0.00  0.00    +0.000 A 
ATOM     10  C   UNL     1       9.298  16.554  17.786  0.00  0.00    +0.000 A 
ATOM     11  C   UNL     1       7.964  16.358  18.108  0.00  0.00    +0.000 A 
ATOM     12  C   UNL     1       7.521  15.058  18.264  0.00  0.00    +0.000 A 
ATOM     13  N   UNL     1       8.310  13.965  18.130  0.00  0.00    +0.000 NA
ATOM     14  C   UNL     1       9.615  14.154  17.817  0.00  0.00    +0.000 A 
ENDBRANCH   3   5
BRANCH   2  15
ATOM     15  C   UNL     1       9.327   9.717  19.070  0.00  0.00    +0.000 C 
BRANCH  15  16
ATOM     16  C   UNL     1       8.295   9.629  17.952  0.00  0.00    +0.000 C 
BRANCH  16  17
ATOM     17  C   UNL     1       7.730   8.232  17.863  0.00  0.00    +0.000 A 
ATOM     18  N   UNL     1       6.830   7.949  16.980  0.00  0.00    +0.000 NA
ATOM     19  C   UNL     1       6.350   6.628  16.935  0.00  0.00    +0.000 A 
ATOM     20  C   UNL     1       5.391   6.290  15.978  0.00  0.00    +0.000 A 
ATOM     21  C   UNL     1       4.915   4.978  15.880  0.00  0.00    +0.000 A 
ATOM     22  C   UNL     1       5.395   3.991  16.742  0.00  0.00    +0.000 A 
ATOM     23  C   UNL     1       6.343   4.316  17.710  0.00  0.00    +0.000 A 
ATOM     24  C   UNL     1       6.810   5.631  17.801  0.00  0.00    +0.000 A 
ATOM     25  C   UNL     1       7.807   6.019  18.813  0.00  0.00    +0.000 A 
ATOM     26  O   UNL     1       8.252   5.218  19.626  0.00  0.00    +0.000 OA
ATOM     27  N   UNL     1       8.204   7.331  18.777  0.00  0.00    +0.000 N 
ATOM     28  H   UNL     1       8.867   7.613  19.491  0.00  0.00    +0.000 HD
ENDBRANCH  16  17
ENDBRANCH  15  16
ENDBRANCH   2  15
TORSDOF 4
ENDMDL
MODEL 8
REMARK VINA RESULT:      -8.2      1.485      2.795
REMARK  Name = 
REMARK  4 active torsions:
REMARK  status: ('A' for Active; 'I' for Inactive)
REMARK    1  A    between atoms: C_2  and  C_3
REMARK    2  A    between atoms: C_3  and  C_4
REMARK    3  A    between atoms: C_4  and  C_5
REMARK    4  A    between atoms: N_16  and  C_17
REMARK                            x       y       z     vdW  Elec       q    Type
REMARK                         _______ _______ _______ _____ _____    ______ ____
ROOT
ATOM      1  O   UNL     1       0.739   4.560  19.885  0.00  0.00    +0.000 OA
ATOM      2  C   UNL     1       1.695   4.772  20.625  0.00  0.00    +0.000 C 
ATOM      3  N   UNL     1       2.106   6.003  21.093  0.00  0.00    +0.000 N 
ATOM      4  H   UNL     1       3.056   6.106  21.448  0.00  0.00    +0.000 HD
ENDROOT
BRANCH   3   5
ATOM      5  C   UNL     1       1.446   7.244  20.894  0.00  0.00    +0.000 A 
ATOM      6  C   UNL     1       0.529   7.756  21.820  0.00  0.00    +0.000 A 
ATOM      7  C   UNL     1      -0.126   8.958  21.574  0.00  0.00    +0.000 A 
ATOM      8  C   UNL     1       0.134   9.659  20.403  0.00  0.00    +0.000 A 
ATOM      9  C   UNL     1       1.076   9.173  19.484  0.00  0.00    +0.000 A 
ATOM     10  C   UNL     1       1.354   9.879  18.307  0.00  0.00    +0.000 A 
ATOM     11  C   UNL     1       2.296   9.391  17.414  0.00  0.00    +0.000 A 
ATOM     12  C   UNL     1       2.930   8.204  17.730  0.00  0.00    +0.000 A 
ATOM     13  N   UNL     1       2.684   7.485  18.850  0.00  0.00    +0.000 NA
ATOM     14  C   UNL     1       1.762   7.959  19.723  0.00  0.00    +0.000 A 
ENDBRANCH   3   5
BRANCH   2  15
ATOM     15  C   UNL     1       2.583   3.623  21.060  0.00  0.00    +0.000 C 
BRANCH  15  16
ATOM     16  C   UNL     1       2.957   2.756  19.864  0.00  0.00    +0.000 C 
BRANCH  16  17
ATOM     17  C   UNL     1       4.036   3.423  19.046  0.00  0.00    +0.000 A 
ATOM     18  N   UNL     1       3.999   3.372  17.755  0.00  0.00    +0.000 NA
ATOM     19  C   UNL     1       5.024   4.023  17.045  0.00  0.00    +0.000 A 
ATOM     20  C   UNL     1       4.998   3.999  15.649  0.00  0.00    +0.000 A 
ATOM     21  C   UNL     1       5.980   4.664  14.907  0.00  0.00    +0.000 A 
ATOM     22  C   UNL     1       7.000   5.359  15.558  0.00  0.00    +0.000 A 
ATOM     23  C   UNL     1       7.047   5.381  16.951  0.00  0.00    +0.000 A 
ATOM     24  C   UNL     1       6.060   4.711  17.682  0.00  0.00    +0.000 A 
ATOM     25  C   UNL     1       6.074   4.704  19.154  0.00  0.00    +0.000 A 
ATOM     26  O   UNL     1       6.954   5.264  19.798  0.00  0.00    +0.000 OA
ATOM     27  N   UNL     1       5.035   4.036  19.751  0.00  0.00    +0.000 N 
ATOM     28  H   UNL     1       5.055   4.001  20.764  0.00  0.00    +0.000 HD
ENDBRANCH  16  17
ENDBRANCH  15  16
ENDBRANCH   2  15
TORSDOF 4
ENDMDL
MODEL 9
REMARK VINA RESULT:      -8.1      3.444      8.160
REMARK  Name = 
REMARK  4 active torsions:
REMARK  status: ('A' for Active; 'I' for Inactive)
REMARK    1  A    between atoms: C_2  and  C_3
REMARK    2  A    between atoms: C_3  and  C_4
REMARK    3  A    between atoms: C_4  and  C_5
REMARK    4  A    between atoms: N_16  and  C_17
REMARK                            x       y       z     vdW  Elec       q    Type
REMARK                         _______ _______ _______ _____ _____    ______ ____
ROOT
ATOM      1  O   UNL     1       1.773   8.240  17.424  0.00  0.00    +0.000 OA
ATOM      2  C   UNL     1       1.982   8.065  18.621  0.00  0.00    +0.000 C 
ATOM      3  N   UNL     1       2.634   6.989  19.185  0.00  0.00    +0.000 N 
ATOM      4  H   UNL     1       2.501   6.793  20.176  0.00  0.00    +0.000 HD
ENDROOT
BRANCH   3   5
ATOM      5  C   UNL     1       3.276   5.932  18.487  0.00  0.00    +0.000 A 
ATOM      6  C   UNL     1       4.460   6.127  17.766  0.00  0.00    +0.000 A 
ATOM      7  C   UNL     1       5.040   5.075  17.065  0.00  0.00    +0.000 A 
ATOM      8  C   UNL     1       4.444   3.821  17.084  0.00  0.00    +0.000 A 
ATOM      9  C   UNL     1       3.277   3.605  17.830  0.00  0.00    +0.000 A 
ATOM     10  C   UNL     1       2.676   2.340  17.866  0.00  0.00    +0.000 A 
ATOM     11  C   UNL     1       1.529   2.140  18.618  0.00  0.00    +0.000 A 
ATOM     12  C   UNL     1       1.016   3.220  19.313  0.00  0.00    +0.000 A 
ATOM     13  N   UNL     1       1.558   4.461  19.298  0.00  0.00    +0.000 NA
ATOM     14  C   UNL     1       2.679   4.659  18.561  0.00  0.00    +0.000 A 
ENDBRANCH   3   5
BRANCH   2  15
ATOM     15  C   UNL     1       1.454   9.062  19.634  0.00  0.00    +0.000 C 
BRANCH  15  16
ATOM     16  C   UNL     1       1.254  10.426  18.985  0.00  0.00    +0.000 C 
BRANCH  16  17
ATOM     17  C   UNL     1      -0.211  10.676  18.724  0.00  0.00    +0.000 A 
ATOM     18  N   UNL     1      -0.903  11.402  19.540  0.00  0.00    +0.000 NA
ATOM     19  C   UNL     1      -2.260  11.612  19.238  0.00  0.00    +0.000 A 
ATOM     20  C   UNL     1      -3.026  12.407  20.093  0.00  0.00    +0.000 A 
ATOM     21  C   UNL     1      -4.371  12.668  19.809  0.00  0.00    +0.000 A 
ATOM     22  C   UNL     1      -4.963  12.133  18.664  0.00  0.00    +0.000 A 
ATOM     23  C   UNL     1      -4.214  11.327  17.808  0.00  0.00    +0.000 A 
ATOM     24  C   UNL     1      -2.872  11.071  18.104  0.00  0.00    +0.000 A 
ATOM     25  C   UNL     1      -2.046  10.221  17.229  0.00  0.00    +0.000 A 
ATOM     26  O   UNL     1      -2.501   9.689  16.224  0.00  0.00    +0.000 OA
ATOM     27  N   UNL     1      -0.738  10.073  17.615  0.00  0.00    +0.000 N 
ATOM     28  H   UNL     1      -0.172   9.464  17.035  0.00  0.00    +0.000 HD
ENDBRANCH  16  17
ENDBRANCH  15  16
ENDBRANCH   2  15
TORSDOF 4
ENDMDL
