MODEL 1
REMARK VINA RESULT:      -8.7      0.000      0.000
REMARK  Name = 
REMARK  4 active torsions:
REMARK  status: ('A' for Active; 'I' for Inactive)
REMARK    1  A    between atoms: C_1  and  C_2
REMARK    2  A    between atoms: C_3  and  C_4
REMARK    3  A    between atoms: N_19  and  C_20
REMARK    4  A    between atoms: C_20  and  C_21
REMARK                            x       y       z     vdW  Elec       q    Type
REMARK                         _______ _______ _______ _____ _____    ______ ____
ROOT
ATOM      1  C   UNL     1       6.931   5.265  15.327  0.00  0.00    +0.000 C 
ATOM      2  O   UNL     1       7.709   6.165  15.632  0.00  0.00    +0.000 OA
ATOM      3  N   UNL     1       6.872   4.744  14.042  0.00  0.00    +0.000 N 
ATOM      4  C   UNL     1       7.718   5.257  12.990  0.00  0.00    +0.000 C 
ATOM      5  C   UNL     1       7.175   4.617  11.718  0.00  0.00    +0.000 C 
ATOM      6  C   UNL     1       6.499   3.329  12.187  0.00  0.00    +0.000 C 
ATOM      7  C   UNL     1       6.450   3.393  13.713  0.00  0.00    +0.000 C 
ATOM      8  N   UNL     1       7.092   2.108  11.698  0.00  0.00    +0.000 N 
ATOM      9  C   UNL     1       6.133   1.241  11.224  0.00  0.00    +0.000 C 
ATOM     10  O   UNL     1       6.327   0.072  10.950  0.00  0.00    +0.000 OA
ATOM     11  N   UNL     1       4.954   1.900  11.150  0.00  0.00    +0.000 N 
ATOM     12  C   UNL     1       5.067   3.155  11.663  0.00  0.00    +0.000 C 
ATOM     13  O   UNL     1       4.153   3.959  11.759  0.00  0.00    +0.000 OA
ATOM     14  H   UNL     1       8.003   1.748  11.956  0.00  0.00    +0.000 HD
ATOM     15  H   UNL     1       4.097   1.492  10.816  0.00  0.00    +0.000 HD
ENDROOT
BRANCH   1  18
ATOM     16  C   UNL     1       7.468   4.728  18.459  0.00  0.00    +0.000 C 
ATOM     17  C   UNL     1       6.268   4.423  17.639  0.00  0.00    +0.000 A 
ATOM     18  C   UNL     1       6.027   4.665  16.293  0.00  0.00    +0.000 A 
ATOM     19  C   UNL     1       4.703   4.219  16.092  0.00  0.00    +0.000 A 
ATOM     20  N   UNL     1       4.189   3.626  17.165  0.00  0.00    +0.000 NA
ATOM     21  N   UNL     1       5.125   3.825  18.120  0.00  0.00    +0.000 N 
BRANCH  21  22
ATOM     22  C   UNL     1       4.821   3.386  19.480  0.00  0.00    +0.000 C 
BRANCH  22  23
ATOM     23  C   UNL     1       3.402   3.728  19.866  0.00  0.00    +0.000 A 
ATOM     24  C   UNL     1       2.435   2.718  20.006  0.00  0.00    +0.000 A 
ATOM     25  C   UNL     1       1.110   3.036  20.299  0.00  0.00    +0.000 A 
ATOM     26  C   UNL     1       0.740   4.365  20.479  0.00  0.00    +0.000 A 
ATOM     27  C   UNL     1       1.697   5.374  20.386  0.00  0.00    +0.000 A 
ATOM     28  C   UNL     1       3.023   5.058  20.084  0.00  0.00    +0.000 A 
ENDBRANCH  22  23
ENDBRANCH  21  22
ENDBRANCH   1  18
TORSDOF 3
ENDMDL
MODEL 2
REMARK VINA RESULT:      -8.6      4.597      6.868
REMARK  Name = 
REMARK  4 active torsions:
REMARK  status: ('A' for Active; 'I' for Inactive)
REMARK    1  A    between atoms: C_1  and  C_2
REMARK    2  A    between atoms: C_3  and  C_4
REMARK    3  A    between atoms: N_19  and  C_20
REMARK    4  A    between atoms: C_20  and  C_21
REMARK                            x       y       z     vdW  Elec       q    Type
REMARK                         _______ _______ _______ _____ _____    ______ ____
ROOT
ATOM      1  C   UNL     1       2.717   6.223  19.440  0.00  0.00    +0.000 C 
ATOM      2  O   UNL     1       2.059   5.661  20.309  0.00  0.00    +0.000 OA
ATOM      3  N   UNL     1       3.843   5.642  18.873  0.00  0.00    +0.000 N 
ATOM      4  C   UNL     1       4.306   4.343  19.301  0.00  0.00    +0.000 C 
ATOM      5  C   UNL     1       5.670   4.188  18.640  0.00  0.00    +0.000 C 
ATOM      6  C   UNL     1       5.612   5.090  17.408  0.00  0.00    +0.000 C 
ATOM      7  C   UNL     1       4.333   5.917  17.533  0.00  0.00    +0.000 C 
ATOM      8  N   UNL     1       5.714   4.408  16.140  0.00  0.00    +0.000 N 
ATOM      9  C   UNL     1       6.611   5.036  15.305  0.00  0.00    +0.000 C 
ATOM     10  O   UNL     1       6.736   4.803  14.118  0.00  0.00    +0.000 OA
ATOM     11  N   UNL     1       7.291   5.961  16.020  0.00  0.00    +0.000 N 
ATOM     12  C   UNL     1       6.802   6.051  17.286  0.00  0.00    +0.000 C 
ATOM     13  O   UNL     1       7.199   6.830  18.138  0.00  0.00    +0.000 OA
ATOM     14  H   UNL     1       5.018   3.787  15.745  0.00  0.00    +0.000 HD
ATOM     15  H   UNL     1       8.018   6.545  15.643  0.00  0.00    +0.000 HD
ENDROOT
BRANCH   1  18
ATOM     16  C   UNL     1       1.110   8.567  20.960  0.00  0.00    +0.000 C 
ATOM     17  C   UNL     1       1.653   8.534  19.578  0.00  0.00    +0.000 A 
ATOM     18  C   UNL     1       2.357   7.533  18.923  0.00  0.00    +0.000 A 
ATOM     19  C   UNL     1       2.659   8.089  17.662  0.00  0.00    +0.000 A 
ATOM     20  N   UNL     1       2.093   9.276  17.471  0.00  0.00    +0.000 NA
ATOM     21  N   UNL     1       1.546   9.568  18.673  0.00  0.00    +0.000 N 
BRANCH  21  22
ATOM     22  C   UNL     1       0.927  10.879  18.846  0.00  0.00    +0.000 C 
BRANCH  22  23
ATOM     23  C   UNL     1      -0.551  10.836  18.543  0.00  0.00    +0.000 A 
ATOM     24  C   UNL     1      -1.068   9.905  17.627  0.00  0.00    +0.000 A 
ATOM     25  C   UNL     1      -2.422   9.905  17.297  0.00  0.00    +0.000 A 
ATOM     26  C   UNL     1      -3.281  10.821  17.898  0.00  0.00    +0.000 A 
ATOM     27  C   UNL     1      -2.790  11.721  18.842  0.00  0.00    +0.000 A 
ATOM     28  C   UNL     1      -1.433  11.728  19.167  0.00  0.00    +0.000 A 
ENDBRANCH  22  23
ENDBRANCH  21  22
ENDBRANCH   1  18
TORSDOF 3
ENDMDL
MODEL 3
REMARK VINA RESULT:      -8.4      7.018     10.511
REMARK  Name = 
REMARK  4 active torsions:
REMARK  status: ('A' for Active; 'I' for Inactive)
REMARK    1  A    between atoms: C_1  and  C_2
REMARK    2  A    between atoms: C_3  and  C_4
REMARK    3  A    between atoms: N_19  and  C_20
REMARK    4  A    between atoms: C_20  and  C_21
REMARK                            x       y       z     vdW  Elec       q    Type
REMARK                         _______ _______ _______ _____ _____    ______ ____
ROOT
ATOM      1  C   UNL     1      -0.316  10.613  19.020  0.00  0.00    +0.000 C 
ATOM      2  O   UNL     1      -1.503  10.371  18.826  0.00  0.00    +0.000 OA
ATOM      3  N   UNL     1       0.129  11.871  19.401  0.00  0.00    +0.000 N 
ATOM      4  C   UNL     1      -0.794  12.969  19.569  0.00  0.00    +0.000 C 
ATOM      5  C   UNL     1       0.097  14.195  19.730  0.00  0.00    +0.000 C 
ATOM      6  C   UNL     1       1.418  13.649  20.274  0.00  0.00    +0.000 C 
ATOM      7  C   UNL     1       1.336  12.127  20.170  0.00  0.00    +0.000 C 
ATOM      8  N   UNL     1       1.772  14.099  21.598  0.00  0.00    +0.000 N 
ATOM      9  C   UNL     1       3.087  14.506  21.653  0.00  0.00    +0.000 C 
ATOM     10  O   UNL     1       3.702  14.733  22.676  0.00  0.00    +0.000 OA
ATOM     11  N   UNL     1       3.570  14.577  20.391  0.00  0.00    +0.000 N 
ATOM     12  C   UNL     1       2.651  14.123  19.495  0.00  0.00    +0.000 C 
ATOM     13  O   UNL     1       2.830  14.037  18.290  0.00  0.00    +0.000 OA
ATOM     14  H   UNL     1       1.293  13.852  22.455  0.00  0.00    +0.000 HD
ATOM     15  H   UNL     1       4.504  14.867  20.158  0.00  0.00    +0.000 HD
ENDROOT
BRANCH   1  18
ATOM     16  C   UNL     1       0.601   8.431  21.207  0.00  0.00    +0.000 C 
ATOM     17  C   UNL     1       1.113   8.666  19.833  0.00  0.00    +0.000 A 
ATOM     18  C   UNL     1       0.713   9.595  18.883  0.00  0.00    +0.000 A 
ATOM     19  C   UNL     1       1.512   9.306  17.756  0.00  0.00    +0.000 A 
ATOM     20  N   UNL     1       2.428   8.374  17.998  0.00  0.00    +0.000 NA
ATOM     21  N   UNL     1       2.125   7.941  19.242  0.00  0.00    +0.000 N 
BRANCH  21  22
ATOM     22  C   UNL     1       2.884   6.817  19.782  0.00  0.00    +0.000 C 
BRANCH  22  23
ATOM     23  C   UNL     1       2.188   5.503  19.519  0.00  0.00    +0.000 A 
ATOM     24  C   UNL     1       1.528   4.821  20.555  0.00  0.00    +0.000 A 
ATOM     25  C   UNL     1       0.940   3.578  20.329  0.00  0.00    +0.000 A 
ATOM     26  C   UNL     1       0.983   3.012  19.059  0.00  0.00    +0.000 A 
ATOM     27  C   UNL     1       1.596   3.697  18.011  0.00  0.00    +0.000 A 
ATOM     28  C   UNL     1       2.193   4.939  18.237  0.00  0.00    +0.000 A 
ENDBRANCH  22  23
ENDBRANCH  21  22
ENDBRANCH   1  18
TORSDOF 3
ENDMDL
MODEL 4
REMARK VINA RESULT:      -8.3      6.731      9.340
REMARK  Name = 
REMARK  4 active torsions:
REMARK  status: ('A' for Active; 'I' for Inactive)
REMARK    1  A    between atoms: C_1  and  C_2
REMARK    2  A    between atoms: C_3  and  C_4
REMARK    3  A    between atoms: N_19  and  C_20
REMARK    4  A    between atoms: C_20  and  C_21
REMARK                            x       y       z     vdW  Elec       q    Type
REMARK                         _______ _______ _______ _____ _____    ______ ____
ROOT
ATOM      1  C   UNL     1       0.425  10.691  19.742  0.00  0.00    +0.000 C 
ATOM      2  O   UNL     1       0.792  11.448  20.637  0.00  0.00    +0.000 OA
ATOM      3  N   UNL     1      -0.740  10.912  19.021  0.00  0.00    +0.000 N 
ATOM      4  C   UNL     1      -1.591  12.043  19.307  0.00  0.00    +0.000 C 
ATOM      5  C   UNL     1      -2.855  11.783  18.496  0.00  0.00    +0.000 C 
ATOM      6  C   UNL     1      -2.402  10.890  17.341  0.00  0.00    +0.000 C 
ATOM      7  C   UNL     1      -0.970  10.461  17.658  0.00  0.00    +0.000 C 
ATOM      8  N   UNL     1      -2.532  11.469  16.026  0.00  0.00    +0.000 N 
ATOM      9  C   UNL     1      -3.114  10.585  15.145  0.00  0.00    +0.000 C 
ATOM     10  O   UNL     1      -3.154  10.730  13.939  0.00  0.00    +0.000 OA
ATOM     11  N   UNL     1      -3.595   9.532  15.846  0.00  0.00    +0.000 N 
ATOM     12  C   UNL     1      -3.257   9.630  17.160  0.00  0.00    +0.000 C 
ATOM     13  O   UNL     1      -3.525   8.802  18.017  0.00  0.00    +0.000 OA
ATOM     14  H   UNL     1      -1.992  12.246  15.665  0.00  0.00    +0.000 HD
ATOM     15  H   UNL     1      -4.082   8.754  15.435  0.00  0.00    +0.000 HD
ENDROOT
BRANCH   1  18
ATOM     16  C   UNL     1       1.517   8.338  21.656  0.00  0.00    +0.000 C 
ATOM     17  C   UNL     1       1.671   8.514  20.189  0.00  0.00    +0.000 A 
ATOM     18  C   UNL     1       1.192   9.518  19.359  0.00  0.00    +0.000 A 
ATOM     19  C   UNL     1       1.597   9.123  18.066  0.00  0.00    +0.000 A 
ATOM     20  N   UNL     1       2.374   8.045  18.075  0.00  0.00    +0.000 NA
ATOM     21  N   UNL     1       2.349   7.642  19.365  0.00  0.00    +0.000 N 
BRANCH  21  22
ATOM     22  C   UNL     1       3.026   6.394  19.708  0.00  0.00    +0.000 C 
BRANCH  22  23
ATOM     23  C   UNL     1       2.145   5.197  19.441  0.00  0.00    +0.000 A 
ATOM     24  C   UNL     1       1.373   4.632  20.469  0.00  0.00    +0.000 A 
ATOM     25  C   UNL     1       0.608   3.488  20.241  0.00  0.00    +0.000 A 
ATOM     26  C   UNL     1       0.589   2.910  18.975  0.00  0.00    +0.000 A 
ATOM     27  C   UNL     1       1.315   3.486  17.934  0.00  0.00    +0.000 A 
ATOM     28  C   UNL     1       2.088   4.626  18.163  0.00  0.00    +0.000 A 
ENDBRANCH  22  23
ENDBRANCH  21  22
ENDBRANCH   1  18
TORSDOF 3
ENDMDL
MODEL 5
REMARK VINA RESULT:      -8.2      7.196     10.695
REMARK  Name = 
REMARK  4 active torsions:
REMARK  status: ('A' for Active; 'I' for Inactive)
REMARK    1  A    between atoms: C_1  and  C_2
REMARK    2  A    between atoms: C_3  and  C_4
REMARK    3  A    between atoms: N_19  and  C_20
REMARK    4  A    between atoms: C_20  and  C_21
REMARK                            x       y       z     vdW  Elec       q    Type
REMARK                         _______ _______ _______ _____ _____    ______ ____
ROOT
ATOM      1  C   UNL     1      -0.467  10.716  19.366  0.00  0.00    +0.000 C 
ATOM      2  O   UNL     1      -1.586  10.543  18.893  0.00  0.00    +0.000 OA
ATOM      3  N   UNL     1       0.090  11.980  19.505  0.00  0.00    +0.000 N 
ATOM      4  C   UNL     1      -0.624  13.160  19.075  0.00  0.00    +0.000 C 
ATOM      5  C   UNL     1       0.406  14.280  19.158  0.00  0.00    +0.000 C 
ATOM      6  C   UNL     1       1.413  13.807  20.207  0.00  0.00    +0.000 C 
ATOM      7  C   UNL     1       1.079  12.346  20.505  0.00  0.00    +0.000 C 
ATOM      8  N   UNL     1       1.486  14.617  21.399  0.00  0.00    +0.000 N 
ATOM      9  C   UNL     1       2.793  14.889  21.739  0.00  0.00    +0.000 C 
ATOM     10  O   UNL     1       3.150  15.367  22.798  0.00  0.00    +0.000 OA
ATOM     11  N   UNL     1       3.593  14.508  20.717  0.00  0.00    +0.000 N 
ATOM     12  C   UNL     1       2.873  13.887  19.744  0.00  0.00    +0.000 C 
ATOM     13  O   UNL     1       3.342  13.406  18.724  0.00  0.00    +0.000 OA
ATOM     14  H   UNL     1       0.762  14.702  22.102  0.00  0.00    +0.000 HD
ATOM     15  H   UNL     1       4.593  14.616  20.711  0.00  0.00    +0.000 HD
ENDROOT
BRANCH   1  18
ATOM     16  C   UNL     1       1.736   9.051  17.702  0.00  0.00    +0.000 C 
ATOM     17  C   UNL     1       1.291   8.889  19.110  0.00  0.00    +0.000 A 
ATOM     18  C   UNL     1       0.353   9.612  19.835  0.00  0.00    +0.000 A 
ATOM     19  C   UNL     1       0.401   9.045  21.127  0.00  0.00    +0.000 A 
ATOM     20  N   UNL     1       1.191   7.978  21.194  0.00  0.00    +0.000 NA
ATOM     21  N   UNL     1       1.783   7.940  19.979  0.00  0.00    +0.000 N 
BRANCH  21  22
ATOM     22  C   UNL     1       2.816   6.933  19.750  0.00  0.00    +0.000 C 
BRANCH  22  23
ATOM     23  C   UNL     1       2.211   5.588  19.425  0.00  0.00    +0.000 A 
ATOM     24  C   UNL     1       2.195   5.110  18.104  0.00  0.00    +0.000 A 
ATOM     25  C   UNL     1       1.581   3.898  17.792  0.00  0.00    +0.000 A 
ATOM     26  C   UNL     1       0.996   3.138  18.801  0.00  0.00    +0.000 A 
ATOM     27  C   UNL     1       1.044   3.579  20.122  0.00  0.00    +0.000 A 
ATOM     28  C   UNL     1       1.651   4.796  20.436  0.00  0.00    +0.000 A 
ENDBRANCH  22  23
ENDBRANCH  21  22
ENDBRANCH   1  18
TORSDOF 3
ENDMDL
MODEL 6
REMARK VINA RESULT:      -8.2      6.579      9.419
REMARK  Name = 
REMARK  4 active torsions:
REMARK  status: ('A' for Active; 'I' for Inactive)
REMARK    1  A    between atoms: C_1  and  C_2
REMARK    2  A    between atoms: C_3  and  C_4
REMARK    3  A    between atoms: N_19  and  C_20
REMARK    4  A    between atoms: C_20  and  C_21
REMARK                            x       y       z     vdW  Elec       q    Type
REMARK                         _______ _______ _______ _____ _____    ______ ____
ROOT
ATOM      1  C   UNL     1       0.547  10.847  19.664  0.00  0.00    +0.000 C 
ATOM      2  O   UNL     1       0.995  11.680  20.448  0.00  0.00    +0.000 OA
ATOM      3  N   UNL     1      -0.606  11.073  18.926  0.00  0.00    +0.000 N 
ATOM      4  C   UNL     1      -1.350  12.304  19.064  0.00  0.00    +0.000 C 
ATOM      5  C   UNL     1      -2.645  12.052  18.302  0.00  0.00    +0.000 C 
ATOM      6  C   UNL     1      -2.293  10.977  17.274  0.00  0.00    +0.000 C 
ATOM      7  C   UNL     1      -0.898  10.468  17.637  0.00  0.00    +0.000 C 
ATOM      8  N   UNL     1      -2.395  11.386  15.894  0.00  0.00    +0.000 N 
ATOM      9  C   UNL     1      -3.067  10.448  15.143  0.00  0.00    +0.000 C 
ATOM     10  O   UNL     1      -3.115  10.436  13.928  0.00  0.00    +0.000 OA
ATOM     11  N   UNL     1      -3.626   9.544  15.980  0.00  0.00    +0.000 N 
ATOM     12  C   UNL     1      -3.258   9.785  17.268  0.00  0.00    +0.000 C 
ATOM     13  O   UNL     1      -3.583   9.105  18.229  0.00  0.00    +0.000 OA
ATOM     14  H   UNL     1      -1.795  12.057  15.430  0.00  0.00    +0.000 HD
ATOM     15  H   UNL     1      -4.186   8.765  15.680  0.00  0.00    +0.000 HD
ENDROOT
BRANCH   1  18
ATOM     16  C   UNL     1       0.798   8.368  21.710  0.00  0.00    +0.000 C 
ATOM     17  C   UNL     1       1.318   8.510  20.326  0.00  0.00    +0.000 A 
ATOM     18  C   UNL     1       1.202   9.570  19.436  0.00  0.00    +0.000 A 
ATOM     19  C   UNL     1       1.838   9.111  18.263  0.00  0.00    +0.000 A 
ATOM     20  N   UNL     1       2.424   7.928  18.423  0.00  0.00    +0.000 NA
ATOM     21  N   UNL     1       2.035   7.541  19.658  0.00  0.00    +0.000 N 
BRANCH  21  22
ATOM     22  C   UNL     1       2.420   6.208  20.113  0.00  0.00    +0.000 C 
BRANCH  22  23
ATOM     23  C   UNL     1       2.919   5.358  18.970  0.00  0.00    +0.000 A 
ATOM     24  C   UNL     1       2.034   4.543  18.244  0.00  0.00    +0.000 A 
ATOM     25  C   UNL     1       2.502   3.709  17.229  0.00  0.00    +0.000 A 
ATOM     26  C   UNL     1       3.857   3.696  16.914  0.00  0.00    +0.000 A 
ATOM     27  C   UNL     1       4.740   4.531  17.596  0.00  0.00    +0.000 A 
ATOM     28  C   UNL     1       4.275   5.361  18.618  0.00  0.00    +0.000 A 
ENDBRANCH  22  23
ENDBRANCH  21  22
ENDBRANCH   1  18
TORSDOF 3
ENDMDL
MODEL 7
REMARK VINA RESULT:      -8.1      1.157      1.738
REMARK  Name = 
REMARK  4 active torsions:
REMARK  status: ('A' for Active; 'I' for Inactive)
REMARK    1  A    between atoms: C_1  and  C_2
REMARK    2  A    between atoms: C_3  and  C_4
REMARK    3  A    between atoms: N_19  and  C_20
REMARK    4  A    between atoms: C_20  and  C_21
REMARK                            x       y       z     vdW  Elec       q    Type
REMARK                         _______ _______ _______ _____ _____    ______ ____
ROOT
ATOM      1  C   UNL     1       6.568   5.392  15.468  0.00  0.00    +0.000 C 
ATOM      2  O   UNL     1       7.423   6.162  15.896  0.00  0.00    +0.000 OA
ATOM      3  N   UNL     1       6.652   4.822  14.206  0.00  0.00    +0.000 N 
ATOM      4  C   UNL     1       7.752   5.128  13.321  0.00  0.00    +0.000 C 
ATOM      5  C   UNL     1       7.344   4.523  11.984  0.00  0.00    +0.000 C 
ATOM      6  C   UNL     1       6.378   3.395  12.343  0.00  0.00    +0.000 C 
ATOM      7  C   UNL     1       6.065   3.546  13.831  0.00  0.00    +0.000 C 
ATOM      8  N   UNL     1       6.825   2.067  11.999  0.00  0.00    +0.000 N 
ATOM      9  C   UNL     1       5.831   1.350  11.371  0.00  0.00    +0.000 C 
ATOM     10  O   UNL     1       5.863   0.154  11.162  0.00  0.00    +0.000 OA
ATOM     11  N   UNL     1       4.820   2.195  11.063  0.00  0.00    +0.000 N 
ATOM     12  C   UNL     1       5.058   3.438  11.563  0.00  0.00    +0.000 C 
ATOM     13  O   UNL     1       4.297   4.389  11.470  0.00  0.00    +0.000 OA
ATOM     14  H   UNL     1       7.597   1.572  12.431  0.00  0.00    +0.000 HD
ATOM     15  H   UNL     1       3.980   1.921  10.582  0.00  0.00    +0.000 HD
ENDROOT
BRANCH   1  18
ATOM     16  C   UNL     1       4.233   7.298  16.611  0.00  0.00    +0.000 C 
ATOM     17  C   UNL     1       4.415   5.832  16.760  0.00  0.00    +0.000 A 
ATOM     18  C   UNL     1       5.411   5.005  16.259  0.00  0.00    +0.000 A 
ATOM     19  C   UNL     1       5.028   3.710  16.672  0.00  0.00    +0.000 A 
ATOM     20  N   UNL     1       3.967   3.717  17.472  0.00  0.00    +0.000 NA
ATOM     21  N   UNL     1       3.560   5.006  17.456  0.00  0.00    +0.000 N 
BRANCH  21  22
ATOM     22  C   UNL     1       2.326   5.345  18.159  0.00  0.00    +0.000 C 
BRANCH  22  23
ATOM     23  C   UNL     1       2.053   4.383  19.290  0.00  0.00    +0.000 A 
ATOM     24  C   UNL     1       2.542   4.640  20.582  0.00  0.00    +0.000 A 
ATOM     25  C   UNL     1       2.346   3.723  21.614  0.00  0.00    +0.000 A 
ATOM     26  C   UNL     1       1.639   2.548  21.371  0.00  0.00    +0.000 A 
ATOM     27  C   UNL     1       1.111   2.302  20.105  0.00  0.00    +0.000 A 
ATOM     28  C   UNL     1       1.313   3.215  19.069  0.00  0.00    +0.000 A 
ENDBRANCH  22  23
ENDBRANCH  21  22
ENDBRANCH   1  18
TORSDOF 3
ENDMDL
MODEL 8
REMARK VINA RESULT:      -8.1      6.958      9.524
REMARK  Name = 
REMARK  4 active torsions:
REMARK  status: ('A' for Active; 'I' for Inactive)
REMARK    1  A    between atoms: C_1  and  C_2
REMARK    2  A    between atoms: C_3  and  C_4
REMARK    3  A    between atoms: N_19  and  C_20
REMARK    4  A    between atoms: C_20  and  C_21
REMARK                            x       y       z     vdW  Elec       q    Type
REMARK                         _______ _______ _______ _____ _____    ______ ____
ROOT
ATOM      1  C   UNL     1      -0.025  10.923  20.287  0.00  0.00    +0.000 C 
ATOM      2  O   UNL     1       0.302  11.806  21.074  0.00  0.00    +0.000 OA
ATOM      3  N   UNL     1      -1.030  11.106  19.347  0.00  0.00    +0.000 N 
ATOM      4  C   UNL     1      -1.757  12.351  19.266  0.00  0.00    +0.000 C 
ATOM      5  C   UNL     1      -2.909  12.057  18.313  0.00  0.00    +0.000 C 
ATOM      6  C   UNL     1      -2.412  10.905  17.441  0.00  0.00    +0.000 C 
ATOM      7  C   UNL     1      -1.112  10.409  18.074  0.00  0.00    +0.000 C 
ATOM      8  N   UNL     1      -2.267  11.211  16.038  0.00  0.00    +0.000 N 
ATOM      9  C   UNL     1      -2.823  10.227  15.252  0.00  0.00    +0.000 C 
ATOM     10  O   UNL     1      -2.664  10.124  14.051  0.00  0.00    +0.000 OA
ATOM     11  N   UNL     1      -3.538   9.394  16.043  0.00  0.00    +0.000 N 
ATOM     12  C   UNL     1      -3.390   9.726  17.354  0.00  0.00    +0.000 C 
ATOM     13  O   UNL     1      -3.889   9.124  18.291  0.00  0.00    +0.000 OA
ATOM     14  H   UNL     1      -1.581  11.839  15.637  0.00  0.00    +0.000 HD
ATOM     15  H   UNL     1      -4.057   8.601  15.707  0.00  0.00    +0.000 HD
ENDROOT
BRANCH   1  18
ATOM     16  C   UNL     1       2.055   9.797  18.097  0.00  0.00    +0.000 C 
ATOM     17  C   UNL     1       1.514   9.140  19.314  0.00  0.00    +0.000 A 
ATOM     18  C   UNL     1       0.628   9.625  20.267  0.00  0.00    +0.000 A 
ATOM     19  C   UNL     1       0.533   8.583  21.215  0.00  0.00    +0.000 A 
ATOM     20  N   UNL     1       1.184   7.486  20.843  0.00  0.00    +0.000 NA
ATOM     21  N   UNL     1       1.837   7.864  19.722  0.00  0.00    +0.000 N 
BRANCH  21  22
ATOM     22  C   UNL     1       2.754   6.908  19.105  0.00  0.00    +0.000 C 
BRANCH  22  23
ATOM     23  C   UNL     1       2.227   5.497  19.204  0.00  0.00    +0.000 A 
ATOM     24  C   UNL     1       1.863   4.786  18.048  0.00  0.00    +0.000 A 
ATOM     25  C   UNL     1       1.316   3.507  18.140  0.00  0.00    +0.000 A 
ATOM     26  C   UNL     1       1.149   2.914  19.388  0.00  0.00    +0.000 A 
ATOM     27  C   UNL     1       1.547   3.590  20.540  0.00  0.00    +0.000 A 
ATOM     28  C   UNL     1       2.086   4.874  20.450  0.00  0.00    +0.000 A 
ENDBRANCH  22  23
ENDBRANCH  21  22
ENDBRANCH   1  18
TORSDOF 3
ENDMDL
MODEL 9
REMARK VINA RESULT:      -8.1      6.763      9.426
REMARK  Name = 
REMARK  4 active torsions:
REMARK  status: ('A' for Active; 'I' for Inactive)
REMARK    1  A    between atoms: C_1  and  C_2
REMARK    2  A    between atoms: C_3  and  C_4
REMARK    3  A    between atoms: N_19  and  C_20
REMARK    4  A    between atoms: C_20  and  C_21
REMARK                            x       y       z     vdW  Elec       q    Type
REMARK                         _______ _______ _______ _____ _____    ______ ____
ROOT
ATOM      1  C   UNL     1       0.398  10.540  20.370  0.00  0.00    +0.000 C 
ATOM      2  O   UNL     1       0.798  11.312  21.236  0.00  0.00    +0.000 OA
ATOM      3  N   UNL     1      -0.669  10.851  19.539  0.00  0.00    +0.000 N 
ATOM      4  C   UNL     1      -1.377  12.103  19.672  0.00  0.00    +0.000 C 
ATOM      5  C   UNL     1      -2.600  11.946  18.777  0.00  0.00    +0.000 C 
ATOM      6  C   UNL     1      -2.190  10.910  17.732  0.00  0.00    +0.000 C 
ATOM      7  C   UNL     1      -0.857  10.324  18.198  0.00  0.00    +0.000 C 
ATOM      8  N   UNL     1      -2.142  11.391  16.372  0.00  0.00    +0.000 N 
ATOM      9  C   UNL     1      -2.773  10.522  15.511  0.00  0.00    +0.000 C 
ATOM     10  O   UNL     1      -2.704  10.572  14.298  0.00  0.00    +0.000 OA
ATOM     11  N   UNL     1      -3.444   9.601  16.241  0.00  0.00    +0.000 N 
ATOM     12  C   UNL     1      -3.194   9.761  17.569  0.00  0.00    +0.000 C 
ATOM     13  O   UNL     1      -3.635   9.048  18.457  0.00  0.00    +0.000 OA
ATOM     14  H   UNL     1      -1.475  12.059  16.004  0.00  0.00    +0.000 HD
ATOM     15  H   UNL     1      -4.001   8.863  15.847  0.00  0.00    +0.000 HD
ENDROOT
BRANCH   1  18
ATOM     16  C   UNL     1       2.211   9.654  17.857  0.00  0.00    +0.000 C 
ATOM     17  C   UNL     1       1.792   8.868  19.046  0.00  0.00    +0.000 A 
ATOM     18  C   UNL     1       1.023   9.249  20.137  0.00  0.00    +0.000 A 
ATOM     19  C   UNL     1       1.012   8.109  20.969  0.00  0.00    +0.000 A 
ATOM     20  N   UNL     1       1.601   7.056  20.410  0.00  0.00    +0.000 NA
ATOM     21  N   UNL     1       2.136   7.553  19.273  0.00  0.00    +0.000 N 
BRANCH  21  22
ATOM     22  C   UNL     1       2.964   6.668  18.459  0.00  0.00    +0.000 C 
BRANCH  22  23
ATOM     23  C   UNL     1       2.648   5.216  18.727  0.00  0.00    +0.000 A 
ATOM     24  C   UNL     1       3.370   4.491  19.690  0.00  0.00    +0.000 A 
ATOM     25  C   UNL     1       3.123   3.134  19.894  0.00  0.00    +0.000 A 
ATOM     26  C   UNL     1       2.136   2.491  19.154  0.00  0.00    +0.000 A 
ATOM     27  C   UNL     1       1.381   3.208  18.227  0.00  0.00    +0.000 A 
ATOM     28  C   UNL     1       1.633   4.565  18.015  0.00  0.00    +0.000 A 
ENDBRANCH  22  23
ENDBRANCH  21  22
ENDBRANCH   1  18
TORSDOF 3
ENDMDL
