MODEL 1
REMARK VINA RESULT:      -8.5      0.000      0.000
REMARK  Name = 
REMARK  4 active torsions:
REMARK  status: ('A' for Active; 'I' for Inactive)
REMARK    1  A    between atoms: C_2  and  C_3
REMARK    2  A    between atoms: N_7  and  C_8
REMARK    3  A    between atoms: C_8  and  C_9
REMARK    4  A    between atoms: C_17  and  C_18
REMARK                            x       y       z     vdW  Elec       q    Type
REMARK                         _______ _______ _______ _____ _____    ______ ____
ROOT
ATOM      1  O   UNL     1       2.132   6.273  20.967  0.00  0.00    +0.000 OA
ATOM      2  C   UNL     1       2.191   6.754  19.837  0.00  0.00    +0.000 C 
ATOM      3  N   UNL     1       1.686   8.025  19.508  0.00  0.00    +0.000 N 
ATOM      4  C   UNL     1       1.672   8.582  18.149  0.00  0.00    +0.000 C 
ATOM      5  C   UNL     1       1.721  10.101  18.093  0.00  0.00    +0.000 C 
ATOM      6  C   UNL     1       0.720  10.770  19.034  0.00  0.00    +0.000 C 
ATOM      7  C   UNL     1       0.894  10.198  20.445  0.00  0.00    +0.000 C 
ATOM      8  C   UNL     1       0.826   8.675  20.499  0.00  0.00    +0.000 C 
ENDROOT
BRANCH   6   9
ATOM      9  C   UNL     1      -0.708  10.736  18.523  0.00  0.00    +0.000 A 
ATOM     10  C   UNL     1      -1.208  10.028  17.446  0.00  0.00    +0.000 A 
ATOM     11  N   UNL     1      -2.538  10.307  17.304  0.00  0.00    +0.000 N 
ATOM     12  C   UNL     1      -2.948  11.167  18.290  0.00  0.00    +0.000 A 
ATOM     13  C   UNL     1      -4.218  11.699  18.544  0.00  0.00    +0.000 A 
ATOM     14  C   UNL     1      -4.346  12.552  19.629  0.00  0.00    +0.000 A 
ATOM     15  F   UNL     1      -5.542  13.069  19.913  0.00  0.00    +0.000 F 
ATOM     16  C   UNL     1      -3.257  12.874  20.437  0.00  0.00    +0.000 A 
ATOM     17  C   UNL     1      -1.993  12.339  20.168  0.00  0.00    +0.000 A 
ATOM     18  C   UNL     1      -1.829  11.460  19.074  0.00  0.00    +0.000 A 
ATOM     19  H   UNL     1      -3.137   9.936  16.579  0.00  0.00    +0.000 HD
ENDBRANCH   6   9
BRANCH   2  20
ATOM     20  C   UNL     1       2.874   5.951  18.800  0.00  0.00    +0.000 A 
ATOM     21  C   UNL     1       2.242   4.863  18.204  0.00  0.00    +0.000 A 
ATOM     22  C   UNL     1       2.981   4.027  17.361  0.00  0.00    +0.000 A 
ATOM     23  C   UNL     1       4.317   4.324  17.093  0.00  0.00    +0.000 A 
ATOM     24  N   UNL     1       5.123   3.390  16.422  0.00  0.00    +0.000 N 
ATOM     25  N   UNL     1       4.889   5.441  17.586  0.00  0.00    +0.000 NA
ATOM     26  C   UNL     1       4.162   6.236  18.398  0.00  0.00    +0.000 A 
ATOM     27  H   UNL     1       4.593   2.858  15.744  0.00  0.00    +0.000 HD
BRANCH  24  28
ATOM     28  C   UNL     1       6.306   4.004  15.827  0.00  0.00    +0.000 C 
BRANCH  28  29
ATOM     29  C   UNL     1       5.983   4.540  14.464  0.00  0.00    +0.000 C 
ATOM     30  C   UNL     1       6.195   3.712  13.221  0.00  0.00    +0.000 C 
ATOM     31  C   UNL     1       7.122   4.855  13.520  0.00  0.00    +0.000 C 
ENDBRANCH  28  29
ENDBRANCH  24  28
ENDBRANCH   2  20
TORSDOF 4
ENDMDL
MODEL 2
REMARK VINA RESULT:      -8.1      1.201      1.666
REMARK  Name = 
REMARK  4 active torsions:
REMARK  status: ('A' for Active; 'I' for Inactive)
REMARK    1  A    between atoms: C_2  and  C_3
REMARK    2  A    between atoms: N_7  and  C_8
REMARK    3  A    between atoms: C_8  and  C_9
REMARK    4  A    between atoms: C_17  and  C_18
REMARK                            x       y       z     vdW  Elec       q    Type
REMARK                         _______ _______ _______ _____ _____    ______ ____
ROOT
ATOM      1  O   UNL     1       2.929   5.812  20.090  0.00  0.00    +0.000 OA
ATOM      2  C   UNL     1       3.009   6.565  19.123  0.00  0.00    +0.000 C 
ATOM      3  N   UNL     1       2.317   7.787  19.030  0.00  0.00    +0.000 N 
ATOM      4  C   UNL     1       2.335   8.659  17.848  0.00  0.00    +0.000 C 
ATOM      5  C   UNL     1       2.113  10.132  18.153  0.00  0.00    +0.000 C 
ATOM      6  C   UNL     1       0.920  10.382  19.076  0.00  0.00    +0.000 C 
ATOM      7  C   UNL     1       1.057   9.507  20.326  0.00  0.00    +0.000 C 
ATOM      8  C   UNL     1       1.261   8.027  20.016  0.00  0.00    +0.000 C 
ENDROOT
BRANCH   6   9
ATOM      9  C   UNL     1      -0.421  10.262  18.379  0.00  0.00    +0.000 A 
ATOM     10  C   UNL     1      -0.743   9.477  17.286  0.00  0.00    +0.000 A 
ATOM     11  N   UNL     1      -2.049   9.693  16.948  0.00  0.00    +0.000 N 
ATOM     12  C   UNL     1      -2.621  10.585  17.819  0.00  0.00    +0.000 A 
ATOM     13  C   UNL     1      -3.932  11.076  17.867  0.00  0.00    +0.000 A 
ATOM     14  C   UNL     1      -4.238  11.978  18.873  0.00  0.00    +0.000 A 
ATOM     15  F   UNL     1      -5.478  12.458  18.962  0.00  0.00    +0.000 F 
ATOM     16  C   UNL     1      -3.283  12.387  19.802  0.00  0.00    +0.000 A 
ATOM     17  C   UNL     1      -1.975  11.892  19.739  0.00  0.00    +0.000 A 
ATOM     18  C   UNL     1      -1.632  10.966  18.730  0.00  0.00    +0.000 A 
ATOM     19  H   UNL     1      -2.529   9.259  16.172  0.00  0.00    +0.000 HD
ENDBRANCH   6   9
BRANCH   2  20
ATOM     20  C   UNL     1       3.924   6.163  18.033  0.00  0.00    +0.000 A 
ATOM     21  C   UNL     1       5.029   6.941  17.701  0.00  0.00    +0.000 A 
ATOM     22  C   UNL     1       5.765   6.622  16.555  0.00  0.00    +0.000 A 
ATOM     23  C   UNL     1       5.413   5.505  15.797  0.00  0.00    +0.000 A 
ATOM     24  N   UNL     1       6.006   5.293  14.542  0.00  0.00    +0.000 N 
ATOM     25  N   UNL     1       4.410   4.693  16.189  0.00  0.00    +0.000 NA
ATOM     26  C   UNL     1       3.710   5.017  17.295  0.00  0.00    +0.000 A 
ATOM     27  H   UNL     1       6.965   5.617  14.522  0.00  0.00    +0.000 HD
BRANCH  24  28
ATOM     28  C   UNL     1       5.891   3.906  14.103  0.00  0.00    +0.000 C 
BRANCH  28  29
ATOM     29  C   UNL     1       5.896   3.833  12.605  0.00  0.00    +0.000 C 
ATOM     30  C   UNL     1       4.724   3.271  11.839  0.00  0.00    +0.000 C 
ATOM     31  C   UNL     1       5.993   2.476  11.944  0.00  0.00    +0.000 C 
ENDBRANCH  28  29
ENDBRANCH  24  28
ENDBRANCH   2  20
TORSDOF 4
ENDMDL
MODEL 3
REMARK VINA RESULT:      -7.4      3.838      9.711
REMARK  Name = 
REMARK  4 active torsions:
REMARK  status: ('A' for Active; 'I' for Inactive)
REMARK    1  A    between atoms: C_2  and  C_3
REMARK    2  A    between atoms: N_7  and  C_8
REMARK    3  A    between atoms: C_8  and  C_9
REMARK    4  A    between atoms: C_17  and  C_18
REMARK                            x       y       z     vdW  Elec       q    Type
REMARK                         _______ _______ _______ _____ _____    ______ ____
ROOT
ATOM      1  O   UNL     1       1.336   7.957  21.785  0.00  0.00    +0.000 OA
ATOM      2  C   UNL     1       1.524   7.962  20.570  0.00  0.00    +0.000 C 
ATOM      3  N   UNL     1       1.966   6.838  19.848  0.00  0.00    +0.000 N 
ATOM      4  C   UNL     1       2.275   6.848  18.412  0.00  0.00    +0.000 C 
ATOM      5  C   UNL     1       2.091   5.506  17.722  0.00  0.00    +0.000 C 
ATOM      6  C   UNL     1       2.742   4.347  18.476  0.00  0.00    +0.000 C 
ATOM      7  C   UNL     1       2.267   4.362  19.933  0.00  0.00    +0.000 C 
ATOM      8  C   UNL     1       2.471   5.706  20.627  0.00  0.00    +0.000 C 
ENDROOT
BRANCH   6   9
ATOM      9  C   UNL     1       4.249   4.290  18.316  0.00  0.00    +0.000 A 
ATOM     10  C   UNL     1       5.197   4.029  19.289  0.00  0.00    +0.000 A 
ATOM     11  N   UNL     1       6.443   4.112  18.735  0.00  0.00    +0.000 N 
ATOM     12  C   UNL     1       6.347   4.392  17.395  0.00  0.00    +0.000 A 
ATOM     13  C   UNL     1       7.356   4.542  16.437  0.00  0.00    +0.000 A 
ATOM     14  C   UNL     1       6.964   4.822  15.138  0.00  0.00    +0.000 A 
ATOM     15  F   UNL     1       7.893   4.959  14.192  0.00  0.00    +0.000 F 
ATOM     16  C   UNL     1       5.620   4.952  14.793  0.00  0.00    +0.000 A 
ATOM     17  C   UNL     1       4.622   4.804  15.763  0.00  0.00    +0.000 A 
ATOM     18  C   UNL     1       4.987   4.512  17.095  0.00  0.00    +0.000 A 
ATOM     19  H   UNL     1       7.312   3.986  19.235  0.00  0.00    +0.000 HD
ENDBRANCH   6   9
BRANCH   2  20
ATOM     20  C   UNL     1       1.216   9.216  19.849  0.00  0.00    +0.000 A 
ATOM     21  C   UNL     1       1.732   9.456  18.578  0.00  0.00    +0.000 A 
ATOM     22  C   UNL     1       1.565  10.721  18.006  0.00  0.00    +0.000 A 
ATOM     23  C   UNL     1       0.844  11.699  18.692  0.00  0.00    +0.000 A 
ATOM     24  N   UNL     1       0.844  13.025  18.229  0.00  0.00    +0.000 N 
ATOM     25  N   UNL     1       0.254  11.422  19.871  0.00  0.00    +0.000 NA
ATOM     26  C   UNL     1       0.427  10.197  20.410  0.00  0.00    +0.000 A 
ATOM     27  H   UNL     1       0.892  13.068  17.219  0.00  0.00    +0.000 HD
BRANCH  24  28
ATOM     28  C   UNL     1      -0.279  13.795  18.754  0.00  0.00    +0.000 C 
BRANCH  28  29
ATOM     29  C   UNL     1       0.169  15.175  19.132  0.00  0.00    +0.000 C 
ATOM     30  C   UNL     1      -0.741  16.125  19.871  0.00  0.00    +0.000 C 
ATOM     31  C   UNL     1      -0.443  16.360  18.418  0.00  0.00    +0.000 C 
ENDBRANCH  28  29
ENDBRANCH  24  28
ENDBRANCH   2  20
TORSDOF 4
ENDMDL
MODEL 4
REMARK VINA RESULT:      -7.3      2.532      3.632
REMARK  Name = 
REMARK  4 active torsions:
REMARK  status: ('A' for Active; 'I' for Inactive)
REMARK    1  A    between atoms: C_2  and  C_3
REMARK    2  A    between atoms: N_7  and  C_8
REMARK    3  A    between atoms: C_8  and  C_9
REMARK    4  A    between atoms: C_17  and  C_18
REMARK                            x       y       z     vdW  Elec       q    Type
REMARK                         _______ _______ _______ _____ _____    ______ ____
ROOT
ATOM      1  O   UNL     1       1.014   9.179  22.205  0.00  0.00    +0.000 OA
ATOM      2  C   UNL     1       0.846   9.210  20.988  0.00  0.00    +0.000 C 
ATOM      3  N   UNL     1       0.062  10.180  20.337  0.00  0.00    +0.000 N 
ATOM      4  C   UNL     1      -0.219  10.185  18.896  0.00  0.00    +0.000 C 
ATOM      5  C   UNL     1      -0.484  11.565  18.313  0.00  0.00    +0.000 C 
ATOM      6  C   UNL     1      -1.485  12.381  19.130  0.00  0.00    +0.000 C 
ATOM      7  C   UNL     1      -1.039  12.405  20.596  0.00  0.00    +0.000 C 
ATOM      8  C   UNL     1      -0.793  11.018  21.182  0.00  0.00    +0.000 C 
ENDROOT
BRANCH   6   9
ATOM      9  C   UNL     1      -2.926  11.953  18.927  0.00  0.00    +0.000 A 
ATOM     10  C   UNL     1      -3.445  11.175  17.908  0.00  0.00    +0.000 A 
ATOM     11  N   UNL     1      -4.796  11.059  18.076  0.00  0.00    +0.000 N 
ATOM     12  C   UNL     1      -5.189  11.718  19.213  0.00  0.00    +0.000 A 
ATOM     13  C   UNL     1      -6.462  11.844  19.781  0.00  0.00    +0.000 A 
ATOM     14  C   UNL     1      -6.568  12.574  20.953  0.00  0.00    +0.000 A 
ATOM     15  F   UNL     1      -7.761  12.706  21.534  0.00  0.00    +0.000 F 
ATOM     16  C   UNL     1      -5.454  13.166  21.547  0.00  0.00    +0.000 A 
ATOM     17  C   UNL     1      -4.188  13.037  20.965  0.00  0.00    +0.000 A 
ATOM     18  C   UNL     1      -4.045  12.293  19.774  0.00  0.00    +0.000 A 
ATOM     19  H   UNL     1      -5.419  10.559  17.456  0.00  0.00    +0.000 HD
ENDBRANCH   6   9
BRANCH   2  20
ATOM     20  C   UNL     1       1.553   8.189  20.185  0.00  0.00    +0.000 A 
ATOM     21  C   UNL     1       2.004   8.474  18.900  0.00  0.00    +0.000 A 
ATOM     22  C   UNL     1       2.508   7.435  18.110  0.00  0.00    +0.000 A 
ATOM     23  C   UNL     1       2.598   6.148  18.640  0.00  0.00    +0.000 A 
ATOM     24  N   UNL     1       2.903   5.063  17.802  0.00  0.00    +0.000 N 
ATOM     25  N   UNL     1       2.263   5.904  19.923  0.00  0.00    +0.000 NA
ATOM     26  C   UNL     1       1.778   6.917  20.669  0.00  0.00    +0.000 A 
ATOM     27  H   UNL     1       3.534   5.333  17.057  0.00  0.00    +0.000 HD
BRANCH  24  28
ATOM     28  C   UNL     1       3.402   3.911  18.546  0.00  0.00    +0.000 C 
BRANCH  28  29
ATOM     29  C   UNL     1       2.492   2.734  18.352  0.00  0.00    +0.000 C 
ATOM     30  C   UNL     1       0.996   2.862  18.498  0.00  0.00    +0.000 C 
ATOM     31  C   UNL     1       1.789   2.154  19.558  0.00  0.00    +0.000 C 
ENDBRANCH  28  29
ENDBRANCH  24  28
ENDBRANCH   2  20
TORSDOF 4
ENDMDL
MODEL 5
REMARK VINA RESULT:      -7.3      0.944      1.264
REMARK  Name = 
REMARK  4 active torsions:
REMARK  status: ('A' for Active; 'I' for Inactive)
REMARK    1  A    between atoms: C_2  and  C_3
REMARK    2  A    between atoms: N_7  and  C_8
REMARK    3  A    between atoms: C_8  and  C_9
REMARK    4  A    between atoms: C_17  and  C_18
REMARK                            x       y       z     vdW  Elec       q    Type
REMARK                         _______ _______ _______ _____ _____    ______ ____
ROOT
ATOM      1  O   UNL     1       1.795   6.509  21.103  0.00  0.00    +0.000 OA
ATOM      2  C   UNL     1       1.858   7.061  20.007  0.00  0.00    +0.000 C 
ATOM      3  N   UNL     1       1.414   8.376  19.775  0.00  0.00    +0.000 N 
ATOM      4  C   UNL     1       1.404   9.024  18.456  0.00  0.00    +0.000 C 
ATOM      5  C   UNL     1       1.531  10.539  18.501  0.00  0.00    +0.000 C 
ATOM      6  C   UNL     1       0.584  11.192  19.507  0.00  0.00    +0.000 C 
ATOM      7  C   UNL     1       0.755  10.518  20.872  0.00  0.00    +0.000 C 
ATOM      8  C   UNL     1       0.608   9.000  20.826  0.00  0.00    +0.000 C 
ENDROOT
BRANCH   6   9
ATOM      9  C   UNL     1      -0.852  11.267  19.027  0.00  0.00    +0.000 A 
ATOM     10  C   UNL     1      -1.392  10.722  17.876  0.00  0.00    +0.000 A 
ATOM     11  N   UNL     1      -2.716  11.055  17.800  0.00  0.00    +0.000 N 
ATOM     12  C   UNL     1      -3.082  11.786  18.901  0.00  0.00    +0.000 A 
ATOM     13  C   UNL     1      -4.331  12.315  19.250  0.00  0.00    +0.000 A 
ATOM     14  C   UNL     1      -4.414  13.018  20.441  0.00  0.00    +0.000 A 
ATOM     15  F   UNL     1      -5.589  13.526  20.817  0.00  0.00    +0.000 F 
ATOM     16  C   UNL     1      -3.302  13.199  21.261  0.00  0.00    +0.000 A 
ATOM     17  C   UNL     1      -2.059  12.670  20.897  0.00  0.00    +0.000 A 
ATOM     18  C   UNL     1      -1.941  11.942  19.693  0.00  0.00    +0.000 A 
ATOM     19  H   UNL     1      -3.338  10.799  17.046  0.00  0.00    +0.000 HD
ENDBRANCH   6   9
BRANCH   2  20
ATOM     20  C   UNL     1       2.478   6.297  18.904  0.00  0.00    +0.000 A 
ATOM     21  C   UNL     1       2.064   5.001  18.608  0.00  0.00    +0.000 A 
ATOM     22  C   UNL     1       2.793   4.251  17.679  0.00  0.00    +0.000 A 
ATOM     23  C   UNL     1       3.884   4.829  17.029  0.00  0.00    +0.000 A 
ATOM     24  N   UNL     1       4.743   4.031  16.256  0.00  0.00    +0.000 N 
ATOM     25  N   UNL     1       4.209   6.120  17.240  0.00  0.00    +0.000 NA
ATOM     26  C   UNL     1       3.497   6.828  18.140  0.00  0.00    +0.000 A 
ATOM     27  H   UNL     1       4.244   3.277  15.801  0.00  0.00    +0.000 HD
BRANCH  24  28
ATOM     28  C   UNL     1       5.523   4.817  15.305  0.00  0.00    +0.000 C 
BRANCH  28  29
ATOM     29  C   UNL     1       6.964   4.850  15.718  0.00  0.00    +0.000 C 
ATOM     30  C   UNL     1       7.385   4.562  17.137  0.00  0.00    +0.000 C 
ATOM     31  C   UNL     1       7.437   5.970  16.618  0.00  0.00    +0.000 C 
ENDBRANCH  28  29
ENDBRANCH  24  28
ENDBRANCH   2  20
TORSDOF 4
ENDMDL
MODEL 6
REMARK VINA RESULT:      -7.2      3.487      9.519
REMARK  Name = 
REMARK  4 active torsions:
REMARK  status: ('A' for Active; 'I' for Inactive)
REMARK    1  A    between atoms: C_2  and  C_3
REMARK    2  A    between atoms: N_7  and  C_8
REMARK    3  A    between atoms: C_8  and  C_9
REMARK    4  A    between atoms: C_17  and  C_18
REMARK                            x       y       z     vdW  Elec       q    Type
REMARK                         _______ _______ _______ _____ _____    ______ ____
ROOT
ATOM      1  O   UNL     1       1.674   7.631  21.699  0.00  0.00    +0.000 OA
ATOM      2  C   UNL     1       1.687   7.526  20.475  0.00  0.00    +0.000 C 
ATOM      3  N   UNL     1       2.235   6.423  19.796  0.00  0.00    +0.000 N 
ATOM      4  C   UNL     1       2.334   6.319  18.334  0.00  0.00    +0.000 C 
ATOM      5  C   UNL     1       2.322   4.893  17.805  0.00  0.00    +0.000 C 
ATOM      6  C   UNL     1       3.285   3.967  18.547  0.00  0.00    +0.000 C 
ATOM      7  C   UNL     1       3.023   4.069  20.054  0.00  0.00    +0.000 C 
ATOM      8  C   UNL     1       3.055   5.500  20.583  0.00  0.00    +0.000 C 
ENDROOT
BRANCH   6   9
ATOM      9  C   UNL     1       4.737   4.164  18.156  0.00  0.00    +0.000 A 
ATOM     10  C   UNL     1       5.841   4.216  18.988  0.00  0.00    +0.000 A 
ATOM     11  N   UNL     1       6.958   4.447  18.236  0.00  0.00    +0.000 N 
ATOM     12  C   UNL     1       6.627   4.516  16.906  0.00  0.00    +0.000 A 
ATOM     13  C   UNL     1       7.446   4.714  15.788  0.00  0.00    +0.000 A 
ATOM     14  C   UNL     1       6.834   4.735  14.546  0.00  0.00    +0.000 A 
ATOM     15  F   UNL     1       7.580   4.907  13.454  0.00  0.00    +0.000 F 
ATOM     16  C   UNL     1       5.457   4.570  14.408  0.00  0.00    +0.000 A 
ATOM     17  C   UNL     1       4.649   4.379  15.535  0.00  0.00    +0.000 A 
ATOM     18  C   UNL     1       5.243   4.345  16.816  0.00  0.00    +0.000 A 
ATOM     19  H   UNL     1       7.895   4.551  18.602  0.00  0.00    +0.000 HD
ENDBRANCH   6   9
BRANCH   2  20
ATOM     20  C   UNL     1       1.043   8.610  19.702  0.00  0.00    +0.000 A 
ATOM     21  C   UNL     1       1.711   9.237  18.654  0.00  0.00    +0.000 A 
ATOM     22  C   UNL     1       1.140  10.370  18.065  0.00  0.00    +0.000 A 
ATOM     23  C   UNL     1      -0.106  10.820  18.502  0.00  0.00    +0.000 A 
ATOM     24  N   UNL     1      -0.593  12.064  18.070  0.00  0.00    +0.000 N 
ATOM     25  N   UNL     1      -0.796  10.142  19.440  0.00  0.00    +0.000 NA
ATOM     26  C   UNL     1      -0.229   9.052  19.998  0.00  0.00    +0.000 A 
ATOM     27  H   UNL     1      -0.300  12.273  17.124  0.00  0.00    +0.000 HD
BRANCH  24  28
ATOM     28  C   UNL     1      -2.040  12.178  18.228  0.00  0.00    +0.000 C 
BRANCH  28  29
ATOM     29  C   UNL     1      -2.742  11.483  17.100  0.00  0.00    +0.000 C 
ATOM     30  C   UNL     1      -4.241  11.552  16.944  0.00  0.00    +0.000 C 
ATOM     31  C   UNL     1      -3.600  10.277  17.412  0.00  0.00    +0.000 C 
ENDBRANCH  28  29
ENDBRANCH  24  28
ENDBRANCH   2  20
TORSDOF 4
ENDMDL
MODEL 7
REMARK VINA RESULT:      -7.2      1.890      2.866
REMARK  Name = 
REMARK  4 active torsions:
REMARK  status: ('A' for Active; 'I' for Inactive)
REMARK    1  A    between atoms: C_2  and  C_3
REMARK    2  A    between atoms: N_7  and  C_8
REMARK    3  A    between atoms: C_8  and  C_9
REMARK    4  A    between atoms: C_17  and  C_18
REMARK                            x       y       z     vdW  Elec       q    Type
REMARK                         _______ _______ _______ _____ _____    ______ ____
ROOT
ATOM      1  O   UNL     1       1.205   8.371  22.365  0.00  0.00    +0.000 OA
ATOM      2  C   UNL     1       1.169   8.546  21.150  0.00  0.00    +0.000 C 
ATOM      3  N   UNL     1       0.643   9.704  20.547  0.00  0.00    +0.000 N 
ATOM      4  C   UNL     1       0.514   9.895  19.096  0.00  0.00    +0.000 C 
ATOM      5  C   UNL     1       0.564  11.348  18.648  0.00  0.00    +0.000 C 
ATOM      6  C   UNL     1      -0.351  12.260  19.465  0.00  0.00    +0.000 C 
ATOM      7  C   UNL     1      -0.059  12.064  20.956  0.00  0.00    +0.000 C 
ATOM      8  C   UNL     1      -0.128  10.607  21.405  0.00  0.00    +0.000 C 
ENDROOT
BRANCH   6   9
ATOM      9  C   UNL     1      -1.817  12.134  19.099  0.00  0.00    +0.000 A 
ATOM     10  C   UNL     1      -2.916  12.501  19.854  0.00  0.00    +0.000 A 
ATOM     11  N   UNL     1      -4.056  12.181  19.173  0.00  0.00    +0.000 N 
ATOM     12  C   UNL     1      -3.741  11.634  17.955  0.00  0.00    +0.000 A 
ATOM     13  C   UNL     1      -4.582  11.186  16.930  0.00  0.00    +0.000 A 
ATOM     14  C   UNL     1      -3.981  10.677  15.790  0.00  0.00    +0.000 A 
ATOM     15  F   UNL     1      -4.747  10.252  14.784  0.00  0.00    +0.000 F 
ATOM     16  C   UNL     1      -2.595  10.609  15.664  0.00  0.00    +0.000 A 
ATOM     17  C   UNL     1      -1.766  11.056  16.699  0.00  0.00    +0.000 A 
ATOM     18  C   UNL     1      -2.347  11.587  17.872  0.00  0.00    +0.000 A 
ATOM     19  H   UNL     1      -4.997  12.325  19.513  0.00  0.00    +0.000 HD
ENDBRANCH   6   9
BRANCH   2  20
ATOM     20  C   UNL     1       1.758   7.488  20.301  0.00  0.00    +0.000 A 
ATOM     21  C   UNL     1       1.667   6.147  20.662  0.00  0.00    +0.000 A 
ATOM     22  C   UNL     1       2.386   5.196  19.930  0.00  0.00    +0.000 A 
ATOM     23  C   UNL     1       3.136   5.599  18.825  0.00  0.00    +0.000 A 
ATOM     24  N   UNL     1       4.020   4.698  18.210  0.00  0.00    +0.000 N 
ATOM     25  N   UNL     1       3.128   6.884  18.416  0.00  0.00    +0.000 NA
ATOM     26  C   UNL     1       2.431   7.788  19.135  0.00  0.00    +0.000 A 
ATOM     27  H   UNL     1       3.671   3.749  18.247  0.00  0.00    +0.000 HD
BRANCH  24  28
ATOM     28  C   UNL     1       4.364   5.099  16.850  0.00  0.00    +0.000 C 
BRANCH  28  29
ATOM     29  C   UNL     1       5.392   4.170  16.278  0.00  0.00    +0.000 C 
ATOM     30  C   UNL     1       6.869   4.444  16.422  0.00  0.00    +0.000 C 
ATOM     31  C   UNL     1       6.205   4.630  15.088  0.00  0.00    +0.000 C 
ENDBRANCH  28  29
ENDBRANCH  24  28
ENDBRANCH   2  20
TORSDOF 4
ENDMDL
MODEL 8
REMARK VINA RESULT:      -7.2      1.566      2.558
REMARK  Name = 
REMARK  4 active torsions:
REMARK  status: ('A' for Active; 'I' for Inactive)
REMARK    1  A    between atoms: C_2  and  C_3
REMARK    2  A    between atoms: N_7  and  C_8
REMARK    3  A    between atoms: C_8  and  C_9
REMARK    4  A    between atoms: C_17  and  C_18
REMARK                            x       y       z     vdW  Elec       q    Type
REMARK                         _______ _______ _______ _____ _____    ______ ____
ROOT
ATOM      1  O   UNL     1       0.997   8.828  22.320  0.00  0.00    +0.000 OA
ATOM      2  C   UNL     1       0.888   8.904  21.098  0.00  0.00    +0.000 C 
ATOM      3  N   UNL     1       0.200   9.942  20.443  0.00  0.00    +0.000 N 
ATOM      4  C   UNL     1      -0.013  10.004  18.991  0.00  0.00    +0.000 C 
ATOM      5  C   UNL     1      -0.159  11.414  18.439  0.00  0.00    +0.000 C 
ATOM      6  C   UNL     1      -1.141  12.273  19.235  0.00  0.00    +0.000 C 
ATOM      7  C   UNL     1      -0.763  12.228  20.720  0.00  0.00    +0.000 C 
ATOM      8  C   UNL     1      -0.636  10.811  21.274  0.00  0.00    +0.000 C 
ENDROOT
BRANCH   6   9
ATOM      9  C   UNL     1      -2.595  11.948  18.956  0.00  0.00    +0.000 A 
ATOM     10  C   UNL     1      -3.120  11.269  17.871  0.00  0.00    +0.000 A 
ATOM     11  N   UNL     1      -4.481  11.226  17.984  0.00  0.00    +0.000 N 
ATOM     12  C   UNL     1      -4.878  11.836  19.147  0.00  0.00    +0.000 A 
ATOM     13  C   UNL     1      -6.163  12.004  19.678  0.00  0.00    +0.000 A 
ATOM     14  C   UNL     1      -6.269  12.665  20.890  0.00  0.00    +0.000 A 
ATOM     15  F   UNL     1      -7.474  12.834  21.437  0.00  0.00    +0.000 F 
ATOM     16  C   UNL     1      -5.146  13.149  21.559  0.00  0.00    +0.000 A 
ATOM     17  C   UNL     1      -3.868  12.979  21.014  0.00  0.00    +0.000 A 
ATOM     18  C   UNL     1      -3.724  12.303  19.783  0.00  0.00    +0.000 A 
ATOM     19  H   UNL     1      -5.108  10.805  17.312  0.00  0.00    +0.000 HD
ENDBRANCH   6   9
BRANCH   2  20
ATOM     20  C   UNL     1       1.563   7.860  20.298  0.00  0.00    +0.000 A 
ATOM     21  C   UNL     1       1.581   6.533  20.719  0.00  0.00    +0.000 A 
ATOM     22  C   UNL     1       2.377   5.612  20.030  0.00  0.00    +0.000 A 
ATOM     23  C   UNL     1       3.095   6.025  18.907  0.00  0.00    +0.000 A 
ATOM     24  N   UNL     1       4.051   5.173  18.332  0.00  0.00    +0.000 N 
ATOM     25  N   UNL     1       2.983   7.285  18.441  0.00  0.00    +0.000 NA
ATOM     26  C   UNL     1       2.212   8.161  19.119  0.00  0.00    +0.000 A 
ATOM     27  H   UNL     1       3.781   4.200  18.412  0.00  0.00    +0.000 HD
BRANCH  24  28
ATOM     28  C   UNL     1       4.364   5.539  16.955  0.00  0.00    +0.000 C 
BRANCH  28  29
ATOM     29  C   UNL     1       5.036   4.396  16.253  0.00  0.00    +0.000 C 
ATOM     30  C   UNL     1       6.537   4.326  16.120  0.00  0.00    +0.000 C 
ATOM     31  C   UNL     1       5.698   4.653  14.918  0.00  0.00    +0.000 C 
ENDBRANCH  28  29
ENDBRANCH  24  28
ENDBRANCH   2  20
TORSDOF 4
ENDMDL
MODEL 9
REMARK VINA RESULT:      -7.2      3.947      9.318
REMARK  Name = 
REMARK  4 active torsions:
REMARK  status: ('A' for Active; 'I' for Inactive)
REMARK    1  A    between atoms: C_2  and  C_3
REMARK    2  A    between atoms: N_7  and  C_8
REMARK    3  A    between atoms: C_8  and  C_9
REMARK    4  A    between atoms: C_17  and  C_18
REMARK                            x       y       z     vdW  Elec       q    Type
REMARK                         _______ _______ _______ _____ _____    ______ ____
ROOT
ATOM      1  O   UNL     1       0.813   8.362  22.122  0.00  0.00    +0.000 OA
ATOM      2  C   UNL     1       1.104   8.496  20.935  0.00  0.00    +0.000 C 
ATOM      3  N   UNL     1       1.610   7.453  20.137  0.00  0.00    +0.000 N 
ATOM      4  C   UNL     1       2.041   7.615  18.742  0.00  0.00    +0.000 C 
ATOM      5  C   UNL     1       1.921   6.355  17.899  0.00  0.00    +0.000 C 
ATOM      6  C   UNL     1       2.510   5.119  18.578  0.00  0.00    +0.000 C 
ATOM      7  C   UNL     1       1.912   4.981  19.982  0.00  0.00    +0.000 C 
ATOM      8  C   UNL     1       2.051   6.242  20.831  0.00  0.00    +0.000 C 
ENDROOT
BRANCH   6   9
ATOM      9  C   UNL     1       4.025   5.072  18.542  0.00  0.00    +0.000 A 
ATOM     10  C   UNL     1       4.903   5.140  19.609  0.00  0.00    +0.000 A 
ATOM     11  N   UNL     1       6.185   5.102  19.138  0.00  0.00    +0.000 N 
ATOM     12  C   UNL     1       6.184   4.975  17.772  0.00  0.00    +0.000 A 
ATOM     13  C   UNL     1       7.258   4.875  16.881  0.00  0.00    +0.000 A 
ATOM     14  C   UNL     1       6.959   4.749  15.534  0.00  0.00    +0.000 A 
ATOM     15  F   UNL     1       7.954   4.637  14.653  0.00  0.00    +0.000 F 
ATOM     16  C   UNL     1       5.642   4.724  15.078  0.00  0.00    +0.000 A 
ATOM     17  C   UNL     1       4.578   4.831  15.980  0.00  0.00    +0.000 A 
ATOM     18  C   UNL     1       4.848   4.953  17.361  0.00  0.00    +0.000 A 
ATOM     19  H   UNL     1       7.017   5.158  19.710  0.00  0.00    +0.000 HD
ENDBRANCH   6   9
BRANCH   2  20
ATOM     20  C   UNL     1       0.854   9.821  20.328  0.00  0.00    +0.000 A 
ATOM     21  C   UNL     1       0.049   9.952  19.200  0.00  0.00    +0.000 A 
ATOM     22  C   UNL     1      -0.019  11.192  18.555  0.00  0.00    +0.000 A 
ATOM     23  C   UNL     1       0.676  12.281  19.079  0.00  0.00    +0.000 A 
ATOM     24  N   UNL     1       0.785  13.468  18.336  0.00  0.00    +0.000 N 
ATOM     25  N   UNL     1       1.363  12.172  20.234  0.00  0.00    +0.000 NA
ATOM     26  C   UNL     1       1.419  10.969  20.842  0.00  0.00    +0.000 A 
ATOM     27  H   UNL     1      -0.042  13.636  17.777  0.00  0.00    +0.000 HD
BRANCH  24  28
ATOM     28  C   UNL     1       1.119  14.617  19.171  0.00  0.00    +0.000 C 
BRANCH  28  29
ATOM     29  C   UNL     1       2.354  15.293  18.656  0.00  0.00    +0.000 C 
ATOM     30  C   UNL     1       3.536  14.501  18.153  0.00  0.00    +0.000 C 
ATOM     31  C   UNL     1       3.624  15.210  19.474  0.00  0.00    +0.000 C 
ENDBRANCH  28  29
ENDBRANCH  24  28
ENDBRANCH   2  20
TORSDOF 4
ENDMDL
