MODEL 1
REMARK VINA RESULT:      -8.5      0.000      0.000
REMARK  Name = 
REMARK  5 active torsions:
REMARK  status: ('A' for Active; 'I' for Inactive)
REMARK    1  A    between atoms: N_3  and  C_4
REMARK    2  A    between atoms: C_7  and  N_8
REMARK    3  A    between atoms: N_15  and  C_16
REMARK    4  A    between atoms: N_19  and  C_20
REMARK    5  A    between atoms: C_20  and  C_21
REMARK                            x       y       z     vdW  Elec       q    Type
REMARK                         _______ _______ _______ _____ _____    ______ ____
ROOT
ATOM      1  O   UNL     1       1.707   5.323  20.574  0.00  0.00    +0.000 OA
ATOM      2  C   UNL     1       1.731   6.549  20.489  0.00  0.00    +0.000 C 
ATOM      3  N   UNL     1       2.414   7.281  19.552  0.00  0.00    +0.000 N 
ATOM      4  N   UNL     1       1.092   7.247  21.471  0.00  0.00    +0.000 N 
ATOM      5  H   UNL     1       2.628   8.230  19.811  0.00  0.00    +0.000 HD
ATOM      6  H   UNL     1       0.820   6.655  22.246  0.00  0.00    +0.000 HD
ENDROOT
BRANCH   3   7
ATOM      7  C   UNL     1       3.169   6.757  18.484  0.00  0.00    +0.000 A 
ATOM      8  C   UNL     1       3.403   5.396  18.323  0.00  0.00    +0.000 A 
ATOM      9  C   UNL     1       4.255   4.930  17.324  0.00  0.00    +0.000 A 
ATOM     10  C   UNL     1       4.873   5.830  16.451  0.00  0.00    +0.000 A 
ATOM     11  C   UNL     1       4.587   7.197  16.556  0.00  0.00    +0.000 A 
ATOM     12  C   UNL     1       3.731   7.656  17.567  0.00  0.00    +0.000 A 
BRANCH  10  13
ATOM     13  N   UNL     1       5.811   5.358  15.501  0.00  0.00    +0.000 N 
ATOM     14  C   UNL     1       5.642   4.373  14.554  0.00  0.00    +0.000 A 
ATOM     15  C   UNL     1       6.876   4.234  13.971  0.00  0.00    +0.000 A 
ATOM     16  N   UNL     1       7.741   5.126  14.524  0.00  0.00    +0.000 NA
ATOM     17  N   UNL     1       7.084   5.821  15.444  0.00  0.00    +0.000 NA
ENDBRANCH  10  13
ENDBRANCH   3   7
BRANCH   4  18
ATOM     18  C   UNL     1       0.857   8.594  21.600  0.00  0.00    +0.000 A 
ATOM     19  C   UNL     1       0.497   9.414  22.690  0.00  0.00    +0.000 A 
ATOM     20  N   UNL     1       0.259  10.677  22.318  0.00  0.00    +0.000 NA
ATOM     21  N   UNL     1       0.520  10.665  20.990  0.00  0.00    +0.000 N 
ATOM     22  C   UNL     1       0.962   9.455  20.538  0.00  0.00    +0.000 A 
BRANCH  21  23
ATOM     23  C   UNL     1       0.293  11.850  20.182  0.00  0.00    +0.000 C 
BRANCH  23  24
ATOM     24  C   UNL     1      -1.154  12.012  19.883  0.00  0.00    +0.000 A 
ATOM     25  N   UNL     1      -2.034  12.720  20.564  0.00  0.00    +0.000 NA
ATOM     26  N   UNL     1      -3.266  12.547  19.975  0.00  0.00    +0.000 NA
ATOM     27  C   UNL     1      -3.116  11.740  18.945  0.00  0.00    +0.000 A 
ATOM     28  N   UNL     1      -1.802  11.413  18.836  0.00  0.00    +0.000 N 
ATOM     29  C   UNL     1      -1.220  10.607  17.803  0.00  0.00    +0.000 C 
ATOM     30  C   UNL     1      -2.202   9.910  16.872  0.00  0.00    +0.000 C 
ATOM     31  C   UNL     1      -3.678  10.303  16.931  0.00  0.00    +0.000 C 
ATOM     32  C   UNL     1      -4.168  11.224  18.047  0.00  0.00    +0.000 C 
ENDBRANCH  23  24
ENDBRANCH  21  23
ENDBRANCH   4  18
TORSDOF 5
ENDMDL
MODEL 2
REMARK VINA RESULT:      -8.4      7.048      9.972
REMARK  Name = 
REMARK  5 active torsions:
REMARK  status: ('A' for Active; 'I' for Inactive)
REMARK    1  A    between atoms: N_3  and  C_4
REMARK    2  A    between atoms: C_7  and  N_8
REMARK    3  A    between atoms: N_15  and  C_16
REMARK    4  A    between atoms: N_19  and  C_20
REMARK    5  A    between atoms: C_20  and  C_21
REMARK                            x       y       z     vdW  Elec       q    Type
REMARK                         _______ _______ _______ _____ _____    ______ ____
ROOT
ATOM      1  O   UNL     1      10.040  10.510  20.272  0.00  0.00    +0.000 OA
ATOM      2  C   UNL     1       9.406  10.088  19.307  0.00  0.00    +0.000 C 
ATOM      3  N   UNL     1       9.102  10.793  18.170  0.00  0.00    +0.000 N 
ATOM      4  N   UNL     1       8.881   8.835  19.415  0.00  0.00    +0.000 N 
ATOM      5  H   UNL     1       8.308  10.458  17.649  0.00  0.00    +0.000 HD
ATOM      6  H   UNL     1       8.941   8.476  20.361  0.00  0.00    +0.000 HD
ENDROOT
BRANCH   3   7
ATOM      7  C   UNL     1       9.509  12.111  17.880  0.00  0.00    +0.000 A 
ATOM      8  C   UNL     1      10.710  12.406  17.245  0.00  0.00    +0.000 A 
ATOM      9  C   UNL     1      11.130  13.725  17.089  0.00  0.00    +0.000 A 
ATOM     10  C   UNL     1      10.333  14.777  17.552  0.00  0.00    +0.000 A 
ATOM     11  C   UNL     1       9.087  14.494  18.126  0.00  0.00    +0.000 A 
ATOM     12  C   UNL     1       8.676  13.163  18.283  0.00  0.00    +0.000 A 
BRANCH  10  13
ATOM     13  N   UNL     1      10.809  16.108  17.474  0.00  0.00    +0.000 N 
ATOM     14  C   UNL     1      12.084  16.572  17.708  0.00  0.00    +0.000 A 
ATOM     15  C   UNL     1      11.985  17.935  17.602  0.00  0.00    +0.000 A 
ATOM     16  N   UNL     1      10.705  18.273  17.282  0.00  0.00    +0.000 NA
ATOM     17  N   UNL     1       9.996  17.155  17.189  0.00  0.00    +0.000 NA
ENDBRANCH  10  13
ENDBRANCH   3   7
BRANCH   4  18
ATOM     18  C   UNL     1       8.225   8.059  18.492  0.00  0.00    +0.000 A 
ATOM     19  C   UNL     1       7.809   8.279  17.162  0.00  0.00    +0.000 A 
ATOM     20  N   UNL     1       7.089   7.260  16.680  0.00  0.00    +0.000 NA
ATOM     21  N   UNL     1       7.093   6.367  17.696  0.00  0.00    +0.000 N 
ATOM     22  C   UNL     1       7.834   6.775  18.769  0.00  0.00    +0.000 A 
BRANCH  21  23
ATOM     23  C   UNL     1       6.332   5.134  17.601  0.00  0.00    +0.000 C 
BRANCH  23  24
ATOM     24  C   UNL     1       4.914   5.363  17.988  0.00  0.00    +0.000 A 
ATOM     25  N   UNL     1       4.151   6.384  17.648  0.00  0.00    +0.000 NA
ATOM     26  N   UNL     1       2.932   6.227  18.268  0.00  0.00    +0.000 NA
ATOM     27  C   UNL     1       2.972   5.115  18.972  0.00  0.00    +0.000 A 
ATOM     28  N   UNL     1       4.185   4.529  18.793  0.00  0.00    +0.000 N 
ATOM     29  C   UNL     1       4.598   3.268  19.336  0.00  0.00    +0.000 C 
ATOM     30  C   UNL     1       3.655   2.643  20.354  0.00  0.00    +0.000 C 
ATOM     31  C   UNL     1       2.262   3.245  20.533  0.00  0.00    +0.000 C 
ATOM     32  C   UNL     1       1.918   4.566  19.848  0.00  0.00    +0.000 C 
ENDBRANCH  23  24
ENDBRANCH  21  23
ENDBRANCH   4  18
TORSDOF 5
ENDMDL
MODEL 3
REMARK VINA RESULT:      -8.3      3.734      5.596
REMARK  Name = 
REMARK  5 active torsions:
REMARK  status: ('A' for Active; 'I' for Inactive)
REMARK    1  A    between atoms: N_3  and  C_4
REMARK    2  A    between atoms: C_7  and  N_8
REMARK    3  A    between atoms: N_15  and  C_16
REMARK    4  A    between atoms: N_19  and  C_20
REMARK    5  A    between atoms: C_20  and  C_21
REMARK                            x       y       z     vdW  Elec       q    Type
REMARK                         _______ _______ _______ _____ _____    ______ ____
ROOT
ATOM      1  O   UNL     1      -1.439  10.303  17.616  0.00  0.00    +0.000 OA
ATOM      2  C   UNL     1      -1.189  10.901  18.661  0.00  0.00    +0.000 C 
ATOM      3  N   UNL     1      -0.191  10.590  19.550  0.00  0.00    +0.000 N 
ATOM      4  N   UNL     1      -2.036  11.909  19.013  0.00  0.00    +0.000 N 
ATOM      5  H   UNL     1      -0.327  10.921  20.491  0.00  0.00    +0.000 HD
ATOM      6  H   UNL     1      -2.873  11.922  18.442  0.00  0.00    +0.000 HD
ENDROOT
BRANCH   3   7
ATOM      7  C   UNL     1       0.761   9.562  19.397  0.00  0.00    +0.000 A 
ATOM      8  C   UNL     1       1.409   9.308  18.194  0.00  0.00    +0.000 A 
ATOM      9  C   UNL     1       2.251   8.206  18.055  0.00  0.00    +0.000 A 
ATOM     10  C   UNL     1       2.472   7.349  19.137  0.00  0.00    +0.000 A 
ATOM     11  C   UNL     1       1.883   7.636  20.374  0.00  0.00    +0.000 A 
ATOM     12  C   UNL     1       1.034   8.745  20.503  0.00  0.00    +0.000 A 
BRANCH  10  13
ATOM     13  N   UNL     1       3.252   6.180  18.960  0.00  0.00    +0.000 N 
ATOM     14  C   UNL     1       4.229   5.941  18.022  0.00  0.00    +0.000 A 
ATOM     15  C   UNL     1       4.591   4.633  18.217  0.00  0.00    +0.000 A 
ATOM     16  N   UNL     1       3.880   4.118  19.258  0.00  0.00    +0.000 NA
ATOM     17  N   UNL     1       3.077   5.069  19.718  0.00  0.00    +0.000 NA
ENDBRANCH  10  13
ENDBRANCH   3   7
BRANCH   4  18
ATOM     18  C   UNL     1      -1.969  12.812  20.045  0.00  0.00    +0.000 A 
ATOM     19  C   UNL     1      -1.397  14.095  20.174  0.00  0.00    +0.000 A 
ATOM     20  N   UNL     1      -1.479  14.563  21.424  0.00  0.00    +0.000 NA
ATOM     21  N   UNL     1      -2.155  13.591  22.078  0.00  0.00    +0.000 N 
ATOM     22  C   UNL     1      -2.539  12.562  21.267  0.00  0.00    +0.000 A 
BRANCH  21  23
ATOM     23  C   UNL     1      -2.379  13.681  23.511  0.00  0.00    +0.000 C 
BRANCH  23  24
ATOM     24  C   UNL     1      -3.740  13.195  23.859  0.00  0.00    +0.000 A 
ATOM     25  N   UNL     1      -4.069  11.999  24.308  0.00  0.00    +0.000 NA
ATOM     26  N   UNL     1      -5.437  11.958  24.445  0.00  0.00    +0.000 NA
ATOM     27  C   UNL     1      -5.920  13.128  24.080  0.00  0.00    +0.000 A 
ATOM     28  N   UNL     1      -4.883  13.939  23.741  0.00  0.00    +0.000 N 
ATOM     29  C   UNL     1      -4.987  15.316  23.353  0.00  0.00    +0.000 C 
ATOM     30  C   UNL     1      -6.398  15.837  23.121  0.00  0.00    +0.000 C 
ATOM     31  C   UNL     1      -7.582  14.970  23.549  0.00  0.00    +0.000 C 
ATOM     32  C   UNL     1      -7.337  13.533  24.006  0.00  0.00    +0.000 C 
ENDBRANCH  23  24
ENDBRANCH  21  23
ENDBRANCH   4  18
TORSDOF 5
ENDMDL
MODEL 4
REMARK VINA RESULT:      -8.3      2.725     10.036
REMARK  Name = 
REMARK  5 active torsions:
REMARK  status: ('A' for Active; 'I' for Inactive)
REMARK    1  A    between atoms: N_3  and  C_4
REMARK    2  A    between atoms: C_7  and  N_8
REMARK    3  A    between atoms: N_15  and  C_16
REMARK    4  A    between atoms: N_19  and  C_20
REMARK    5  A    between atoms: C_20  and  C_21
REMARK                            x       y       z     vdW  Elec       q    Type
REMARK                         _______ _______ _______ _____ _____    ______ ____
ROOT
ATOM      1  O   UNL     1       0.586   9.828  18.176  0.00  0.00    +0.000 OA
ATOM      2  C   UNL     1       1.184   9.018  18.881  0.00  0.00    +0.000 C 
ATOM      3  N   UNL     1       1.238   9.026  20.252  0.00  0.00    +0.000 N 
ATOM      4  N   UNL     1       1.936   8.079  18.240  0.00  0.00    +0.000 N 
ATOM      5  H   UNL     1       2.023   8.544  20.660  0.00  0.00    +0.000 HD
ATOM      6  H   UNL     1       2.038   8.281  17.252  0.00  0.00    +0.000 HD
ENDROOT
BRANCH   3   7
ATOM      7  C   UNL     1       0.573   9.933  21.100  0.00  0.00    +0.000 A 
ATOM      8  C   UNL     1      -0.234   9.525  22.157  0.00  0.00    +0.000 A 
ATOM      9  C   UNL     1      -0.970  10.451  22.893  0.00  0.00    +0.000 A 
ATOM     10  C   UNL     1      -0.889  11.814  22.591  0.00  0.00    +0.000 A 
ATOM     11  C   UNL     1      -0.024  12.244  21.577  0.00  0.00    +0.000 A 
ATOM     12  C   UNL     1       0.710  11.304  20.839  0.00  0.00    +0.000 A 
BRANCH  10  13
ATOM     13  N   UNL     1      -1.712  12.737  23.281  0.00  0.00    +0.000 N 
ATOM     14  C   UNL     1      -3.045  12.618  23.600  0.00  0.00    +0.000 A 
ATOM     15  C   UNL     1      -3.379  13.821  24.166  0.00  0.00    +0.000 A 
ATOM     16  N   UNL     1      -2.277  14.619  24.216  0.00  0.00    +0.000 NA
ATOM     17  N   UNL     1      -1.259  13.947  23.691  0.00  0.00    +0.000 NA
ENDBRANCH  10  13
ENDBRANCH   3   7
BRANCH   4  18
ATOM     18  C   UNL     1       2.623   6.997  18.732  0.00  0.00    +0.000 A 
ATOM     19  C   UNL     1       2.304   5.990  19.667  0.00  0.00    +0.000 A 
ATOM     20  N   UNL     1       3.345   5.191  19.926  0.00  0.00    +0.000 NA
ATOM     21  N   UNL     1       4.314   5.665  19.110  0.00  0.00    +0.000 N 
ATOM     22  C   UNL     1       3.895   6.695  18.318  0.00  0.00    +0.000 A 
BRANCH  21  23
ATOM     23  C   UNL     1       5.655   5.110  19.155  0.00  0.00    +0.000 C 
BRANCH  23  24
ATOM     24  C   UNL     1       6.406   5.456  17.919  0.00  0.00    +0.000 A 
ATOM     25  N   UNL     1       7.323   6.394  17.780  0.00  0.00    +0.000 NA
ATOM     26  N   UNL     1       7.717   6.412  16.462  0.00  0.00    +0.000 NA
ATOM     27  C   UNL     1       7.036   5.485  15.820  0.00  0.00    +0.000 A 
ATOM     28  N   UNL     1       6.232   4.843  16.707  0.00  0.00    +0.000 N 
ATOM     29  C   UNL     1       5.382   3.725  16.415  0.00  0.00    +0.000 C 
ATOM     30  C   UNL     1       5.238   3.368  14.943  0.00  0.00    +0.000 C 
ATOM     31  C   UNL     1       6.171   4.031  13.929  0.00  0.00    +0.000 C 
ATOM     32  C   UNL     1       7.080   5.174  14.378  0.00  0.00    +0.000 C 
ENDBRANCH  23  24
ENDBRANCH  21  23
ENDBRANCH   4  18
TORSDOF 5
ENDMDL
MODEL 5
REMARK VINA RESULT:      -8.2      3.992      5.401
REMARK  Name = 
REMARK  5 active torsions:
REMARK  status: ('A' for Active; 'I' for Inactive)
REMARK    1  A    between atoms: N_3  and  C_4
REMARK    2  A    between atoms: C_7  and  N_8
REMARK    3  A    between atoms: N_15  and  C_16
REMARK    4  A    between atoms: N_19  and  C_20
REMARK    5  A    between atoms: C_20  and  C_21
REMARK                            x       y       z     vdW  Elec       q    Type
REMARK                         _______ _______ _______ _____ _____    ______ ____
ROOT
ATOM      1  O   UNL     1      -1.396  10.073  18.661  0.00  0.00    +0.000 OA
ATOM      2  C   UNL     1      -0.689  10.730  19.423  0.00  0.00    +0.000 C 
ATOM      3  N   UNL     1       0.592  10.423  19.802  0.00  0.00    +0.000 N 
ATOM      4  N   UNL     1      -1.264  11.815  20.014  0.00  0.00    +0.000 N 
ATOM      5  H   UNL     1       0.900  10.832  20.669  0.00  0.00    +0.000 HD
ATOM      6  H   UNL     1      -2.267  11.840  19.875  0.00  0.00    +0.000 HD
ENDROOT
BRANCH   3   7
ATOM      7  C   UNL     1       1.349   9.326  19.344  0.00  0.00    +0.000 A 
ATOM      8  C   UNL     1       1.893   9.266  18.066  0.00  0.00    +0.000 A 
ATOM      9  C   UNL     1       2.529   8.113  17.613  0.00  0.00    +0.000 A 
ATOM     10  C   UNL     1       2.649   7.000  18.451  0.00  0.00    +0.000 A 
ATOM     11  C   UNL     1       2.171   7.074  19.765  0.00  0.00    +0.000 A 
ATOM     12  C   UNL     1       1.528   8.238  20.211  0.00  0.00    +0.000 A 
BRANCH  10  13
ATOM     13  N   UNL     1       3.212   5.801  17.952  0.00  0.00    +0.000 N 
ATOM     14  C   UNL     1       4.486   5.590  17.475  0.00  0.00    +0.000 A 
ATOM     15  C   UNL     1       4.481   4.296  17.023  0.00  0.00    +0.000 A 
ATOM     16  N   UNL     1       3.259   3.741  17.252  0.00  0.00    +0.000 NA
ATOM     17  N   UNL     1       2.495   4.656  17.834  0.00  0.00    +0.000 NA
ENDBRANCH  10  13
ENDBRANCH   3   7
BRANCH   4  18
ATOM     18  C   UNL     1      -0.720  12.788  20.816  0.00  0.00    +0.000 A 
ATOM     19  C   UNL     1      -0.489  12.881  22.205  0.00  0.00    +0.000 A 
ATOM     20  N   UNL     1      -0.032  14.086  22.563  0.00  0.00    +0.000 NA
ATOM     21  N   UNL     1       0.075  14.742  21.385  0.00  0.00    +0.000 N 
ATOM     22  C   UNL     1      -0.248  13.970  20.307  0.00  0.00    +0.000 A 
BRANCH  21  23
ATOM     23  C   UNL     1       0.465  16.141  21.350  0.00  0.00    +0.000 C 
BRANCH  23  24
ATOM     24  C   UNL     1       1.213  16.445  20.102  0.00  0.00    +0.000 A 
ATOM     25  N   UNL     1       2.476  16.166  19.842  0.00  0.00    +0.000 NA
ATOM     26  N   UNL     1       2.776  16.673  18.598  0.00  0.00    +0.000 NA
ATOM     27  C   UNL     1       1.692  17.250  18.121  0.00  0.00    +0.000 A 
ATOM     28  N   UNL     1       0.685  17.096  19.020  0.00  0.00    +0.000 N 
ATOM     29  C   UNL     1      -0.672  17.525  18.842  0.00  0.00    +0.000 C 
ATOM     30  C   UNL     1      -0.940  18.394  17.622  0.00  0.00    +0.000 C 
ATOM     31  C   UNL     1       0.155  18.536  16.565  0.00  0.00    +0.000 C 
ATOM     32  C   UNL     1       1.549  17.979  16.846  0.00  0.00    +0.000 C 
ENDBRANCH  23  24
ENDBRANCH  21  23
ENDBRANCH   4  18
TORSDOF 5
ENDMDL
MODEL 6
REMARK VINA RESULT:      -8.2      2.939     10.401
REMARK  Name = 
REMARK  5 active torsions:
REMARK  status: ('A' for Active; 'I' for Inactive)
REMARK    1  A    between atoms: N_3  and  C_4
REMARK    2  A    between atoms: C_7  and  N_8
REMARK    3  A    between atoms: N_15  and  C_16
REMARK    4  A    between atoms: N_19  and  C_20
REMARK    5  A    between atoms: C_20  and  C_21
REMARK                            x       y       z     vdW  Elec       q    Type
REMARK                         _______ _______ _______ _____ _____    ______ ____
ROOT
ATOM      1  O   UNL     1       0.848   9.635  23.491  0.00  0.00    +0.000 OA
ATOM      2  C   UNL     1       0.776   9.453  22.277  0.00  0.00    +0.000 C 
ATOM      3  N   UNL     1      -0.092  10.077  21.417  0.00  0.00    +0.000 N 
ATOM      4  N   UNL     1       1.570   8.477  21.752  0.00  0.00    +0.000 N 
ATOM      5  H   UNL     1      -0.278   9.589  20.556  0.00  0.00    +0.000 HD
ATOM      6  H   UNL     1       1.999   7.906  22.470  0.00  0.00    +0.000 HD
ENDROOT
BRANCH   3   7
ATOM      7  C   UNL     1      -1.021  11.079  21.763  0.00  0.00    +0.000 A 
ATOM      8  C   UNL     1      -1.562  11.197  23.038  0.00  0.00    +0.000 A 
ATOM      9  C   UNL     1      -2.567  12.124  23.304  0.00  0.00    +0.000 A 
ATOM     10  C   UNL     1      -3.032  12.968  22.290  0.00  0.00    +0.000 A 
ATOM     11  C   UNL     1      -2.443  12.908  21.021  0.00  0.00    +0.000 A 
ATOM     12  C   UNL     1      -1.435  11.969  20.762  0.00  0.00    +0.000 A 
BRANCH  10  13
ATOM     13  N   UNL     1      -4.118  13.840  22.544  0.00  0.00    +0.000 N 
ATOM     14  C   UNL     1      -4.161  14.924  23.391  0.00  0.00    +0.000 A 
ATOM     15  C   UNL     1      -5.463  15.352  23.347  0.00  0.00    +0.000 A 
ATOM     16  N   UNL     1      -6.166  14.573  22.479  0.00  0.00    +0.000 NA
ATOM     17  N   UNL     1      -5.339  13.664  21.980  0.00  0.00    +0.000 NA
ENDBRANCH  10  13
ENDBRANCH   3   7
BRANCH   4  18
ATOM     18  C   UNL     1       1.790   8.111  20.447  0.00  0.00    +0.000 A 
ATOM     19  C   UNL     1       1.576   8.756  19.211  0.00  0.00    +0.000 A 
ATOM     20  N   UNL     1       1.838   7.957  18.170  0.00  0.00    +0.000 NA
ATOM     21  N   UNL     1       2.269   6.816  18.754  0.00  0.00    +0.000 N 
ATOM     22  C   UNL     1       2.334   6.897  20.115  0.00  0.00    +0.000 A 
BRANCH  21  23
ATOM     23  C   UNL     1       2.579   5.645  17.951  0.00  0.00    +0.000 C 
BRANCH  23  24
ATOM     24  C   UNL     1       3.905   5.088  18.327  0.00  0.00    +0.000 A 
ATOM     25  N   UNL     1       4.142   3.968  18.981  0.00  0.00    +0.000 NA
ATOM     26  N   UNL     1       5.502   3.863  19.166  0.00  0.00    +0.000 NA
ATOM     27  C   UNL     1       6.070   4.918  18.621  0.00  0.00    +0.000 A 
ATOM     28  N   UNL     1       5.105   5.689  18.056  0.00  0.00    +0.000 N 
ATOM     29  C   UNL     1       5.323   6.892  17.306  0.00  0.00    +0.000 C 
ATOM     30  C   UNL     1       6.744   7.436  17.321  0.00  0.00    +0.000 C 
ATOM     31  C   UNL     1       7.860   6.564  17.897  0.00  0.00    +0.000 C 
ATOM     32  C   UNL     1       7.504   5.268  18.622  0.00  0.00    +0.000 C 
ENDBRANCH  23  24
ENDBRANCH  21  23
ENDBRANCH   4  18
TORSDOF 5
ENDMDL
MODEL 7
REMARK VINA RESULT:      -8.2      3.749      5.158
REMARK  Name = 
REMARK  5 active torsions:
REMARK  status: ('A' for Active; 'I' for Inactive)
REMARK    1  A    between atoms: N_3  and  C_4
REMARK    2  A    between atoms: C_7  and  N_8
REMARK    3  A    between atoms: N_15  and  C_16
REMARK    4  A    between atoms: N_19  and  C_20
REMARK    5  A    between atoms: C_20  and  C_21
REMARK                            x       y       z     vdW  Elec       q    Type
REMARK                         _______ _______ _______ _____ _____    ______ ____
ROOT
ATOM      1  O   UNL     1      -1.195   9.981  18.068  0.00  0.00    +0.000 OA
ATOM      2  C   UNL     1      -0.770  10.466  19.114  0.00  0.00    +0.000 C 
ATOM      3  N   UNL     1       0.363  10.078  19.784  0.00  0.00    +0.000 N 
ATOM      4  N   UNL     1      -1.542  11.417  19.711  0.00  0.00    +0.000 N 
ATOM      5  H   UNL     1       0.389  10.303  20.764  0.00  0.00    +0.000 HD
ATOM      6  H   UNL     1      -2.464  11.479  19.293  0.00  0.00    +0.000 HD
ENDROOT
BRANCH   3   7
ATOM      7  C   UNL     1       1.273   9.087  19.362  0.00  0.00    +0.000 A 
ATOM      8  C   UNL     1       1.874   9.100  18.109  0.00  0.00    +0.000 A 
ATOM      9  C   UNL     1       2.671   8.038  17.688  0.00  0.00    +0.000 A 
ATOM     10  C   UNL     1       2.896   6.948  18.535  0.00  0.00    +0.000 A 
ATOM     11  C   UNL     1       2.357   6.959  19.827  0.00  0.00    +0.000 A 
ATOM     12  C   UNL     1       1.552   8.030  20.240  0.00  0.00    +0.000 A 
BRANCH  10  13
ATOM     13  N   UNL     1       3.628   5.831  18.065  0.00  0.00    +0.000 N 
ATOM     14  C   UNL     1       3.488   4.509  18.420  0.00  0.00    +0.000 A 
ATOM     15  C   UNL     1       4.500   3.860  17.762  0.00  0.00    +0.000 A 
ATOM     16  N   UNL     1       5.200   4.755  17.012  0.00  0.00    +0.000 NA
ATOM     17  N   UNL     1       4.654   5.953  17.187  0.00  0.00    +0.000 NA
ENDBRANCH  10  13
ENDBRANCH   3   7
BRANCH   4  18
ATOM     18  C   UNL     1      -1.300  12.205  20.809  0.00  0.00    +0.000 A 
ATOM     19  C   UNL     1      -0.134  12.517  21.539  0.00  0.00    +0.000 A 
ATOM     20  N   UNL     1      -0.397  13.252  22.626  0.00  0.00    +0.000 NA
ATOM     21  N   UNL     1      -1.733  13.449  22.553  0.00  0.00    +0.000 N 
ATOM     22  C   UNL     1      -2.298  12.908  21.433  0.00  0.00    +0.000 A 
BRANCH  21  23
ATOM     23  C   UNL     1      -2.437  14.145  23.616  0.00  0.00    +0.000 C 
BRANCH  23  24
ATOM     24  C   UNL     1      -3.715  13.455  23.936  0.00  0.00    +0.000 A 
ATOM     25  N   UNL     1      -3.872  12.197  24.298  0.00  0.00    +0.000 NA
ATOM     26  N   UNL     1      -5.220  11.961  24.440  0.00  0.00    +0.000 NA
ATOM     27  C   UNL     1      -5.861  13.078  24.166  0.00  0.00    +0.000 A 
ATOM     28  N   UNL     1      -4.950  14.044  23.880  0.00  0.00    +0.000 N 
ATOM     29  C   UNL     1      -5.243  15.418  23.595  0.00  0.00    +0.000 C 
ATOM     30  C   UNL     1      -6.715  15.758  23.411  0.00  0.00    +0.000 C 
ATOM     31  C   UNL     1      -7.765  14.711  23.781  0.00  0.00    +0.000 C 
ATOM     32  C   UNL     1      -7.322  13.291  24.130  0.00  0.00    +0.000 C 
ENDBRANCH  23  24
ENDBRANCH  21  23
ENDBRANCH   4  18
TORSDOF 5
ENDMDL
MODEL 8
REMARK VINA RESULT:      -8.2      3.506      5.106
REMARK  Name = 
REMARK  5 active torsions:
REMARK  status: ('A' for Active; 'I' for Inactive)
REMARK    1  A    between atoms: N_3  and  C_4
REMARK    2  A    between atoms: C_7  and  N_8
REMARK    3  A    between atoms: N_15  and  C_16
REMARK    4  A    between atoms: N_19  and  C_20
REMARK    5  A    between atoms: C_20  and  C_21
REMARK                            x       y       z     vdW  Elec       q    Type
REMARK                         _______ _______ _______ _____ _____    ______ ____
ROOT
ATOM      1  O   UNL     1       2.308  11.268  17.965  0.00  0.00    +0.000 OA
ATOM      2  C   UNL     1       1.277  11.182  18.629  0.00  0.00    +0.000 C 
ATOM      3  N   UNL     1       0.796  10.047  19.232  0.00  0.00    +0.000 N 
ATOM      4  N   UNL     1       0.492  12.295  18.695  0.00  0.00    +0.000 N 
ATOM      5  H   UNL     1      -0.192  10.040  19.423  0.00  0.00    +0.000 HD
ATOM      6  H   UNL     1       0.785  13.008  18.038  0.00  0.00    +0.000 HD
ENDROOT
BRANCH   3   7
ATOM      7  C   UNL     1       1.428   8.788  19.245  0.00  0.00    +0.000 A 
ATOM      8  C   UNL     1       1.567   8.026  20.400  0.00  0.00    +0.000 A 
ATOM      9  C   UNL     1       2.305   6.845  20.393  0.00  0.00    +0.000 A 
ATOM     10  C   UNL     1       2.901   6.395  19.211  0.00  0.00    +0.000 A 
ATOM     11  C   UNL     1       2.707   7.115  18.025  0.00  0.00    +0.000 A 
ATOM     12  C   UNL     1       1.966   8.306  18.044  0.00  0.00    +0.000 A 
BRANCH  10  13
ATOM     13  N   UNL     1       3.727   5.246  19.233  0.00  0.00    +0.000 N 
ATOM     14  C   UNL     1       3.348   3.924  19.273  0.00  0.00    +0.000 A 
ATOM     15  C   UNL     1       4.522   3.225  19.386  0.00  0.00    +0.000 A 
ATOM     16  N   UNL     1       5.569   4.095  19.378  0.00  0.00    +0.000 NA
ATOM     17  N   UNL     1       5.080   5.324  19.267  0.00  0.00    +0.000 NA
ENDBRANCH  10  13
ENDBRANCH   3   7
BRANCH   4  18
ATOM     18  C   UNL     1      -0.644  12.544  19.424  0.00  0.00    +0.000 A 
ATOM     19  C   UNL     1      -2.003  12.211  19.243  0.00  0.00    +0.000 A 
ATOM     20  N   UNL     1      -2.790  12.775  20.166  0.00  0.00    +0.000 NA
ATOM     21  N   UNL     1      -1.916  13.426  20.966  0.00  0.00    +0.000 N 
ATOM     22  C   UNL     1      -0.613  13.243  20.603  0.00  0.00    +0.000 A 
BRANCH  21  23
ATOM     23  C   UNL     1      -2.391  14.251  22.063  0.00  0.00    +0.000 C 
BRANCH  23  24
ATOM     24  C   UNL     1      -3.358  13.499  22.905  0.00  0.00    +0.000 A 
ATOM     25  N   UNL     1      -3.122  12.409  23.610  0.00  0.00    +0.000 NA
ATOM     26  N   UNL     1      -4.305  12.013  24.190  0.00  0.00    +0.000 NA
ATOM     27  C   UNL     1      -5.241  12.867  23.831  0.00  0.00    +0.000 A 
ATOM     28  N   UNL     1      -4.678  13.830  23.056  0.00  0.00    +0.000 N 
ATOM     29  C   UNL     1      -5.350  14.979  22.521  0.00  0.00    +0.000 C 
ATOM     30  C   UNL     1      -6.863  14.999  22.686  0.00  0.00    +0.000 C 
ATOM     31  C   UNL     1      -7.517  13.964  23.601  0.00  0.00    +0.000 C 
ATOM     32  C   UNL     1      -6.679  12.818  24.163  0.00  0.00    +0.000 C 
ENDBRANCH  23  24
ENDBRANCH  21  23
ENDBRANCH   4  18
TORSDOF 5
ENDMDL
MODEL 9
REMARK VINA RESULT:      -8.2      4.206      5.415
REMARK  Name = 
REMARK  5 active torsions:
REMARK  status: ('A' for Active; 'I' for Inactive)
REMARK    1  A    between atoms: N_3  and  C_4
REMARK    2  A    between atoms: C_7  and  N_8
REMARK    3  A    between atoms: N_15  and  C_16
REMARK    4  A    between atoms: N_19  and  C_20
REMARK    5  A    between atoms: C_20  and  C_21
REMARK                            x       y       z     vdW  Elec       q    Type
REMARK                         _______ _______ _______ _____ _____    ______ ____
ROOT
ATOM      1  O   UNL     1      -0.273   9.027  21.287  0.00  0.00    +0.000 OA
ATOM      2  C   UNL     1       0.534   9.683  20.632  0.00  0.00    +0.000 C 
ATOM      3  N   UNL     1       1.553   9.177  19.865  0.00  0.00    +0.000 N 
ATOM      4  N   UNL     1       0.467  11.039  20.752  0.00  0.00    +0.000 N 
ATOM      5  H   UNL     1       2.319   9.806  19.688  0.00  0.00    +0.000 HD
ATOM      6  H   UNL     1      -0.142  11.327  21.509  0.00  0.00    +0.000 HD
ENDROOT
BRANCH   3   7
ATOM      7  C   UNL     1       1.822   7.811  19.645  0.00  0.00    +0.000 A 
ATOM      8  C   UNL     1       1.635   6.840  20.622  0.00  0.00    +0.000 A 
ATOM      9  C   UNL     1       2.030   5.522  20.404  0.00  0.00    +0.000 A 
ATOM     10  C   UNL     1       2.602   5.152  19.183  0.00  0.00    +0.000 A 
ATOM     11  C   UNL     1       2.728   6.106  18.165  0.00  0.00    +0.000 A 
ATOM     12  C   UNL     1       2.332   7.431  18.396  0.00  0.00    +0.000 A 
BRANCH  10  13
ATOM     13  N   UNL     1       3.087   3.834  19.004  0.00  0.00    +0.000 N 
ATOM     14  C   UNL     1       2.652   2.880  18.113  0.00  0.00    +0.000 A 
ATOM     15  C   UNL     1       3.376   1.757  18.421  0.00  0.00    +0.000 A 
ATOM     16  N   UNL     1       4.238   2.038  19.436  0.00  0.00    +0.000 NA
ATOM     17  N   UNL     1       4.070   3.310  19.777  0.00  0.00    +0.000 NA
ENDBRANCH  10  13
ENDBRANCH   3   7
BRANCH   4  18
ATOM     18  C   UNL     1       1.148  12.029  20.086  0.00  0.00    +0.000 A 
ATOM     19  C   UNL     1       1.731  12.110  18.804  0.00  0.00    +0.000 A 
ATOM     20  N   UNL     1       2.402  13.253  18.624  0.00  0.00    +0.000 NA
ATOM     21  N   UNL     1       2.197  13.921  19.782  0.00  0.00    +0.000 N 
ATOM     22  C   UNL     1       1.381  13.256  20.651  0.00  0.00    +0.000 A 
BRANCH  21  23
ATOM     23  C   UNL     1       2.845  15.199  20.023  0.00  0.00    +0.000 C 
BRANCH  23  24
ATOM     24  C   UNL     1       2.694  16.093  18.845  0.00  0.00    +0.000 A 
ATOM     25  N   UNL     1       3.642  16.483  18.015  0.00  0.00    +0.000 NA
ATOM     26  N   UNL     1       3.079  17.349  17.105  0.00  0.00    +0.000 NA
ATOM     27  C   UNL     1       1.800  17.471  17.394  0.00  0.00    +0.000 A 
ATOM     28  N   UNL     1       1.516  16.672  18.456  0.00  0.00    +0.000 N 
ATOM     29  C   UNL     1       0.219  16.472  19.034  0.00  0.00    +0.000 C 
ATOM     30  C   UNL     1      -0.884  17.389  18.524  0.00  0.00    +0.000 C 
ATOM     31  C   UNL     1      -0.611  18.255  17.294  0.00  0.00    +0.000 C 
ATOM     32  C   UNL     1       0.806  18.337  16.730  0.00  0.00    +0.000 C 
ENDBRANCH  23  24
ENDBRANCH  21  23
ENDBRANCH   4  18
TORSDOF 5
ENDMDL
