MODEL 1
REMARK VINA RESULT:      -8.9      0.000      0.000
REMARK  Name = 
REMARK  4 active torsions:
REMARK  status: ('A' for Active; 'I' for Inactive)
REMARK    1  A    between atoms: C_1  and  C_2
REMARK    2  A    between atoms: C_7  and  N_8
REMARK    3  A    between atoms: N_11  and  C_12
REMARK    4  A    between atoms: C_20  and  O_21
REMARK                            x       y       z     vdW  Elec       q    Type
REMARK                         _______ _______ _______ _____ _____    ______ ____
ROOT
ATOM      1  N   UNL     1       7.995   9.281  17.578  0.00  0.00    +0.000 N 
ATOM      2  C   UNL     1       7.955   7.931  17.866  0.00  0.00    +0.000 C 
ATOM      3  O   UNL     1       8.530   7.369  18.792  0.00  0.00    +0.000 OA
ATOM      4  N   UNL     1       7.174   7.218  16.989  0.00  0.00    +0.000 N 
ATOM      5  H   UNL     1       7.554   9.587  16.727  0.00  0.00    +0.000 HD
ATOM      6  H   UNL     1       7.284   7.510  16.035  0.00  0.00    +0.000 HD
ENDROOT
BRANCH   1  13
ATOM      7  C   UNL     1      11.225  15.654  20.135  0.00  0.00    +0.000 C 
ATOM      8  C   UNL     1      10.629  14.343  19.757  0.00  0.00    +0.000 A 
ATOM      9  N   UNL     1      10.642  13.276  20.518  0.00  0.00    +0.000 NA
ATOM     10  C   UNL     1      10.001  12.236  19.875  0.00  0.00    +0.000 A 
ATOM     11  C   UNL     1       9.822  10.945  20.394  0.00  0.00    +0.000 A 
ATOM     12  C   UNL     1       9.152   9.979  19.636  0.00  0.00    +0.000 A 
ATOM     13  C   UNL     1       8.657  10.260  18.362  0.00  0.00    +0.000 A 
ATOM     14  C   UNL     1       8.806  11.554  17.836  0.00  0.00    +0.000 A 
ATOM     15  C   UNL     1       9.489  12.520  18.607  0.00  0.00    +0.000 A 
ATOM     16  S   UNL     1       9.856  14.161  18.230  0.00  0.00    +0.000 S 
ENDBRANCH   1  13
BRANCH   4  17
ATOM     17  C   UNL     1       7.066   5.766  17.185  0.00  0.00    +0.000 C 
ATOM     18  C   UNL     1       5.766   5.394  17.854  0.00  0.00    +0.000 A 
ATOM     19  C   UNL     1       5.465   5.379  19.208  0.00  0.00    +0.000 A 
ATOM     20  C   UNL     1       4.157   5.083  19.597  0.00  0.00    +0.000 A 
ATOM     21  C   UNL     1       3.169   4.813  18.636  0.00  0.00    +0.000 A 
ATOM     22  C   UNL     1       3.487   4.791  17.276  0.00  0.00    +0.000 A 
ATOM     23  C   UNL     1       4.792   5.060  16.901  0.00  0.00    +0.000 A 
ATOM     24  C   UNL     1       5.376   5.072  15.523  0.00  0.00    +0.000 C 
ATOM     25  C   UNL     1       6.886   5.010  15.839  0.00  0.00    +0.000 C 
BRANCH  25  26
ATOM     26  O   UNL     1       7.693   5.559  14.799  0.00  0.00    +0.000 OA
ATOM     27  H   UNL     1       8.515   5.045  14.747  0.00  0.00    +0.000 HD
ENDBRANCH  25  26
ENDBRANCH   4  17
TORSDOF 3
ENDMDL
MODEL 2
REMARK VINA RESULT:      -8.5      5.908      7.107
REMARK  Name = 
REMARK  4 active torsions:
REMARK  status: ('A' for Active; 'I' for Inactive)
REMARK    1  A    between atoms: C_1  and  C_2
REMARK    2  A    between atoms: C_7  and  N_8
REMARK    3  A    between atoms: N_11  and  C_12
REMARK    4  A    between atoms: C_20  and  O_21
REMARK                            x       y       z     vdW  Elec       q    Type
REMARK                         _______ _______ _______ _____ _____    ______ ____
ROOT
ATOM      1  N   UNL     1       1.997   8.660  17.850  0.00  0.00    +0.000 N 
ATOM      2  C   UNL     1       2.378   7.726  18.794  0.00  0.00    +0.000 C 
ATOM      3  O   UNL     1       2.140   7.771  19.996  0.00  0.00    +0.000 OA
ATOM      4  N   UNL     1       3.083   6.676  18.256  0.00  0.00    +0.000 N 
ATOM      5  H   UNL     1       2.348   8.543  16.914  0.00  0.00    +0.000 HD
ATOM      6  H   UNL     1       3.745   6.962  17.558  0.00  0.00    +0.000 HD
ENDROOT
BRANCH   1  13
ATOM      7  C   UNL     1      -0.503  15.632  19.500  0.00  0.00    +0.000 C 
ATOM      8  C   UNL     1      -0.149  14.225  19.168  0.00  0.00    +0.000 A 
ATOM      9  N   UNL     1      -1.023  13.270  18.962  0.00  0.00    +0.000 NA
ATOM     10  C   UNL     1      -0.367  12.090  18.671  0.00  0.00    +0.000 A 
ATOM     11  C   UNL     1      -0.984  10.862  18.391  0.00  0.00    +0.000 A 
ATOM     12  C   UNL     1      -0.200   9.739  18.112  0.00  0.00    +0.000 A 
ATOM     13  C   UNL     1       1.194   9.799  18.111  0.00  0.00    +0.000 A 
ATOM     14  C   UNL     1       1.829  11.025  18.366  0.00  0.00    +0.000 A 
ATOM     15  C   UNL     1       1.028  12.153  18.652  0.00  0.00    +0.000 A 
ATOM     16  S   UNL     1       1.504  13.765  19.033  0.00  0.00    +0.000 S 
ENDBRANCH   1  13
BRANCH   4  17
ATOM     17  C   UNL     1       3.555   5.625  19.167  0.00  0.00    +0.000 C 
ATOM     18  C   UNL     1       2.623   4.439  19.174  0.00  0.00    +0.000 A 
ATOM     19  C   UNL     1       1.465   4.257  19.916  0.00  0.00    +0.000 A 
ATOM     20  C   UNL     1       0.706   3.106  19.692  0.00  0.00    +0.000 A 
ATOM     21  C   UNL     1       1.106   2.160  18.734  0.00  0.00    +0.000 A 
ATOM     22  C   UNL     1       2.293   2.331  18.019  0.00  0.00    +0.000 A 
ATOM     23  C   UNL     1       3.053   3.461  18.266  0.00  0.00    +0.000 A 
ATOM     24  C   UNL     1       4.360   3.851  17.650  0.00  0.00    +0.000 C 
ATOM     25  C   UNL     1       4.843   4.935  18.638  0.00  0.00    +0.000 C 
BRANCH  25  26
ATOM     26  O   UNL     1       5.748   5.863  18.044  0.00  0.00    +0.000 OA
ATOM     27  H   UNL     1       5.562   5.904  17.091  0.00  0.00    +0.000 HD
ENDBRANCH  25  26
ENDBRANCH   4  17
TORSDOF 3
ENDMDL
MODEL 3
REMARK VINA RESULT:      -8.2      6.498      8.479
REMARK  Name = 
REMARK  4 active torsions:
REMARK  status: ('A' for Active; 'I' for Inactive)
REMARK    1  A    between atoms: C_1  and  C_2
REMARK    2  A    between atoms: C_7  and  N_8
REMARK    3  A    between atoms: N_11  and  C_12
REMARK    4  A    between atoms: C_20  and  O_21
REMARK                            x       y       z     vdW  Elec       q    Type
REMARK                         _______ _______ _______ _____ _____    ______ ____
ROOT
ATOM      1  N   UNL     1       1.443   9.096  17.832  0.00  0.00    +0.000 N 
ATOM      2  C   UNL     1       2.074   8.133  18.594  0.00  0.00    +0.000 C 
ATOM      3  O   UNL     1       1.863   7.892  19.778  0.00  0.00    +0.000 OA
ATOM      4  N   UNL     1       3.009   7.416  17.888  0.00  0.00    +0.000 N 
ATOM      5  H   UNL     1       1.789   9.248  16.898  0.00  0.00    +0.000 HD
ATOM      6  H   UNL     1       3.559   7.986  17.271  0.00  0.00    +0.000 HD
ENDROOT
BRANCH   1  13
ATOM      7  C   UNL     1      -5.273  12.474  18.867  0.00  0.00    +0.000 C 
ATOM      8  C   UNL     1      -3.903  11.901  18.761  0.00  0.00    +0.000 A 
ATOM      9  N   UNL     1      -2.869  12.321  19.449  0.00  0.00    +0.000 NA
ATOM     10  C   UNL     1      -1.755  11.575  19.120  0.00  0.00    +0.000 A 
ATOM     11  C   UNL     1      -0.473  11.742  19.664  0.00  0.00    +0.000 A 
ATOM     12  C   UNL     1       0.574  10.917  19.243  0.00  0.00    +0.000 A 
ATOM     13  C   UNL     1       0.383   9.924  18.280  0.00  0.00    +0.000 A 
ATOM     14  C   UNL     1      -0.899   9.726  17.742  0.00  0.00    +0.000 A 
ATOM     15  C   UNL     1      -1.948  10.569  18.171  0.00  0.00    +0.000 A 
ATOM     16  S   UNL     1      -3.599  10.596  17.680  0.00  0.00    +0.000 S 
ENDBRANCH   1  13
BRANCH   4  17
ATOM     17  C   UNL     1       3.757   6.371  18.599  0.00  0.00    +0.000 C 
ATOM     18  C   UNL     1       3.001   5.066  18.618  0.00  0.00    +0.000 A 
ATOM     19  C   UNL     1       2.013   4.653  19.500  0.00  0.00    +0.000 A 
ATOM     20  C   UNL     1       1.384   3.427  19.270  0.00  0.00    +0.000 A 
ATOM     21  C   UNL     1       1.742   2.636  18.166  0.00  0.00    +0.000 A 
ATOM     22  C   UNL     1       2.764   3.039  17.304  0.00  0.00    +0.000 A 
ATOM     23  C   UNL     1       3.401   4.242  17.555  0.00  0.00    +0.000 A 
ATOM     24  C   UNL     1       4.528   4.869  16.796  0.00  0.00    +0.000 C 
ATOM     25  C   UNL     1       5.020   5.923  17.812  0.00  0.00    +0.000 C 
BRANCH  25  26
ATOM     26  O   UNL     1       5.688   7.021  17.192  0.00  0.00    +0.000 OA
ATOM     27  H   UNL     1       6.231   6.676  16.464  0.00  0.00    +0.000 HD
ENDBRANCH  25  26
ENDBRANCH   4  17
TORSDOF 3
ENDMDL
MODEL 4
REMARK VINA RESULT:      -8.0      6.642      8.334
REMARK  Name = 
REMARK  4 active torsions:
REMARK  status: ('A' for Active; 'I' for Inactive)
REMARK    1  A    between atoms: C_1  and  C_2
REMARK    2  A    between atoms: C_7  and  N_8
REMARK    3  A    between atoms: N_11  and  C_12
REMARK    4  A    between atoms: C_20  and  O_21
REMARK                            x       y       z     vdW  Elec       q    Type
REMARK                         _______ _______ _______ _____ _____    ______ ____
ROOT
ATOM      1  N   UNL     1       1.324   9.145  18.585  0.00  0.00    +0.000 N 
ATOM      2  C   UNL     1       1.939   8.119  19.276  0.00  0.00    +0.000 C 
ATOM      3  O   UNL     1       1.860   7.906  20.482  0.00  0.00    +0.000 OA
ATOM      4  N   UNL     1       2.688   7.300  18.466  0.00  0.00    +0.000 N 
ATOM      5  H   UNL     1       1.558   9.255  17.613  0.00  0.00    +0.000 HD
ATOM      6  H   UNL     1       3.211   7.802  17.773  0.00  0.00    +0.000 HD
ENDROOT
BRANCH   1  13
ATOM      7  C   UNL     1      -4.670  13.522  20.166  0.00  0.00    +0.000 C 
ATOM      8  C   UNL     1      -3.427  12.729  19.963  0.00  0.00    +0.000 A 
ATOM      9  N   UNL     1      -2.335  12.867  20.676  0.00  0.00    +0.000 NA
ATOM     10  C   UNL     1      -1.374  11.978  20.235  0.00  0.00    +0.000 A 
ATOM     11  C   UNL     1      -0.084  11.842  20.770  0.00  0.00    +0.000 A 
ATOM     12  C   UNL     1       0.796  10.901  20.228  0.00  0.00    +0.000 A 
ATOM     13  C   UNL     1       0.430  10.087  19.155  0.00  0.00    +0.000 A 
ATOM     14  C   UNL     1      -0.865  10.193  18.622  0.00  0.00    +0.000 A 
ATOM     15  C   UNL     1      -1.744  11.151  19.173  0.00  0.00    +0.000 A 
ATOM     16  S   UNL     1      -3.362  11.538  18.723  0.00  0.00    +0.000 S 
ENDBRANCH   1  13
BRANCH   4  17
ATOM     17  C   UNL     1       3.402   6.179  19.091  0.00  0.00    +0.000 C 
ATOM     18  C   UNL     1       2.533   4.949  19.178  0.00  0.00    +0.000 A 
ATOM     19  C   UNL     1       1.605   4.615  20.152  0.00  0.00    +0.000 A 
ATOM     20  C   UNL     1       0.845   3.456  19.979  0.00  0.00    +0.000 A 
ATOM     21  C   UNL     1       1.016   2.653  18.839  0.00  0.00    +0.000 A 
ATOM     22  C   UNL     1       1.979   2.973  17.881  0.00  0.00    +0.000 A 
ATOM     23  C   UNL     1       2.747   4.109  18.074  0.00  0.00    +0.000 A 
ATOM     24  C   UNL     1       3.846   4.642  17.210  0.00  0.00    +0.000 C 
ATOM     25  C   UNL     1       4.533   5.630  18.178  0.00  0.00    +0.000 C 
BRANCH  25  26
ATOM     26  O   UNL     1       5.235   6.671  17.502  0.00  0.00    +0.000 OA
ATOM     27  H   UNL     1       4.699   7.480  17.548  0.00  0.00    +0.000 HD
ENDBRANCH  25  26
ENDBRANCH   4  17
TORSDOF 3
ENDMDL
MODEL 5
REMARK VINA RESULT:      -8.0      6.488      8.042
REMARK  Name = 
REMARK  4 active torsions:
REMARK  status: ('A' for Active; 'I' for Inactive)
REMARK    1  A    between atoms: C_1  and  C_2
REMARK    2  A    between atoms: C_7  and  N_8
REMARK    3  A    between atoms: N_11  and  C_12
REMARK    4  A    between atoms: C_20  and  O_21
REMARK                            x       y       z     vdW  Elec       q    Type
REMARK                         _______ _______ _______ _____ _____    ______ ____
ROOT
ATOM      1  N   UNL     1       1.647   8.709  18.786  0.00  0.00    +0.000 N 
ATOM      2  C   UNL     1       2.122   7.622  19.493  0.00  0.00    +0.000 C 
ATOM      3  O   UNL     1       1.849   7.336  20.654  0.00  0.00    +0.000 OA
ATOM      4  N   UNL     1       2.973   6.833  18.757  0.00  0.00    +0.000 N 
ATOM      5  H   UNL     1       2.035   8.873  17.871  0.00  0.00    +0.000 HD
ATOM      6  H   UNL     1       3.610   7.362  18.190  0.00  0.00    +0.000 HD
ENDROOT
BRANCH   1  13
ATOM      7  C   UNL     1      -2.866  12.961  23.159  0.00  0.00    +0.000 C 
ATOM      8  C   UNL     1      -2.041  12.190  22.189  0.00  0.00    +0.000 A 
ATOM      9  N   UNL     1      -2.123  12.312  20.887  0.00  0.00    +0.000 NA
ATOM     10  C   UNL     1      -1.219  11.463  20.281  0.00  0.00    +0.000 A 
ATOM     11  C   UNL     1      -1.026  11.330  18.897  0.00  0.00    +0.000 A 
ATOM     12  C   UNL     1      -0.075  10.429  18.412  0.00  0.00    +0.000 A 
ATOM     13  C   UNL     1       0.695   9.641  19.270  0.00  0.00    +0.000 A 
ATOM     14  C   UNL     1       0.532   9.777  20.658  0.00  0.00    +0.000 A 
ATOM     15  C   UNL     1      -0.436  10.687  21.138  0.00  0.00    +0.000 A 
ATOM     16  S   UNL     1      -0.886  11.050  22.761  0.00  0.00    +0.000 S 
ENDBRANCH   1  13
BRANCH   4  17
ATOM     17  C   UNL     1       3.555   5.653  19.409  0.00  0.00    +0.000 C 
ATOM     18  C   UNL     1       2.630   4.464  19.329  0.00  0.00    +0.000 A 
ATOM     19  C   UNL     1       1.574   4.134  20.166  0.00  0.00    +0.000 A 
ATOM     20  C   UNL     1       0.792   3.022  19.845  0.00  0.00    +0.000 A 
ATOM     21  C   UNL     1       1.068   2.262  18.697  0.00  0.00    +0.000 A 
ATOM     22  C   UNL     1       2.156   2.575  17.880  0.00  0.00    +0.000 A 
ATOM     23  C   UNL     1       2.942   3.663  18.221  0.00  0.00    +0.000 A 
ATOM     24  C   UNL     1       4.162   4.178  17.524  0.00  0.00    +0.000 C 
ATOM     25  C   UNL     1       4.766   5.089  18.615  0.00  0.00    +0.000 C 
BRANCH  25  26
ATOM     26  O   UNL     1       5.591   6.122  18.081  0.00  0.00    +0.000 OA
ATOM     27  H   UNL     1       5.685   6.816  18.754  0.00  0.00    +0.000 HD
ENDBRANCH  25  26
ENDBRANCH   4  17
TORSDOF 3
ENDMDL
MODEL 6
REMARK VINA RESULT:      -7.8      5.871      7.173
REMARK  Name = 
REMARK  4 active torsions:
REMARK  status: ('A' for Active; 'I' for Inactive)
REMARK    1  A    between atoms: C_1  and  C_2
REMARK    2  A    between atoms: C_7  and  N_8
REMARK    3  A    between atoms: N_11  and  C_12
REMARK    4  A    between atoms: C_20  and  O_21
REMARK                            x       y       z     vdW  Elec       q    Type
REMARK                         _______ _______ _______ _____ _____    ______ ____
ROOT
ATOM      1  N   UNL     1       1.623   8.769  19.215  0.00  0.00    +0.000 N 
ATOM      2  C   UNL     1       2.294   8.052  18.245  0.00  0.00    +0.000 C 
ATOM      3  O   UNL     1       2.395   8.352  17.060  0.00  0.00    +0.000 OA
ATOM      4  N   UNL     1       2.881   6.909  18.731  0.00  0.00    +0.000 N 
ATOM      5  H   UNL     1       1.540   8.351  20.127  0.00  0.00    +0.000 HD
ATOM      6  H   UNL     1       2.303   6.418  19.388  0.00  0.00    +0.000 HD
ENDROOT
BRANCH   1  13
ATOM      7  C   UNL     1       0.079  16.179  18.676  0.00  0.00    +0.000 C 
ATOM      8  C   UNL     1       0.246  14.702  18.745  0.00  0.00    +0.000 A 
ATOM      9  N   UNL     1      -0.709  13.836  18.505  0.00  0.00    +0.000 NA
ATOM     10  C   UNL     1      -0.221  12.552  18.649  0.00  0.00    +0.000 A 
ATOM     11  C   UNL     1      -0.961  11.375  18.464  0.00  0.00    +0.000 A 
ATOM     12  C   UNL     1      -0.346  10.133  18.643  0.00  0.00    +0.000 A 
ATOM     13  C   UNL     1       0.996  10.025  19.011  0.00  0.00    +0.000 A 
ATOM     14  C   UNL     1       1.759  11.192  19.178  0.00  0.00    +0.000 A 
ATOM     15  C   UNL     1       1.126  12.442  19.000  0.00  0.00    +0.000 A 
ATOM     16  S   UNL     1       1.775  14.030  19.163  0.00  0.00    +0.000 S 
ENDBRANCH   1  13
BRANCH   4  17
ATOM     17  C   UNL     1       3.613   6.054  17.787  0.00  0.00    +0.000 C 
ATOM     18  C   UNL     1       5.101   6.286  17.871  0.00  0.00    +0.000 A 
ATOM     19  C   UNL     1       5.860   7.259  17.238  0.00  0.00    +0.000 A 
ATOM     20  C   UNL     1       7.222   7.339  17.535  0.00  0.00    +0.000 A 
ATOM     21  C   UNL     1       7.806   6.456  18.458  0.00  0.00    +0.000 A 
ATOM     22  C   UNL     1       7.045   5.453  19.062  0.00  0.00    +0.000 A 
ATOM     23  C   UNL     1       5.701   5.364  18.742  0.00  0.00    +0.000 A 
ATOM     24  C   UNL     1       4.695   4.371  19.234  0.00  0.00    +0.000 C 
ATOM     25  C   UNL     1       3.563   4.557  18.201  0.00  0.00    +0.000 C 
BRANCH  25  26
ATOM     26  O   UNL     1       2.284   4.178  18.706  0.00  0.00    +0.000 OA
ATOM     27  H   UNL     1       2.014   3.355  18.267  0.00  0.00    +0.000 HD
ENDBRANCH  25  26
ENDBRANCH   4  17
TORSDOF 3
ENDMDL
MODEL 7
REMARK VINA RESULT:      -7.7      6.935      8.397
REMARK  Name = 
REMARK  4 active torsions:
REMARK  status: ('A' for Active; 'I' for Inactive)
REMARK    1  A    between atoms: C_1  and  C_2
REMARK    2  A    between atoms: C_7  and  N_8
REMARK    3  A    between atoms: N_11  and  C_12
REMARK    4  A    between atoms: C_20  and  O_21
REMARK                            x       y       z     vdW  Elec       q    Type
REMARK                         _______ _______ _______ _____ _____    ______ ____
ROOT
ATOM      1  N   UNL     1       0.770   9.084  19.957  0.00  0.00    +0.000 N 
ATOM      2  C   UNL     1       1.595   8.048  20.348  0.00  0.00    +0.000 C 
ATOM      3  O   UNL     1       1.871   7.737  21.502  0.00  0.00    +0.000 OA
ATOM      4  N   UNL     1       2.114   7.344  19.289  0.00  0.00    +0.000 N 
ATOM      5  H   UNL     1       0.713   9.284  18.972  0.00  0.00    +0.000 HD
ATOM      6  H   UNL     1       2.398   7.932  18.526  0.00  0.00    +0.000 HD
ENDROOT
BRANCH   1  13
ATOM      7  C   UNL     1      -3.195  14.760  23.062  0.00  0.00    +0.000 C 
ATOM      8  C   UNL     1      -2.423  13.583  22.579  0.00  0.00    +0.000 A 
ATOM      9  N   UNL     1      -2.103  12.552  23.324  0.00  0.00    +0.000 NA
ATOM     10  C   UNL     1      -1.395  11.635  22.571  0.00  0.00    +0.000 A 
ATOM     11  C   UNL     1      -0.895  10.410  23.039  0.00  0.00    +0.000 A 
ATOM     12  C   UNL     1      -0.192   9.571  22.170  0.00  0.00    +0.000 A 
ATOM     13  C   UNL     1       0.039   9.920  20.839  0.00  0.00    +0.000 A 
ATOM     14  C   UNL     1      -0.474  11.131  20.347  0.00  0.00    +0.000 A 
ATOM     15  C   UNL     1      -1.179  11.974  21.234  0.00  0.00    +0.000 A 
ATOM     16  S   UNL     1      -1.890  13.517  20.944  0.00  0.00    +0.000 S 
ENDBRANCH   1  13
BRANCH   4  17
ATOM     17  C   UNL     1       3.020   6.226  19.581  0.00  0.00    +0.000 C 
ATOM     18  C   UNL     1       2.276   4.915  19.647  0.00  0.00    +0.000 A 
ATOM     19  C   UNL     1       1.598   4.360  20.722  0.00  0.00    +0.000 A 
ATOM     20  C   UNL     1       0.901   3.166  20.525  0.00  0.00    +0.000 A 
ATOM     21  C   UNL     1       0.885   2.547  19.264  0.00  0.00    +0.000 A 
ATOM     22  C   UNL     1       1.602   3.089  18.196  0.00  0.00    +0.000 A 
ATOM     23  C   UNL     1       2.312   4.259  18.407  0.00  0.00    +0.000 A 
ATOM     24  C   UNL     1       3.167   5.011  17.436  0.00  0.00    +0.000 C 
ATOM     25  C   UNL     1       3.970   5.922  18.390  0.00  0.00    +0.000 C 
BRANCH  25  26
ATOM     26  O   UNL     1       4.440   7.110  17.757  0.00  0.00    +0.000 OA
ATOM     27  H   UNL     1       5.373   6.980  17.517  0.00  0.00    +0.000 HD
ENDBRANCH  25  26
ENDBRANCH   4  17
TORSDOF 3
ENDMDL
MODEL 8
REMARK VINA RESULT:      -7.7      6.184      7.986
REMARK  Name = 
REMARK  4 active torsions:
REMARK  status: ('A' for Active; 'I' for Inactive)
REMARK    1  A    between atoms: C_1  and  C_2
REMARK    2  A    between atoms: C_7  and  N_8
REMARK    3  A    between atoms: N_11  and  C_12
REMARK    4  A    between atoms: C_20  and  O_21
REMARK                            x       y       z     vdW  Elec       q    Type
REMARK                         _______ _______ _______ _____ _____    ______ ____
ROOT
ATOM      1  N   UNL     1       1.793   7.796  20.379  0.00  0.00    +0.000 N 
ATOM      2  C   UNL     1       2.300   7.259  19.212  0.00  0.00    +0.000 C 
ATOM      3  O   UNL     1       2.103   7.677  18.075  0.00  0.00    +0.000 OA
ATOM      4  N   UNL     1       3.094   6.158  19.427  0.00  0.00    +0.000 N 
ATOM      5  H   UNL     1       1.958   7.289  21.233  0.00  0.00    +0.000 HD
ATOM      6  H   UNL     1       2.729   5.541  20.129  0.00  0.00    +0.000 HD
ENDROOT
BRANCH   1  13
ATOM      7  C   UNL     1      -2.703  13.457  22.686  0.00  0.00    +0.000 C 
ATOM      8  C   UNL     1      -1.817  12.410  22.107  0.00  0.00    +0.000 A 
ATOM      9  N   UNL     1      -1.386  12.407  20.869  0.00  0.00    +0.000 NA
ATOM     10  C   UNL     1      -0.583  11.305  20.656  0.00  0.00    +0.000 A 
ATOM     11  C   UNL     1       0.055  10.981  19.449  0.00  0.00    +0.000 A 
ATOM     12  C   UNL     1       0.843   9.830  19.368  0.00  0.00    +0.000 A 
ATOM     13  C   UNL     1       1.012   8.977  20.459  0.00  0.00    +0.000 A 
ATOM     14  C   UNL     1       0.401   9.296  21.682  0.00  0.00    +0.000 A 
ATOM     15  C   UNL     1      -0.398  10.459  21.753  0.00  0.00    +0.000 A 
ATOM     16  S   UNL     1      -1.293  11.093  23.082  0.00  0.00    +0.000 S 
ENDBRANCH   1  13
BRANCH   4  17
ATOM     17  C   UNL     1       3.679   5.491  18.257  0.00  0.00    +0.000 C 
ATOM     18  C   UNL     1       5.097   5.945  18.014  0.00  0.00    +0.000 A 
ATOM     19  C   UNL     1       5.539   7.064  17.323  0.00  0.00    +0.000 A 
ATOM     20  C   UNL     1       6.909   7.334  17.301  0.00  0.00    +0.000 A 
ATOM     21  C   UNL     1       7.815   6.493  17.969  0.00  0.00    +0.000 A 
ATOM     22  C   UNL     1       7.368   5.347  18.629  0.00  0.00    +0.000 A 
ATOM     23  C   UNL     1       6.011   5.072  18.623  0.00  0.00    +0.000 A 
ATOM     24  C   UNL     1       5.300   3.905  19.233  0.00  0.00    +0.000 C 
ATOM     25  C   UNL     1       3.934   3.981  18.517  0.00  0.00    +0.000 C 
BRANCH  25  26
ATOM     26  O   UNL     1       2.882   3.376  19.265  0.00  0.00    +0.000 OA
ATOM     27  H   UNL     1       2.044   3.793  19.005  0.00  0.00    +0.000 HD
ENDBRANCH  25  26
ENDBRANCH   4  17
TORSDOF 3
ENDMDL
MODEL 9
REMARK VINA RESULT:      -7.7      6.614      9.540
REMARK  Name = 
REMARK  4 active torsions:
REMARK  status: ('A' for Active; 'I' for Inactive)
REMARK    1  A    between atoms: C_1  and  C_2
REMARK    2  A    between atoms: C_7  and  N_8
REMARK    3  A    between atoms: N_11  and  C_12
REMARK    4  A    between atoms: C_20  and  O_21
REMARK                            x       y       z     vdW  Elec       q    Type
REMARK                         _______ _______ _______ _____ _____    ______ ____
ROOT
ATOM      1  N   UNL     1       1.860   8.138  19.363  0.00  0.00    +0.000 N 
ATOM      2  C   UNL     1       1.559   9.342  18.757  0.00  0.00    +0.000 C 
ATOM      3  O   UNL     1       1.850   9.671  17.612  0.00  0.00    +0.000 OA
ATOM      4  N   UNL     1       0.863  10.196  19.578  0.00  0.00    +0.000 N 
ATOM      5  H   UNL     1       1.645   8.043  20.341  0.00  0.00    +0.000 HD
ATOM      6  H   UNL     1       1.200  10.197  20.523  0.00  0.00    +0.000 HD
ENDROOT
BRANCH   1  13
ATOM      7  C   UNL     1       6.274   3.763  15.008  0.00  0.00    +0.000 C 
ATOM      8  C   UNL     1       5.349   4.501  15.911  0.00  0.00    +0.000 A 
ATOM      9  N   UNL     1       4.467   3.930  16.694  0.00  0.00    +0.000 NA
ATOM     10  C   UNL     1       3.778   4.895  17.402  0.00  0.00    +0.000 A 
ATOM     11  C   UNL     1       2.762   4.649  18.338  0.00  0.00    +0.000 A 
ATOM     12  C   UNL     1       2.142   5.721  18.987  0.00  0.00    +0.000 A 
ATOM     13  C   UNL     1       2.499   7.044  18.725  0.00  0.00    +0.000 A 
ATOM     14  C   UNL     1       3.530   7.309  17.808  0.00  0.00    +0.000 A 
ATOM     15  C   UNL     1       4.147   6.219  17.154  0.00  0.00    +0.000 A 
ATOM     16  S   UNL     1       5.399   6.220  15.971  0.00  0.00    +0.000 S 
ENDBRANCH   1  13
BRANCH   4  17
ATOM     17  C   UNL     1       0.498  11.516  19.048  0.00  0.00    +0.000 C 
ATOM     18  C   UNL     1      -0.977  11.601  18.743  0.00  0.00    +0.000 A 
ATOM     19  C   UNL     1      -1.647  11.198  17.597  0.00  0.00    +0.000 A 
ATOM     20  C   UNL     1      -3.040  11.293  17.571  0.00  0.00    +0.000 A 
ATOM     21  C   UNL     1      -3.744  11.780  18.685  0.00  0.00    +0.000 A 
ATOM     22  C   UNL     1      -3.062  12.220  19.821  0.00  0.00    +0.000 A 
ATOM     23  C   UNL     1      -1.680  12.148  19.828  0.00  0.00    +0.000 A 
ATOM     24  C   UNL     1      -0.735  12.576  20.907  0.00  0.00    +0.000 C 
ATOM     25  C   UNL     1       0.599  12.625  20.132  0.00  0.00    +0.000 C 
BRANCH  25  26
ATOM     26  O   UNL     1       1.737  12.454  20.975  0.00  0.00    +0.000 OA
ATOM     27  H   UNL     1       2.277  11.730  20.616  0.00  0.00    +0.000 HD
ENDBRANCH  25  26
ENDBRANCH   4  17
TORSDOF 3
ENDMDL
