MODEL 1
REMARK VINA RESULT:      -7.8      0.000      0.000
REMARK  Name = 
REMARK  5 active torsions:
REMARK  status: ('A' for Active; 'I' for Inactive)
REMARK    1  A    between atoms: C_1  and  C_2
REMARK    2  A    between atoms: C_5  and  C_6
REMARK    3  A    between atoms: C_9  and  N_10
REMARK    4  A    between atoms: C_11  and  C_13
REMARK    5  A    between atoms: C_13  and  C_14
REMARK                            x       y       z     vdW  Elec       q    Type
REMARK                         _______ _______ _______ _____ _____    ______ ____
ROOT
ATOM      1  C   UNL     1       0.813   9.856  19.153  0.00  0.00    +0.000 A 
ATOM      2  C   UNL     1       1.447   9.319  18.027  0.00  0.00    +0.000 A 
ATOM      3  C   UNL     1       2.185   8.135  18.111  0.00  0.00    +0.000 A 
ATOM      4  C   UNL     1       2.315   7.456  19.322  0.00  0.00    +0.000 A 
ATOM      5  C   UNL     1       1.650   7.960  20.445  0.00  0.00    +0.000 A 
ATOM      6  C   UNL     1       0.912   9.153  20.361  0.00  0.00    +0.000 A 
ENDROOT
BRANCH   1  11
ATOM      7  C   UNL     1      -0.943  14.369  20.082  0.00  0.00    +0.000 C 
ATOM      8  C   UNL     1      -0.685  13.075  19.421  0.00  0.00    +0.000 A 
ATOM      9  N   UNL     1      -1.106  12.806  18.181  0.00  0.00    +0.000 NA
ATOM     10  N   UNL     1      -0.603  11.579  17.995  0.00  0.00    +0.000 N 
ATOM     11  C   UNL     1       0.097  11.132  19.087  0.00  0.00    +0.000 A 
ATOM     12  N   UNL     1       0.042  12.072  20.014  0.00  0.00    +0.000 NA
ATOM     13  H   UNL     1      -0.756  11.116  17.107  0.00  0.00    +0.000 HD
ENDBRANCH   1  11
BRANCH   4  14
ATOM     14  N   UNL     1       3.094   6.287  19.462  0.00  0.00    +0.000 N 
ATOM     15  C   UNL     1       2.617   4.982  19.441  0.00  0.00    +0.000 C 
ATOM     16  O   UNL     1       1.452   4.635  19.262  0.00  0.00    +0.000 OA
ATOM     17  H   UNL     1       4.099   6.412  19.448  0.00  0.00    +0.000 HD
BRANCH  15  18
ATOM     18  C   UNL     1       3.705   3.931  19.600  0.00  0.00    +0.000 C 
BRANCH  18  19
ATOM     19  C   UNL     1       4.744   4.033  18.510  0.00  0.00    +0.000 A 
ATOM     20  C   UNL     1       4.425   3.676  17.187  0.00  0.00    +0.000 A 
ATOM     21  C   UNL     1       5.353   3.851  16.159  0.00  0.00    +0.000 A 
ATOM     22  C   UNL     1       6.608   4.371  16.451  0.00  0.00    +0.000 A 
ATOM     23  F   UNL     1       7.486   4.571  15.459  0.00  0.00    +0.000 F 
ATOM     24  C   UNL     1       6.946   4.689  17.760  0.00  0.00    +0.000 A 
ATOM     25  F   UNL     1       8.159   5.181  18.042  0.00  0.00    +0.000 F 
ATOM     26  C   UNL     1       6.027   4.519  18.793  0.00  0.00    +0.000 A 
ENDBRANCH  18  19
ENDBRANCH  15  18
ENDBRANCH   4  14
TORSDOF 4
ENDMDL
MODEL 2
REMARK VINA RESULT:      -7.8      1.330      1.950
REMARK  Name = 
REMARK  5 active torsions:
REMARK  status: ('A' for Active; 'I' for Inactive)
REMARK    1  A    between atoms: C_1  and  C_2
REMARK    2  A    between atoms: C_5  and  C_6
REMARK    3  A    between atoms: C_9  and  N_10
REMARK    4  A    between atoms: C_11  and  C_13
REMARK    5  A    between atoms: C_13  and  C_14
REMARK                            x       y       z     vdW  Elec       q    Type
REMARK                         _______ _______ _______ _____ _____    ______ ____
ROOT
ATOM      1  C   UNL     1       0.932   9.430  19.448  0.00  0.00    +0.000 A 
ATOM      2  C   UNL     1       1.472   9.154  18.186  0.00  0.00    +0.000 A 
ATOM      3  C   UNL     1       2.290   8.040  17.981  0.00  0.00    +0.000 A 
ATOM      4  C   UNL     1       2.598   7.173  19.028  0.00  0.00    +0.000 A 
ATOM      5  C   UNL     1       2.030   7.415  20.284  0.00  0.00    +0.000 A 
ATOM      6  C   UNL     1       1.210   8.537  20.492  0.00  0.00    +0.000 A 
ENDROOT
BRANCH   1  11
ATOM      7  C   UNL     1      -2.775  12.637  19.988  0.00  0.00    +0.000 C 
ATOM      8  C   UNL     1      -1.418  12.059  19.947  0.00  0.00    +0.000 A 
ATOM      9  N   UNL     1      -0.342  12.722  20.382  0.00  0.00    +0.000 NA
ATOM     10  N   UNL     1       0.619  11.805  20.207  0.00  0.00    +0.000 N 
ATOM     11  C   UNL     1       0.131  10.633  19.687  0.00  0.00    +0.000 A 
ATOM     12  N   UNL     1      -1.169  10.783  19.501  0.00  0.00    +0.000 NA
ATOM     13  H   UNL     1       1.569  12.033  20.475  0.00  0.00    +0.000 HD
ENDBRANCH   1  11
BRANCH   4  14
ATOM     14  N   UNL     1       3.463   6.068  18.876  0.00  0.00    +0.000 N 
ATOM     15  C   UNL     1       3.073   4.747  18.696  0.00  0.00    +0.000 C 
ATOM     16  O   UNL     1       1.919   4.333  18.605  0.00  0.00    +0.000 OA
ATOM     17  H   UNL     1       4.447   6.280  18.761  0.00  0.00    +0.000 HD
BRANCH  15  18
ATOM     18  C   UNL     1       4.239   3.781  18.545  0.00  0.00    +0.000 C 
BRANCH  18  19
ATOM     19  C   UNL     1       5.142   4.171  17.401  0.00  0.00    +0.000 A 
ATOM     20  C   UNL     1       6.456   4.608  17.649  0.00  0.00    +0.000 A 
ATOM     21  C   UNL     1       7.326   4.886  16.592  0.00  0.00    +0.000 A 
ATOM     22  C   UNL     1       6.880   4.743  15.284  0.00  0.00    +0.000 A 
ATOM     23  F   UNL     1       7.724   4.977  14.271  0.00  0.00    +0.000 F 
ATOM     24  C   UNL     1       5.572   4.352  15.030  0.00  0.00    +0.000 A 
ATOM     25  F   UNL     1       5.140   4.224  13.768  0.00  0.00    +0.000 F 
ATOM     26  C   UNL     1       4.697   4.071  16.077  0.00  0.00    +0.000 A 
ENDBRANCH  18  19
ENDBRANCH  15  18
ENDBRANCH   4  14
TORSDOF 4
ENDMDL
MODEL 3
REMARK VINA RESULT:      -7.6      1.799      2.172
REMARK  Name = 
REMARK  5 active torsions:
REMARK  status: ('A' for Active; 'I' for Inactive)
REMARK    1  A    between atoms: C_1  and  C_2
REMARK    2  A    between atoms: C_5  and  C_6
REMARK    3  A    between atoms: C_9  and  N_10
REMARK    4  A    between atoms: C_11  and  C_13
REMARK    5  A    between atoms: C_13  and  C_14
REMARK                            x       y       z     vdW  Elec       q    Type
REMARK                         _______ _______ _______ _____ _____    ______ ____
ROOT
ATOM      1  C   UNL     1       0.590   9.650  19.859  0.00  0.00    +0.000 A 
ATOM      2  C   UNL     1       0.972   9.649  18.512  0.00  0.00    +0.000 A 
ATOM      3  C   UNL     1       1.827   8.665  18.007  0.00  0.00    +0.000 A 
ATOM      4  C   UNL     1       2.328   7.658  18.831  0.00  0.00    +0.000 A 
ATOM      5  C   UNL     1       1.919   7.624  20.168  0.00  0.00    +0.000 A 
ATOM      6  C   UNL     1       1.062   8.615  20.678  0.00  0.00    +0.000 A 
ENDROOT
BRANCH   1  11
ATOM      7  C   UNL     1      -1.835  12.702  22.879  0.00  0.00    +0.000 C 
ATOM      8  C   UNL     1      -1.306  12.071  21.654  0.00  0.00    +0.000 A 
ATOM      9  N   UNL     1      -1.454  12.618  20.444  0.00  0.00    +0.000 NA
ATOM     10  N   UNL     1      -0.782  11.748  19.679  0.00  0.00    +0.000 N 
ATOM     11  C   UNL     1      -0.249  10.717  20.411  0.00  0.00    +0.000 A 
ATOM     12  N   UNL     1      -0.587  10.901  21.675  0.00  0.00    +0.000 NA
ATOM     13  H   UNL     1      -0.711  11.922  18.684  0.00  0.00    +0.000 HD
ENDBRANCH   1  11
BRANCH   4  14
ATOM     14  N   UNL     1       3.235   6.678  18.373  0.00  0.00    +0.000 N 
ATOM     15  C   UNL     1       2.899   5.424  17.877  0.00  0.00    +0.000 C 
ATOM     16  O   UNL     1       1.762   4.982  17.724  0.00  0.00    +0.000 OA
ATOM     17  H   UNL     1       4.202   6.967  18.282  0.00  0.00    +0.000 HD
BRANCH  15  18
ATOM     18  C   UNL     1       4.099   4.596  17.446  0.00  0.00    +0.000 C 
BRANCH  18  19
ATOM     19  C   UNL     1       5.400   5.289  17.767  0.00  0.00    +0.000 A 
ATOM     20  C   UNL     1       5.924   6.259  16.892  0.00  0.00    +0.000 A 
ATOM     21  C   UNL     1       7.080   6.968  17.225  0.00  0.00    +0.000 A 
ATOM     22  C   UNL     1       7.725   6.699  18.426  0.00  0.00    +0.000 A 
ATOM     23  F   UNL     1       8.815   7.403  18.761  0.00  0.00    +0.000 F 
ATOM     24  C   UNL     1       7.239   5.715  19.277  0.00  0.00    +0.000 A 
ATOM     25  F   UNL     1       7.867   5.450  20.430  0.00  0.00    +0.000 F 
ATOM     26  C   UNL     1       6.085   5.003  18.955  0.00  0.00    +0.000 A 
ENDBRANCH  18  19
ENDBRANCH  15  18
ENDBRANCH   4  14
TORSDOF 4
ENDMDL
MODEL 4
REMARK VINA RESULT:      -7.6      0.781      1.277
REMARK  Name = 
REMARK  5 active torsions:
REMARK  status: ('A' for Active; 'I' for Inactive)
REMARK    1  A    between atoms: C_1  and  C_2
REMARK    2  A    between atoms: C_5  and  C_6
REMARK    3  A    between atoms: C_9  and  N_10
REMARK    4  A    between atoms: C_11  and  C_13
REMARK    5  A    between atoms: C_13  and  C_14
REMARK                            x       y       z     vdW  Elec       q    Type
REMARK                         _______ _______ _______ _____ _____    ______ ____
ROOT
ATOM      1  C   UNL     1       0.775   9.645  19.572  0.00  0.00    +0.000 A 
ATOM      2  C   UNL     1       0.875   8.876  20.737  0.00  0.00    +0.000 A 
ATOM      3  C   UNL     1       1.653   7.716  20.770  0.00  0.00    +0.000 A 
ATOM      4  C   UNL     1       2.350   7.287  19.641  0.00  0.00    +0.000 A 
ATOM      5  C   UNL     1       2.293   8.071  18.483  0.00  0.00    +0.000 A 
ATOM      6  C   UNL     1       1.507   9.236  18.449  0.00  0.00    +0.000 A 
ENDROOT
BRANCH   1  11
ATOM      7  C   UNL     1      -2.930  12.849  20.137  0.00  0.00    +0.000 C 
ATOM      8  C   UNL     1      -1.646  12.252  19.723  0.00  0.00    +0.000 A 
ATOM      9  N   UNL     1      -0.685  12.961  19.123  0.00  0.00    +0.000 NA
ATOM     10  N   UNL     1       0.280  12.041  18.997  0.00  0.00    +0.000 N 
ATOM     11  C   UNL     1      -0.093  10.824  19.509  0.00  0.00    +0.000 A 
ATOM     12  N   UNL     1      -1.328  10.938  19.965  0.00  0.00    +0.000 NA
ATOM     13  H   UNL     1       1.161  12.309  18.577  0.00  0.00    +0.000 HD
ENDBRANCH   1  11
BRANCH   4  14
ATOM     14  N   UNL     1       3.105   6.094  19.616  0.00  0.00    +0.000 N 
ATOM     15  C   UNL     1       2.617   4.827  19.324  0.00  0.00    +0.000 C 
ATOM     16  O   UNL     1       1.463   4.546  19.006  0.00  0.00    +0.000 OA
ATOM     17  H   UNL     1       4.110   6.197  19.694  0.00  0.00    +0.000 HD
BRANCH  15  18
ATOM     18  C   UNL     1       3.679   3.740  19.361  0.00  0.00    +0.000 C 
BRANCH  18  19
ATOM     19  C   UNL     1       4.728   3.948  18.296  0.00  0.00    +0.000 A 
ATOM     20  C   UNL     1       4.444   3.651  16.950  0.00  0.00    +0.000 A 
ATOM     21  C   UNL     1       5.378   3.924  15.948  0.00  0.00    +0.000 A 
ATOM     22  C   UNL     1       6.604   4.480  16.289  0.00  0.00    +0.000 A 
ATOM     23  F   UNL     1       7.486   4.773  15.325  0.00  0.00    +0.000 F 
ATOM     24  C   UNL     1       6.909   4.739  17.619  0.00  0.00    +0.000 A 
ATOM     25  F   UNL     1       8.096   5.266  17.949  0.00  0.00    +0.000 F 
ATOM     26  C   UNL     1       5.984   4.471  18.626  0.00  0.00    +0.000 A 
ENDBRANCH  18  19
ENDBRANCH  15  18
ENDBRANCH   4  14
TORSDOF 4
ENDMDL
MODEL 5
REMARK VINA RESULT:      -7.6      0.975      1.033
REMARK  Name = 
REMARK  5 active torsions:
REMARK  status: ('A' for Active; 'I' for Inactive)
REMARK    1  A    between atoms: C_1  and  C_2
REMARK    2  A    between atoms: C_5  and  C_6
REMARK    3  A    between atoms: C_9  and  N_10
REMARK    4  A    between atoms: C_11  and  C_13
REMARK    5  A    between atoms: C_13  and  C_14
REMARK                            x       y       z     vdW  Elec       q    Type
REMARK                         _______ _______ _______ _____ _____    ______ ____
ROOT
ATOM      1  C   UNL     1       0.710   9.822  19.133  0.00  0.00    +0.000 A 
ATOM      2  C   UNL     1       1.272   9.427  17.913  0.00  0.00    +0.000 A 
ATOM      3  C   UNL     1       2.081   8.291  17.827  0.00  0.00    +0.000 A 
ATOM      4  C   UNL     1       2.358   7.520  18.955  0.00  0.00    +0.000 A 
ATOM      5  C   UNL     1       1.767   7.880  20.171  0.00  0.00    +0.000 A 
ATOM      6  C   UNL     1       0.956   9.024  20.259  0.00  0.00    +0.000 A 
ENDROOT
BRANCH   1  11
ATOM      7  C   UNL     1      -2.194  13.470  20.737  0.00  0.00    +0.000 C 
ATOM      8  C   UNL     1      -1.312  12.656  19.878  0.00  0.00    +0.000 A 
ATOM      9  N   UNL     1      -0.829  13.106  18.715  0.00  0.00    +0.000 NA
ATOM     10  N   UNL     1      -0.059  12.077  18.336  0.00  0.00    +0.000 N 
ATOM     11  C   UNL     1      -0.082  11.049  19.245  0.00  0.00    +0.000 A 
ATOM     12  N   UNL     1      -0.890  11.397  20.230  0.00  0.00    +0.000 NA
ATOM     13  H   UNL     1       0.460  12.147  17.470  0.00  0.00    +0.000 HD
ENDBRANCH   1  11
BRANCH   4  14
ATOM     14  N   UNL     1       3.212   6.396  18.922  0.00  0.00    +0.000 N 
ATOM     15  C   UNL     1       2.870   5.124  18.481  0.00  0.00    +0.000 C 
ATOM     16  O   UNL     1       1.784   4.781  18.018  0.00  0.00    +0.000 OA
ATOM     17  H   UNL     1       4.191   6.571  19.116  0.00  0.00    +0.000 HD
BRANCH  15  18
ATOM     18  C   UNL     1       4.014   4.125  18.551  0.00  0.00    +0.000 C 
BRANCH  18  19
ATOM     19  C   UNL     1       5.050   4.386  17.484  0.00  0.00    +0.000 A 
ATOM     20  C   UNL     1       5.037   3.650  16.285  0.00  0.00    +0.000 A 
ATOM     21  C   UNL     1       5.936   3.947  15.259  0.00  0.00    +0.000 A 
ATOM     22  C   UNL     1       6.860   4.970  15.433  0.00  0.00    +0.000 A 
ATOM     23  F   UNL     1       7.699   5.277  14.435  0.00  0.00    +0.000 F 
ATOM     24  C   UNL     1       6.906   5.675  16.629  0.00  0.00    +0.000 A 
ATOM     25  F   UNL     1       7.803   6.655  16.799  0.00  0.00    +0.000 F 
ATOM     26  C   UNL     1       6.013   5.388  17.659  0.00  0.00    +0.000 A 
ENDBRANCH  18  19
ENDBRANCH  15  18
ENDBRANCH   4  14
TORSDOF 4
ENDMDL
MODEL 6
REMARK VINA RESULT:      -7.6      6.246      7.261
REMARK  Name = 
REMARK  5 active torsions:
REMARK  status: ('A' for Active; 'I' for Inactive)
REMARK    1  A    between atoms: C_1  and  C_2
REMARK    2  A    between atoms: C_5  and  C_6
REMARK    3  A    between atoms: C_9  and  N_10
REMARK    4  A    between atoms: C_11  and  C_13
REMARK    5  A    between atoms: C_13  and  C_14
REMARK                            x       y       z     vdW  Elec       q    Type
REMARK                         _______ _______ _______ _____ _____    ______ ____
ROOT
ATOM      1  C   UNL     1       8.364   8.541  18.402  0.00  0.00    +0.000 A 
ATOM      2  C   UNL     1       8.566   7.401  19.188  0.00  0.00    +0.000 A 
ATOM      3  C   UNL     1       7.854   6.223  18.945  0.00  0.00    +0.000 A 
ATOM      4  C   UNL     1       6.918   6.149  17.915  0.00  0.00    +0.000 A 
ATOM      5  C   UNL     1       6.738   7.269  17.095  0.00  0.00    +0.000 A 
ATOM      6  C   UNL     1       7.451   8.455  17.342  0.00  0.00    +0.000 A 
ENDROOT
BRANCH   1  11
ATOM      7  C   UNL     1      10.407  13.018  18.095  0.00  0.00    +0.000 C 
ATOM      8  C   UNL     1       9.940  11.726  18.632  0.00  0.00    +0.000 A 
ATOM      9  N   UNL     1       9.969  11.438  19.937  0.00  0.00    +0.000 NA
ATOM     10  N   UNL     1       9.408  10.222  19.950  0.00  0.00    +0.000 N 
ATOM     11  C   UNL     1       9.054   9.800  18.693  0.00  0.00    +0.000 A 
ATOM     12  N   UNL     1       9.400  10.744  17.837  0.00  0.00    +0.000 NA
ATOM     13  H   UNL     1       9.282   9.750  20.837  0.00  0.00    +0.000 HD
ENDBRANCH   1  11
BRANCH   4  14
ATOM     14  N   UNL     1       6.140   4.997  17.670  0.00  0.00    +0.000 N 
ATOM     15  C   UNL     1       4.814   4.981  17.259  0.00  0.00    +0.000 C 
ATOM     16  O   UNL     1       4.116   5.961  17.008  0.00  0.00    +0.000 OA
ATOM     17  H   UNL     1       6.635   4.112  17.673  0.00  0.00    +0.000 HD
BRANCH  15  18
ATOM     18  C   UNL     1       4.252   3.581  17.061  0.00  0.00    +0.000 C 
BRANCH  18  19
ATOM     19  C   UNL     1       3.404   3.149  18.232  0.00  0.00    +0.000 A 
ATOM     20  C   UNL     1       3.972   3.021  19.513  0.00  0.00    +0.000 A 
ATOM     21  C   UNL     1       3.175   2.708  20.617  0.00  0.00    +0.000 A 
ATOM     22  C   UNL     1       1.812   2.509  20.442  0.00  0.00    +0.000 A 
ATOM     23  F   UNL     1       1.042   2.243  21.506  0.00  0.00    +0.000 F 
ATOM     24  C   UNL     1       1.249   2.594  19.175  0.00  0.00    +0.000 A 
ATOM     25  F   UNL     1      -0.064   2.392  19.005  0.00  0.00    +0.000 F 
ATOM     26  C   UNL     1       2.034   2.906  18.067  0.00  0.00    +0.000 A 
ENDBRANCH  18  19
ENDBRANCH  15  18
ENDBRANCH   4  14
TORSDOF 4
ENDMDL
MODEL 7
REMARK VINA RESULT:      -7.5      3.855      4.705
REMARK  Name = 
REMARK  5 active torsions:
REMARK  status: ('A' for Active; 'I' for Inactive)
REMARK    1  A    between atoms: C_1  and  C_2
REMARK    2  A    between atoms: C_5  and  C_6
REMARK    3  A    between atoms: C_9  and  N_10
REMARK    4  A    between atoms: C_11  and  C_13
REMARK    5  A    between atoms: C_13  and  C_14
REMARK                            x       y       z     vdW  Elec       q    Type
REMARK                         _______ _______ _______ _____ _____    ______ ____
ROOT
ATOM      1  C   UNL     1      -0.928  11.359  22.314  0.00  0.00    +0.000 A 
ATOM      2  C   UNL     1      -0.293  11.427  21.069  0.00  0.00    +0.000 A 
ATOM      3  C   UNL     1       0.532  10.390  20.624  0.00  0.00    +0.000 A 
ATOM      4  C   UNL     1       0.752   9.260  21.409  0.00  0.00    +0.000 A 
ATOM      5  C   UNL     1       0.088   9.161  22.637  0.00  0.00    +0.000 A 
ATOM      6  C   UNL     1      -0.739  10.205  23.087  0.00  0.00    +0.000 A 
ENDROOT
BRANCH   1  11
ATOM      7  C   UNL     1      -2.466  15.525  24.456  0.00  0.00    +0.000 C 
ATOM      8  C   UNL     1      -2.463  14.254  23.707  0.00  0.00    +0.000 A 
ATOM      9  N   UNL     1      -3.531  13.816  23.033  0.00  0.00    +0.000 NA
ATOM     10  N   UNL     1      -3.051  12.693  22.484  0.00  0.00    +0.000 N 
ATOM     11  C   UNL     1      -1.738  12.471  22.817  0.00  0.00    +0.000 A 
ATOM     12  N   UNL     1      -1.351  13.454  23.610  0.00  0.00    +0.000 NA
ATOM     13  H   UNL     1      -3.656  12.142  21.887  0.00  0.00    +0.000 HD
ENDBRANCH   1  11
BRANCH   4  14
ATOM     14  N   UNL     1       1.619   8.216  21.020  0.00  0.00    +0.000 N 
ATOM     15  C   UNL     1       1.982   7.900  19.718  0.00  0.00    +0.000 C 
ATOM     16  O   UNL     1       1.638   8.498  18.700  0.00  0.00    +0.000 OA
ATOM     17  H   UNL     1       2.114   7.742  21.767  0.00  0.00    +0.000 HD
BRANCH  15  18
ATOM     18  C   UNL     1       2.948   6.729  19.619  0.00  0.00    +0.000 C 
BRANCH  18  19
ATOM     19  C   UNL     1       2.225   5.428  19.371  0.00  0.00    +0.000 A 
ATOM     20  C   UNL     1       2.039   4.957  18.058  0.00  0.00    +0.000 A 
ATOM     21  C   UNL     1       1.449   3.713  17.825  0.00  0.00    +0.000 A 
ATOM     22  C   UNL     1       1.030   2.942  18.903  0.00  0.00    +0.000 A 
ATOM     23  F   UNL     1       0.496   1.734  18.680  0.00  0.00    +0.000 F 
ATOM     24  C   UNL     1       1.173   3.417  20.200  0.00  0.00    +0.000 A 
ATOM     25  F   UNL     1       0.760   2.677  21.238  0.00  0.00    +0.000 F 
ATOM     26  C   UNL     1       1.761   4.656  20.443  0.00  0.00    +0.000 A 
ENDBRANCH  18  19
ENDBRANCH  15  18
ENDBRANCH   4  14
TORSDOF 4
ENDMDL
MODEL 8
REMARK VINA RESULT:      -7.5      0.871      1.811
REMARK  Name = 
REMARK  5 active torsions:
REMARK  status: ('A' for Active; 'I' for Inactive)
REMARK    1  A    between atoms: C_1  and  C_2
REMARK    2  A    between atoms: C_5  and  C_6
REMARK    3  A    between atoms: C_9  and  N_10
REMARK    4  A    between atoms: C_11  and  C_13
REMARK    5  A    between atoms: C_13  and  C_14
REMARK                            x       y       z     vdW  Elec       q    Type
REMARK                         _______ _______ _______ _____ _____    ______ ____
ROOT
ATOM      1  C   UNL     1       1.122   9.855  19.004  0.00  0.00    +0.000 A 
ATOM      2  C   UNL     1       1.130   9.005  20.116  0.00  0.00    +0.000 A 
ATOM      3  C   UNL     1       1.846   7.805  20.099  0.00  0.00    +0.000 A 
ATOM      4  C   UNL     1       2.569   7.416  18.972  0.00  0.00    +0.000 A 
ATOM      5  C   UNL     1       2.604   8.279  17.871  0.00  0.00    +0.000 A 
ATOM      6  C   UNL     1       1.881   9.484  17.886  0.00  0.00    +0.000 A 
ENDROOT
BRANCH   1  11
ATOM      7  C   UNL     1      -0.377  14.552  19.077  0.00  0.00    +0.000 C 
ATOM      8  C   UNL     1      -0.391  13.079  19.000  0.00  0.00    +0.000 A 
ATOM      9  N   UNL     1      -1.488  12.387  18.675  0.00  0.00    +0.000 NA
ATOM     10  N   UNL     1      -1.017  11.134  18.677  0.00  0.00    +0.000 N 
ATOM     11  C   UNL     1       0.318  11.080  18.989  0.00  0.00    +0.000 A 
ATOM     12  N   UNL     1       0.731  12.315  19.213  0.00  0.00    +0.000 NA
ATOM     13  H   UNL     1      -1.644  10.374  18.442  0.00  0.00    +0.000 HD
ENDBRANCH   1  11
BRANCH   4  14
ATOM     14  N   UNL     1       3.262   6.188  18.894  0.00  0.00    +0.000 N 
ATOM     15  C   UNL     1       2.715   4.929  19.105  0.00  0.00    +0.000 C 
ATOM     16  O   UNL     1       1.538   4.678  19.357  0.00  0.00    +0.000 OA
ATOM     17  H   UNL     1       4.206   6.228  18.528  0.00  0.00    +0.000 HD
BRANCH  15  18
ATOM     18  C   UNL     1       3.712   3.793  18.933  0.00  0.00    +0.000 C 
BRANCH  18  19
ATOM     19  C   UNL     1       4.755   4.119  17.893  0.00  0.00    +0.000 A 
ATOM     20  C   UNL     1       6.070   4.438  18.279  0.00  0.00    +0.000 A 
ATOM     21  C   UNL     1       7.062   4.654  17.320  0.00  0.00    +0.000 A 
ATOM     22  C   UNL     1       6.739   4.567  15.972  0.00  0.00    +0.000 A 
ATOM     23  F   UNL     1       7.698   4.741  15.052  0.00  0.00    +0.000 F 
ATOM     24  C   UNL     1       5.435   4.293  15.580  0.00  0.00    +0.000 A 
ATOM     25  F   UNL     1       5.123   4.219  14.280  0.00  0.00    +0.000 F 
ATOM     26  C   UNL     1       4.439   4.075  16.529  0.00  0.00    +0.000 A 
ENDBRANCH  18  19
ENDBRANCH  15  18
ENDBRANCH   4  14
TORSDOF 4
ENDMDL
MODEL 9
REMARK VINA RESULT:      -7.4      5.878      7.027
REMARK  Name = 
REMARK  5 active torsions:
REMARK  status: ('A' for Active; 'I' for Inactive)
REMARK    1  A    between atoms: C_1  and  C_2
REMARK    2  A    between atoms: C_5  and  C_6
REMARK    3  A    between atoms: C_9  and  N_10
REMARK    4  A    between atoms: C_11  and  C_13
REMARK    5  A    between atoms: C_13  and  C_14
REMARK                            x       y       z     vdW  Elec       q    Type
REMARK                         _______ _______ _______ _____ _____    ______ ____
ROOT
ATOM      1  C   UNL     1       8.010   8.250  18.211  0.00  0.00    +0.000 A 
ATOM      2  C   UNL     1       8.298   7.049  18.870  0.00  0.00    +0.000 A 
ATOM      3  C   UNL     1       7.491   5.922  18.695  0.00  0.00    +0.000 A 
ATOM      4  C   UNL     1       6.373   5.960  17.864  0.00  0.00    +0.000 A 
ATOM      5  C   UNL     1       6.100   7.143  17.167  0.00  0.00    +0.000 A 
ATOM      6  C   UNL     1       6.909   8.279  17.345  0.00  0.00    +0.000 A 
ENDROOT
BRANCH   1  11
ATOM      7  C   UNL     1      10.214  12.641  17.787  0.00  0.00    +0.000 C 
ATOM      8  C   UNL     1       9.776  11.340  18.329  0.00  0.00    +0.000 A 
ATOM      9  N   UNL     1      10.016  10.971  19.591  0.00  0.00    +0.000 NA
ATOM     10  N   UNL     1       9.400   9.783  19.638  0.00  0.00    +0.000 N 
ATOM     11  C   UNL     1       8.810   9.456  18.443  0.00  0.00    +0.000 A 
ATOM     12  N   UNL     1       9.053  10.436  17.590  0.00  0.00    +0.000 NA
ATOM     13  H   UNL     1       9.404   9.263  20.506  0.00  0.00    +0.000 HD
ENDBRANCH   1  11
BRANCH   4  14
ATOM     14  N   UNL     1       5.503   4.861  17.701  0.00  0.00    +0.000 N 
ATOM     15  C   UNL     1       5.466   4.005  16.607  0.00  0.00    +0.000 C 
ATOM     16  O   UNL     1       6.204   4.045  15.625  0.00  0.00    +0.000 OA
ATOM     17  H   UNL     1       4.950   4.602  18.510  0.00  0.00    +0.000 HD
BRANCH  15  18
ATOM     18  C   UNL     1       4.428   2.900  16.731  0.00  0.00    +0.000 C 
BRANCH  18  19
ATOM     19  C   UNL     1       3.513   3.123  17.910  0.00  0.00    +0.000 A 
ATOM     20  C   UNL     1       2.274   3.767  17.737  0.00  0.00    +0.000 A 
ATOM     21  C   UNL     1       1.384   3.898  18.805  0.00  0.00    +0.000 A 
ATOM     22  C   UNL     1       1.736   3.399  20.053  0.00  0.00    +0.000 A 
ATOM     23  F   UNL     1       0.868   3.495  21.070  0.00  0.00    +0.000 F 
ATOM     24  C   UNL     1       2.974   2.799  20.243  0.00  0.00    +0.000 A 
ATOM     25  F   UNL     1       3.317   2.327  21.449  0.00  0.00    +0.000 F 
ATOM     26  C   UNL     1       3.868   2.662  19.184  0.00  0.00    +0.000 A 
ENDBRANCH  18  19
ENDBRANCH  15  18
ENDBRANCH   4  14
TORSDOF 4
ENDMDL
