MODEL 1
REMARK VINA RESULT:      -9.2      0.000      0.000
REMARK  Name = 
REMARK  4 active torsions:
REMARK  status: ('A' for Active; 'I' for Inactive)
REMARK    1  A    between atoms: C_2  and  C_3
REMARK    2  A    between atoms: C_6  and  N_7
REMARK    3  A    between atoms: C_8  and  C_10
REMARK    4  A    between atoms: C_10  and  C_11
REMARK                            x       y       z     vdW  Elec       q    Type
REMARK                         _______ _______ _______ _____ _____    ______ ____
ROOT
ATOM      1  C   UNL     1       0.821   9.694  19.357  0.00  0.00    +0.000 A 
ATOM      2  C   UNL     1       1.035   8.874  20.460  0.00  0.00    +0.000 A 
ATOM      3  C   UNL     1       1.740   7.680  20.319  0.00  0.00    +0.000 A 
ATOM      4  C   UNL     1       2.336   7.326  19.106  0.00  0.00    +0.000 A 
ATOM      5  C   UNL     1       2.220   8.214  18.027  0.00  0.00    +0.000 A 
ATOM      6  C   UNL     1       1.462   9.393  18.150  0.00  0.00    +0.000 A 
ENDROOT
BRANCH   1   8
ATOM      7  O   UNL     1      -1.235  10.751  19.168  0.00  0.00    +0.000 OA
ATOM      8  C   UNL     1      -0.051  10.892  19.474  0.00  0.00    +0.000 C 
ATOM      9  N   UNL     1       0.493  12.112  19.921  0.00  0.00    +0.000 N 
ATOM     10  C   UNL     1      -0.395  13.277  19.995  0.00  0.00    +0.000 C 
ATOM     11  C   UNL     1      -0.244  14.197  18.784  0.00  0.00    +0.000 C 
ATOM     12  C   UNL     1       1.096  14.926  18.666  0.00  0.00    +0.000 C 
ATOM     13  C   UNL     1       2.335  14.036  18.756  0.00  0.00    +0.000 C 
ATOM     14  C   UNL     1       2.578  13.526  20.176  0.00  0.00    +0.000 C 
ATOM     15  C   UNL     1       1.804  12.265  20.564  0.00  0.00    +0.000 C 
ENDBRANCH   1   8
BRANCH   4  16
ATOM     16  N   UNL     1       3.064   6.125  18.933  0.00  0.00    +0.000 N 
ATOM     17  C   UNL     1       2.608   4.984  18.283  0.00  0.00    +0.000 C 
ATOM     18  O   UNL     1       1.511   4.898  17.717  0.00  0.00    +0.000 OA
ATOM     19  H   UNL     1       4.019   6.113  19.275  0.00  0.00    +0.000 HD
BRANCH  17  20
ATOM     20  C   UNL     1       3.593   3.753  18.269  0.00  0.00    +0.000 C 
ATOM     21  C   UNL     1       2.849   2.415  17.859  0.00  0.00    +0.000 C 
ATOM     22  C   UNL     1       3.698   1.679  18.899  0.00  0.00    +0.000 C 
ATOM     23  C   UNL     1       3.857   3.024  19.633  0.00  0.00    +0.000 C 
BRANCH  20  24
ATOM     24  C   UNL     1       4.844   4.175  17.329  0.00  0.00    +0.000 A 
ATOM     25  C   UNL     1       6.098   4.499  17.901  0.00  0.00    +0.000 A 
ATOM     26  C   UNL     1       7.231   4.783  17.130  0.00  0.00    +0.000 A 
ATOM     27  C   UNL     1       7.141   4.770  15.746  0.00  0.00    +0.000 A 
ATOM     28  C   UNL     1       5.920   4.489  15.153  0.00  0.00    +0.000 A 
ATOM     29  F   UNL     1       5.822   4.477  13.817  0.00  0.00    +0.000 F 
ATOM     30  C   UNL     1       4.791   4.197  15.921  0.00  0.00    +0.000 A 
ENDBRANCH  20  24
ENDBRANCH  17  20
ENDBRANCH   4  16
TORSDOF 4
ENDMDL
MODEL 2
REMARK VINA RESULT:      -9.2      1.644      2.596
REMARK  Name = 
REMARK  4 active torsions:
REMARK  status: ('A' for Active; 'I' for Inactive)
REMARK    1  A    between atoms: C_2  and  C_3
REMARK    2  A    between atoms: C_6  and  N_7
REMARK    3  A    between atoms: C_8  and  C_10
REMARK    4  A    between atoms: C_10  and  C_11
REMARK                            x       y       z     vdW  Elec       q    Type
REMARK                         _______ _______ _______ _____ _____    ______ ____
ROOT
ATOM      1  C   UNL     1       0.953   9.684  19.237  0.00  0.00    +0.000 A 
ATOM      2  C   UNL     1       1.061   8.822  20.324  0.00  0.00    +0.000 A 
ATOM      3  C   UNL     1       1.739   7.612  20.194  0.00  0.00    +0.000 A 
ATOM      4  C   UNL     1       2.414   7.278  19.017  0.00  0.00    +0.000 A 
ATOM      5  C   UNL     1       2.404   8.203  17.963  0.00  0.00    +0.000 A 
ATOM      6  C   UNL     1       1.673   9.401  18.070  0.00  0.00    +0.000 A 
ENDROOT
BRANCH   1   8
ATOM      7  O   UNL     1       0.371  11.693  20.239  0.00  0.00    +0.000 OA
ATOM      8  C   UNL     1       0.110  10.904  19.331  0.00  0.00    +0.000 C 
ATOM      9  N   UNL     1      -0.928  11.110  18.401  0.00  0.00    +0.000 N 
ATOM     10  C   UNL     1      -1.755  12.313  18.547  0.00  0.00    +0.000 C 
ATOM     11  C   UNL     1      -3.081  12.022  19.249  0.00  0.00    +0.000 C 
ATOM     12  C   UNL     1      -4.066  11.147  18.471  0.00  0.00    +0.000 C 
ATOM     13  C   UNL     1      -3.497   9.830  17.944  0.00  0.00    +0.000 C 
ATOM     14  C   UNL     1      -2.543  10.042  16.770  0.00  0.00    +0.000 C 
ATOM     15  C   UNL     1      -1.096  10.365  17.148  0.00  0.00    +0.000 C 
ENDBRANCH   1   8
BRANCH   4  16
ATOM     16  N   UNL     1       3.117   6.061  18.857  0.00  0.00    +0.000 N 
ATOM     17  C   UNL     1       2.629   4.914  18.243  0.00  0.00    +0.000 C 
ATOM     18  O   UNL     1       1.519   4.834  17.701  0.00  0.00    +0.000 OA
ATOM     19  H   UNL     1       4.078   6.040  19.180  0.00  0.00    +0.000 HD
BRANCH  17  20
ATOM     20  C   UNL     1       3.592   3.666  18.238  0.00  0.00    +0.000 C 
ATOM     21  C   UNL     1       2.849   2.357  17.738  0.00  0.00    +0.000 C 
ATOM     22  C   UNL     1       3.627   1.569  18.795  0.00  0.00    +0.000 C 
ATOM     23  C   UNL     1       3.767   2.883  19.586  0.00  0.00    +0.000 C 
BRANCH  20  24
ATOM     24  C   UNL     1       4.899   4.098  17.384  0.00  0.00    +0.000 A 
ATOM     25  C   UNL     1       6.116   4.412  18.037  0.00  0.00    +0.000 A 
ATOM     26  C   UNL     1       7.295   4.703  17.342  0.00  0.00    +0.000 A 
ATOM     27  C   UNL     1       7.292   4.709  15.955  0.00  0.00    +0.000 A 
ATOM     28  C   UNL     1       6.110   4.439  15.283  0.00  0.00    +0.000 A 
ATOM     29  F   UNL     1       6.096   4.446  13.944  0.00  0.00    +0.000 F 
ATOM     30  C   UNL     1       4.935   4.139  15.976  0.00  0.00    +0.000 A 
ENDBRANCH  20  24
ENDBRANCH  17  20
ENDBRANCH   4  16
TORSDOF 4
ENDMDL
MODEL 3
REMARK VINA RESULT:      -9.1      0.967      1.311
REMARK  Name = 
REMARK  4 active torsions:
REMARK  status: ('A' for Active; 'I' for Inactive)
REMARK    1  A    between atoms: C_2  and  C_3
REMARK    2  A    between atoms: C_6  and  N_7
REMARK    3  A    between atoms: C_8  and  C_10
REMARK    4  A    between atoms: C_10  and  C_11
REMARK                            x       y       z     vdW  Elec       q    Type
REMARK                         _______ _______ _______ _____ _____    ______ ____
ROOT
ATOM      1  C   UNL     1       0.784   9.718  19.398  0.00  0.00    +0.000 A 
ATOM      2  C   UNL     1       0.997   8.886  20.492  0.00  0.00    +0.000 A 
ATOM      3  C   UNL     1       1.684   7.684  20.335  0.00  0.00    +0.000 A 
ATOM      4  C   UNL     1       2.264   7.332  19.114  0.00  0.00    +0.000 A 
ATOM      5  C   UNL     1       2.150   8.230  18.043  0.00  0.00    +0.000 A 
ATOM      6  C   UNL     1       1.410   9.418  18.182  0.00  0.00    +0.000 A 
ENDROOT
BRANCH   1   8
ATOM      7  O   UNL     1      -1.263  10.799  19.259  0.00  0.00    +0.000 OA
ATOM      8  C   UNL     1      -0.070  10.927  19.533  0.00  0.00    +0.000 C 
ATOM      9  N   UNL     1       0.500  12.142  19.961  0.00  0.00    +0.000 N 
ATOM     10  C   UNL     1      -0.372  13.318  20.052  0.00  0.00    +0.000 C 
ATOM     11  C   UNL     1      -0.242  14.232  18.834  0.00  0.00    +0.000 C 
ATOM     12  C   UNL     1       1.103  14.944  18.678  0.00  0.00    +0.000 C 
ATOM     13  C   UNL     1       2.334  14.039  18.740  0.00  0.00    +0.000 C 
ATOM     14  C   UNL     1       2.607  13.532  20.155  0.00  0.00    +0.000 C 
ATOM     15  C   UNL     1       1.828  12.281  20.568  0.00  0.00    +0.000 C 
ENDBRANCH   1   8
BRANCH   4  16
ATOM     16  N   UNL     1       2.974   6.122  18.925  0.00  0.00    +0.000 N 
ATOM     17  C   UNL     1       2.503   4.999  18.254  0.00  0.00    +0.000 C 
ATOM     18  O   UNL     1       1.408   4.940  17.681  0.00  0.00    +0.000 OA
ATOM     19  H   UNL     1       3.927   6.089  19.270  0.00  0.00    +0.000 HD
BRANCH  17  20
ATOM     20  C   UNL     1       3.469   3.754  18.224  0.00  0.00    +0.000 C 
ATOM     21  C   UNL     1       2.762   2.482  17.594  0.00  0.00    +0.000 C 
ATOM     22  C   UNL     1       3.476   1.624  18.642  0.00  0.00    +0.000 C 
ATOM     23  C   UNL     1       3.563   2.882  19.526  0.00  0.00    +0.000 C 
BRANCH  20  24
ATOM     24  C   UNL     1       4.825   4.240  17.483  0.00  0.00    +0.000 A 
ATOM     25  C   UNL     1       4.887   4.317  16.070  0.00  0.00    +0.000 A 
ATOM     26  C   UNL     1       6.002   4.813  15.387  0.00  0.00    +0.000 A 
ATOM     27  C   UNL     1       7.114   5.237  16.102  0.00  0.00    +0.000 A 
ATOM     28  C   UNL     1       7.099   5.145  17.485  0.00  0.00    +0.000 A 
ATOM     29  F   UNL     1       8.169   5.548  18.184  0.00  0.00    +0.000 F 
ATOM     30  C   UNL     1       5.984   4.657  18.168  0.00  0.00    +0.000 A 
ENDBRANCH  20  24
ENDBRANCH  17  20
ENDBRANCH   4  16
TORSDOF 4
ENDMDL
MODEL 4
REMARK VINA RESULT:      -9.0      1.858      2.842
REMARK  Name = 
REMARK  4 active torsions:
REMARK  status: ('A' for Active; 'I' for Inactive)
REMARK    1  A    between atoms: C_2  and  C_3
REMARK    2  A    between atoms: C_6  and  N_7
REMARK    3  A    between atoms: C_8  and  C_10
REMARK    4  A    between atoms: C_10  and  C_11
REMARK                            x       y       z     vdW  Elec       q    Type
REMARK                         _______ _______ _______ _____ _____    ______ ____
ROOT
ATOM      1  C   UNL     1       0.928   9.655  19.454  0.00  0.00    +0.000 A 
ATOM      2  C   UNL     1       1.047   8.782  20.530  0.00  0.00    +0.000 A 
ATOM      3  C   UNL     1       1.696   7.559  20.372  0.00  0.00    +0.000 A 
ATOM      4  C   UNL     1       2.332   7.222  19.175  0.00  0.00    +0.000 A 
ATOM      5  C   UNL     1       2.314   8.156  18.129  0.00  0.00    +0.000 A 
ATOM      6  C   UNL     1       1.611   9.368  18.266  0.00  0.00    +0.000 A 
ENDROOT
BRANCH   1   8
ATOM      7  O   UNL     1       0.346  11.616  20.548  0.00  0.00    +0.000 OA
ATOM      8  C   UNL     1       0.113  10.892  19.580  0.00  0.00    +0.000 C 
ATOM      9  N   UNL     1      -0.868  11.184  18.613  0.00  0.00    +0.000 N 
ATOM     10  C   UNL     1      -1.670  12.400  18.791  0.00  0.00    +0.000 C 
ATOM     11  C   UNL     1      -3.039  12.105  19.404  0.00  0.00    +0.000 C 
ATOM     12  C   UNL     1      -4.004  11.309  18.525  0.00  0.00    +0.000 C 
ATOM     13  C   UNL     1      -3.443  10.010  17.947  0.00  0.00    +0.000 C 
ATOM     14  C   UNL     1      -2.423  10.264  16.838  0.00  0.00    +0.000 C 
ATOM     15  C   UNL     1      -0.989  10.522  17.309  0.00  0.00    +0.000 C 
ENDBRANCH   1   8
BRANCH   4  16
ATOM     16  N   UNL     1       3.005   5.992  18.987  0.00  0.00    +0.000 N 
ATOM     17  C   UNL     1       2.517   4.897  18.284  0.00  0.00    +0.000 C 
ATOM     18  O   UNL     1       1.437   4.884  17.680  0.00  0.00    +0.000 OA
ATOM     19  H   UNL     1       3.946   5.921  19.359  0.00  0.00    +0.000 HD
BRANCH  17  20
ATOM     20  C   UNL     1       3.440   3.619  18.262  0.00  0.00    +0.000 C 
ATOM     21  C   UNL     1       2.700   2.375  17.614  0.00  0.00    +0.000 C 
ATOM     22  C   UNL     1       3.369   1.488  18.668  0.00  0.00    +0.000 C 
ATOM     23  C   UNL     1       3.486   2.738  19.560  0.00  0.00    +0.000 C 
BRANCH  20  24
ATOM     24  C   UNL     1       4.823   4.063  17.544  0.00  0.00    +0.000 A 
ATOM     25  C   UNL     1       4.915   4.120  16.132  0.00  0.00    +0.000 A 
ATOM     26  C   UNL     1       6.057   4.580  15.466  0.00  0.00    +0.000 A 
ATOM     27  C   UNL     1       7.163   4.986  16.199  0.00  0.00    +0.000 A 
ATOM     28  C   UNL     1       7.118   4.913  17.582  0.00  0.00    +0.000 A 
ATOM     29  F   UNL     1       8.183   5.299  18.298  0.00  0.00    +0.000 F 
ATOM     30  C   UNL     1       5.977   4.461  18.248  0.00  0.00    +0.000 A 
ENDBRANCH  20  24
ENDBRANCH  17  20
ENDBRANCH   4  16
TORSDOF 4
ENDMDL
MODEL 5
REMARK VINA RESULT:      -8.8      1.427      2.500
REMARK  Name = 
REMARK  4 active torsions:
REMARK  status: ('A' for Active; 'I' for Inactive)
REMARK    1  A    between atoms: C_2  and  C_3
REMARK    2  A    between atoms: C_6  and  N_7
REMARK    3  A    between atoms: C_8  and  C_10
REMARK    4  A    between atoms: C_10  and  C_11
REMARK                            x       y       z     vdW  Elec       q    Type
REMARK                         _______ _______ _______ _____ _____    ______ ____
ROOT
ATOM      1  C   UNL     1       1.035   9.570  19.504  0.00  0.00    +0.000 A 
ATOM      2  C   UNL     1       1.528   9.282  18.235  0.00  0.00    +0.000 A 
ATOM      3  C   UNL     1       2.247   8.109  18.014  0.00  0.00    +0.000 A 
ATOM      4  C   UNL     1       2.401   7.149  19.017  0.00  0.00    +0.000 A 
ATOM      5  C   UNL     1       1.800   7.389  20.261  0.00  0.00    +0.000 A 
ATOM      6  C   UNL     1       1.122   8.597  20.506  0.00  0.00    +0.000 A 
ENDROOT
BRANCH   1   8
ATOM      7  O   UNL     1       0.778  11.493  20.775  0.00  0.00    +0.000 OA
ATOM      8  C   UNL     1       0.395  10.884  19.777  0.00  0.00    +0.000 C 
ATOM      9  N   UNL     1      -0.598  11.373  18.905  0.00  0.00    +0.000 N 
ATOM     10  C   UNL     1      -1.225  12.660  19.227  0.00  0.00    +0.000 C 
ATOM     11  C   UNL     1      -2.579  12.488  19.914  0.00  0.00    +0.000 C 
ATOM     12  C   UNL     1      -3.691  11.891  19.049  0.00  0.00    +0.000 C 
ATOM     13  C   UNL     1      -3.338  10.583  18.340  0.00  0.00    +0.000 C 
ATOM     14  C   UNL     1      -2.364  10.799  17.184  0.00  0.00    +0.000 C 
ATOM     15  C   UNL     1      -0.883  10.838  17.569  0.00  0.00    +0.000 C 
ENDBRANCH   1   8
BRANCH   4  16
ATOM     16  N   UNL     1       3.119   5.945  18.820  0.00  0.00    +0.000 N 
ATOM     17  C   UNL     1       2.609   4.775  18.270  0.00  0.00    +0.000 C 
ATOM     18  O   UNL     1       1.460   4.659  17.825  0.00  0.00    +0.000 OA
ATOM     19  H   UNL     1       4.104   5.953  19.061  0.00  0.00    +0.000 HD
BRANCH  17  20
ATOM     20  C   UNL     1       3.598   3.550  18.206  0.00  0.00    +0.000 C 
ATOM     21  C   UNL     1       2.874   2.241  17.681  0.00  0.00    +0.000 C 
ATOM     22  C   UNL     1       3.691   1.438  18.697  0.00  0.00    +0.000 C 
ATOM     23  C   UNL     1       3.819   2.729  19.525  0.00  0.00    +0.000 C 
BRANCH  20  24
ATOM     24  C   UNL     1       4.878   4.037  17.340  0.00  0.00    +0.000 A 
ATOM     25  C   UNL     1       6.090   4.392  17.982  0.00  0.00    +0.000 A 
ATOM     26  C   UNL     1       7.249   4.733  17.276  0.00  0.00    +0.000 A 
ATOM     27  C   UNL     1       7.229   4.749  15.889  0.00  0.00    +0.000 A 
ATOM     28  C   UNL     1       6.050   4.439  15.229  0.00  0.00    +0.000 A 
ATOM     29  F   UNL     1       6.020   4.456  13.890  0.00  0.00    +0.000 F 
ATOM     30  C   UNL     1       4.895   4.091  15.932  0.00  0.00    +0.000 A 
ENDBRANCH  20  24
ENDBRANCH  17  20
ENDBRANCH   4  16
TORSDOF 4
ENDMDL
MODEL 6
REMARK VINA RESULT:      -8.7      1.365      1.874
REMARK  Name = 
REMARK  4 active torsions:
REMARK  status: ('A' for Active; 'I' for Inactive)
REMARK    1  A    between atoms: C_2  and  C_3
REMARK    2  A    between atoms: C_6  and  N_7
REMARK    3  A    between atoms: C_8  and  C_10
REMARK    4  A    between atoms: C_10  and  C_11
REMARK                            x       y       z     vdW  Elec       q    Type
REMARK                         _______ _______ _______ _____ _____    ______ ____
ROOT
ATOM      1  C   UNL     1       0.532  10.034  19.543  0.00  0.00    +0.000 A 
ATOM      2  C   UNL     1       1.063   9.713  18.298  0.00  0.00    +0.000 A 
ATOM      3  C   UNL     1       1.884   8.596  18.153  0.00  0.00    +0.000 A 
ATOM      4  C   UNL     1       2.109   7.716  19.215  0.00  0.00    +0.000 A 
ATOM      5  C   UNL     1       1.475   7.978  20.438  0.00  0.00    +0.000 A 
ATOM      6  C   UNL     1       0.692   9.135  20.604  0.00  0.00    +0.000 A 
ENDROOT
BRANCH   1   8
ATOM      7  O   UNL     1      -1.440  11.255  19.556  0.00  0.00    +0.000 OA
ATOM      8  C   UNL     1      -0.222  11.301  19.729  0.00  0.00    +0.000 C 
ATOM      9  N   UNL     1       0.464  12.477  20.090  0.00  0.00    +0.000 N 
ATOM     10  C   UNL     1      -0.314  13.712  20.236  0.00  0.00    +0.000 C 
ATOM     11  C   UNL     1      -0.222  14.603  18.998  0.00  0.00    +0.000 C 
ATOM     12  C   UNL     1       1.152  15.218  18.722  0.00  0.00    +0.000 C 
ATOM     13  C   UNL     1       2.317  14.229  18.695  0.00  0.00    +0.000 C 
ATOM     14  C   UNL     1       2.672  13.717  20.089  0.00  0.00    +0.000 C 
ATOM     15  C   UNL     1       1.845  12.528  20.584  0.00  0.00    +0.000 C 
ENDBRANCH   1   8
BRANCH   4  16
ATOM     16  N   UNL     1       2.930   6.570  19.098  0.00  0.00    +0.000 N 
ATOM     17  C   UNL     1       2.579   5.377  18.476  0.00  0.00    +0.000 C 
ATOM     18  O   UNL     1       1.506   5.190  17.889  0.00  0.00    +0.000 OA
ATOM     19  H   UNL     1       3.875   6.642  19.461  0.00  0.00    +0.000 HD
BRANCH  17  20
ATOM     20  C   UNL     1       3.655   4.227  18.525  0.00  0.00    +0.000 C 
ATOM     21  C   UNL     1       3.171   2.941  17.733  0.00  0.00    +0.000 C 
ATOM     22  C   UNL     1       3.809   2.083  18.828  0.00  0.00    +0.000 C 
ATOM     23  C   UNL     1       3.648   3.284  19.779  0.00  0.00    +0.000 C 
BRANCH  20  24
ATOM     24  C   UNL     1       5.049   4.878  18.018  0.00  0.00    +0.000 A 
ATOM     25  C   UNL     1       5.224   5.238  16.659  0.00  0.00    +0.000 A 
ATOM     26  C   UNL     1       6.374   5.884  16.189  0.00  0.00    +0.000 A 
ATOM     27  C   UNL     1       7.406   6.176  17.069  0.00  0.00    +0.000 A 
ATOM     28  C   UNL     1       7.281   5.807  18.400  0.00  0.00    +0.000 A 
ATOM     29  F   UNL     1       8.274   6.082  19.256  0.00  0.00    +0.000 F 
ATOM     30  C   UNL     1       6.131   5.171  18.871  0.00  0.00    +0.000 A 
ENDBRANCH  20  24
ENDBRANCH  17  20
ENDBRANCH   4  16
TORSDOF 4
ENDMDL
MODEL 7
REMARK VINA RESULT:      -8.7      5.640      9.588
REMARK  Name = 
REMARK  4 active torsions:
REMARK  status: ('A' for Active; 'I' for Inactive)
REMARK    1  A    between atoms: C_2  and  C_3
REMARK    2  A    between atoms: C_6  and  N_7
REMARK    3  A    between atoms: C_8  and  C_10
REMARK    4  A    between atoms: C_10  and  C_11
REMARK                            x       y       z     vdW  Elec       q    Type
REMARK                         _______ _______ _______ _____ _____    ______ ____
ROOT
ATOM      1  C   UNL     1       6.719   6.116  17.868  0.00  0.00    +0.000 A 
ATOM      2  C   UNL     1       7.763   6.235  18.779  0.00  0.00    +0.000 A 
ATOM      3  C   UNL     1       8.517   7.406  18.831  0.00  0.00    +0.000 A 
ATOM      4  C   UNL     1       8.185   8.520  18.056  0.00  0.00    +0.000 A 
ATOM      5  C   UNL     1       7.058   8.437  17.225  0.00  0.00    +0.000 A 
ATOM      6  C   UNL     1       6.329   7.238  17.128  0.00  0.00    +0.000 A 
ENDROOT
BRANCH   1   8
ATOM      7  O   UNL     1       6.512   3.998  16.945  0.00  0.00    +0.000 OA
ATOM      8  C   UNL     1       6.008   4.819  17.710  0.00  0.00    +0.000 C 
ATOM      9  N   UNL     1       4.817   4.584  18.424  0.00  0.00    +0.000 N 
ATOM     10  C   UNL     1       4.132   3.303  18.218  0.00  0.00    +0.000 C 
ATOM     11  C   UNL     1       2.964   3.423  17.239  0.00  0.00    +0.000 C 
ATOM     12  C   UNL     1       1.775   4.255  17.723  0.00  0.00    +0.000 C 
ATOM     13  C   UNL     1       2.120   5.652  18.239  0.00  0.00    +0.000 C 
ATOM     14  C   UNL     1       2.820   5.609  19.596  0.00  0.00    +0.000 C 
ATOM     15  C   UNL     1       4.335   5.394  19.549  0.00  0.00    +0.000 C 
ENDBRANCH   1   8
BRANCH   4  16
ATOM     16  N   UNL     1       8.926   9.725  18.092  0.00  0.00    +0.000 N 
ATOM     17  C   UNL     1       9.229  10.460  19.233  0.00  0.00    +0.000 C 
ATOM     18  O   UNL     1       8.930  10.114  20.382  0.00  0.00    +0.000 OA
ATOM     19  H   UNL     1       9.307  10.057  17.213  0.00  0.00    +0.000 HD
BRANCH  17  20
ATOM     20  C   UNL     1      10.025  11.801  19.002  0.00  0.00    +0.000 C 
ATOM     21  C   UNL     1      11.011  11.689  17.765  0.00  0.00    +0.000 C 
ATOM     22  C   UNL     1      12.028  12.510  18.562  0.00  0.00    +0.000 C 
ATOM     23  C   UNL     1      11.331  12.019  19.844  0.00  0.00    +0.000 C 
BRANCH  20  24
ATOM     24  C   UNL     1       8.920  12.983  18.913  0.00  0.00    +0.000 A 
ATOM     25  C   UNL     1       8.169  13.179  17.729  0.00  0.00    +0.000 A 
ATOM     26  C   UNL     1       7.144  14.127  17.631  0.00  0.00    +0.000 A 
ATOM     27  C   UNL     1       6.846  14.932  18.721  0.00  0.00    +0.000 A 
ATOM     28  C   UNL     1       7.584  14.788  19.886  0.00  0.00    +0.000 A 
ATOM     29  F   UNL     1       7.305  15.563  20.942  0.00  0.00    +0.000 F 
ATOM     30  C   UNL     1       8.601  13.838  19.987  0.00  0.00    +0.000 A 
ENDBRANCH  20  24
ENDBRANCH  17  20
ENDBRANCH   4  16
TORSDOF 4
ENDMDL
MODEL 8
REMARK VINA RESULT:      -8.7      5.519      9.516
REMARK  Name = 
REMARK  4 active torsions:
REMARK  status: ('A' for Active; 'I' for Inactive)
REMARK    1  A    between atoms: C_2  and  C_3
REMARK    2  A    between atoms: C_6  and  N_7
REMARK    3  A    between atoms: C_8  and  C_10
REMARK    4  A    between atoms: C_10  and  C_11
REMARK                            x       y       z     vdW  Elec       q    Type
REMARK                         _______ _______ _______ _____ _____    ______ ____
ROOT
ATOM      1  C   UNL     1       6.726   6.117  17.893  0.00  0.00    +0.000 A 
ATOM      2  C   UNL     1       7.773   6.217  18.803  0.00  0.00    +0.000 A 
ATOM      3  C   UNL     1       8.535   7.382  18.868  0.00  0.00    +0.000 A 
ATOM      4  C   UNL     1       8.210   8.508  18.110  0.00  0.00    +0.000 A 
ATOM      5  C   UNL     1       7.080   8.445  17.281  0.00  0.00    +0.000 A 
ATOM      6  C   UNL     1       6.342   7.252  17.169  0.00  0.00    +0.000 A 
ENDROOT
BRANCH   1   8
ATOM      7  O   UNL     1       6.509   4.008  16.952  0.00  0.00    +0.000 OA
ATOM      8  C   UNL     1       6.006   4.828  17.720  0.00  0.00    +0.000 C 
ATOM      9  N   UNL     1       4.807   4.596  18.423  0.00  0.00    +0.000 N 
ATOM     10  C   UNL     1       4.113   3.323  18.201  0.00  0.00    +0.000 C 
ATOM     11  C   UNL     1       2.954   3.460  17.214  0.00  0.00    +0.000 C 
ATOM     12  C   UNL     1       1.768   4.298  17.695  0.00  0.00    +0.000 C 
ATOM     13  C   UNL     1       2.121   5.688  18.224  0.00  0.00    +0.000 C 
ATOM     14  C   UNL     1       2.810   5.629  19.586  0.00  0.00    +0.000 C 
ATOM     15  C   UNL     1       4.323   5.402  19.549  0.00  0.00    +0.000 C 
ENDBRANCH   1   8
BRANCH   4  16
ATOM     16  N   UNL     1       8.958   9.707  18.160  0.00  0.00    +0.000 N 
ATOM     17  C   UNL     1       9.267  10.426  19.309  0.00  0.00    +0.000 C 
ATOM     18  O   UNL     1       8.967  10.068  20.454  0.00  0.00    +0.000 OA
ATOM     19  H   UNL     1       9.341  10.048  17.285  0.00  0.00    +0.000 HD
BRANCH  17  20
ATOM     20  C   UNL     1      10.073  11.764  19.095  0.00  0.00    +0.000 C 
ATOM     21  C   UNL     1      10.915  11.730  17.752  0.00  0.00    +0.000 C 
ATOM     22  C   UNL     1      12.036  12.464  18.492  0.00  0.00    +0.000 C 
ATOM     23  C   UNL     1      11.468  11.889  19.802  0.00  0.00    +0.000 C 
BRANCH  20  24
ATOM     24  C   UNL     1       9.000  12.972  19.217  0.00  0.00    +0.000 A 
ATOM     25  C   UNL     1       8.749  13.590  20.466  0.00  0.00    +0.000 A 
ATOM     26  C   UNL     1       7.900  14.693  20.608  0.00  0.00    +0.000 A 
ATOM     27  C   UNL     1       7.251  15.209  19.495  0.00  0.00    +0.000 A 
ATOM     28  C   UNL     1       7.448  14.607  18.262  0.00  0.00    +0.000 A 
ATOM     29  F   UNL     1       6.822  15.095  17.183  0.00  0.00    +0.000 F 
ATOM     30  C   UNL     1       8.301  13.511  18.118  0.00  0.00    +0.000 A 
ENDBRANCH  20  24
ENDBRANCH  17  20
ENDBRANCH   4  16
TORSDOF 4
ENDMDL
MODEL 9
REMARK VINA RESULT:      -8.7      0.892      1.051
REMARK  Name = 
REMARK  4 active torsions:
REMARK  status: ('A' for Active; 'I' for Inactive)
REMARK    1  A    between atoms: C_2  and  C_3
REMARK    2  A    between atoms: C_6  and  N_7
REMARK    3  A    between atoms: C_8  and  C_10
REMARK    4  A    between atoms: C_10  and  C_11
REMARK                            x       y       z     vdW  Elec       q    Type
REMARK                         _______ _______ _______ _____ _____    ______ ____
ROOT
ATOM      1  C   UNL     1       0.732   9.916  19.429  0.00  0.00    +0.000 A 
ATOM      2  C   UNL     1       1.071   9.057  20.469  0.00  0.00    +0.000 A 
ATOM      3  C   UNL     1       1.757   7.873  20.205  0.00  0.00    +0.000 A 
ATOM      4  C   UNL     1       2.214   7.568  18.920  0.00  0.00    +0.000 A 
ATOM      5  C   UNL     1       1.975   8.494  17.895  0.00  0.00    +0.000 A 
ATOM      6  C   UNL     1       1.233   9.663  18.146  0.00  0.00    +0.000 A 
ENDROOT
BRANCH   1   8
ATOM      7  O   UNL     1      -1.338  10.956  19.547  0.00  0.00    +0.000 OA
ATOM      8  C   UNL     1      -0.124  11.103  19.688  0.00  0.00    +0.000 C 
ATOM      9  N   UNL     1       0.468  12.320  20.078  0.00  0.00    +0.000 N 
ATOM     10  C   UNL     1      -0.409  13.476  20.296  0.00  0.00    +0.000 C 
ATOM     11  C   UNL     1      -0.434  14.418  19.093  0.00  0.00    +0.000 C 
ATOM     12  C   UNL     1       0.871  15.162  18.804  0.00  0.00    +0.000 C 
ATOM     13  C   UNL     1       2.117  14.281  18.705  0.00  0.00    +0.000 C 
ATOM     14  C   UNL     1       2.558  13.750  20.067  0.00  0.00    +0.000 C 
ATOM     15  C   UNL     1       1.854  12.474  20.535  0.00  0.00    +0.000 C 
ENDBRANCH   1   8
BRANCH   4  16
ATOM     16  N   UNL     1       2.920   6.379  18.621  0.00  0.00    +0.000 N 
ATOM     17  C   UNL     1       2.530   5.091  18.971  0.00  0.00    +0.000 C 
ATOM     18  O   UNL     1       1.469   4.819  19.547  0.00  0.00    +0.000 OA
ATOM     19  H   UNL     1       3.762   6.472  18.064  0.00  0.00    +0.000 HD
BRANCH  17  20
ATOM     20  C   UNL     1       3.519   3.933  18.567  0.00  0.00    +0.000 C 
ATOM     21  C   UNL     1       2.924   3.036  17.402  0.00  0.00    +0.000 C 
ATOM     22  C   UNL     1       3.523   1.813  18.102  0.00  0.00    +0.000 C 
ATOM     23  C   UNL     1       3.473   2.614  19.416  0.00  0.00    +0.000 C 
BRANCH  20  24
ATOM     24  C   UNL     1       4.945   4.635  18.250  0.00  0.00    +0.000 A 
ATOM     25  C   UNL     1       5.775   5.088  19.304  0.00  0.00    +0.000 A 
ATOM     26  C   UNL     1       7.051   5.619  19.088  0.00  0.00    +0.000 A 
ATOM     27  C   UNL     1       7.538   5.733  17.793  0.00  0.00    +0.000 A 
ATOM     28  C   UNL     1       6.738   5.329  16.736  0.00  0.00    +0.000 A 
ATOM     29  F   UNL     1       7.198   5.438  15.482  0.00  0.00    +0.000 F 
ATOM     30  C   UNL     1       5.468   4.791  16.951  0.00  0.00    +0.000 A 
ENDBRANCH  20  24
ENDBRANCH  17  20
ENDBRANCH   4  16
TORSDOF 4
ENDMDL
