MODEL 1
REMARK VINA RESULT:      -8.4      0.000      0.000
REMARK  Name = 
REMARK  5 active torsions:
REMARK  status: ('A' for Active; 'I' for Inactive)
REMARK    1  A    between atoms: C_2  and  C_18
REMARK    2  A    between atoms: N_3  and  C_4
REMARK    3  A    between atoms: C_4  and  C_5
REMARK    4  A    between atoms: C_11  and  C_12
REMARK    5  A    between atoms: N_22  and  C_23
REMARK                            x       y       z     vdW  Elec       q    Type
REMARK                         _______ _______ _______ _____ _____    ______ ____
ROOT
ATOM      1  O   UNL     1       1.162   4.566  20.752  0.00  0.00    +0.000 OA
ATOM      2  C   UNL     1       1.810   4.764  19.729  0.00  0.00    +0.000 C 
ATOM      3  N   UNL     1       2.244   6.024  19.390  0.00  0.00    +0.000 N 
ATOM      4  H   UNL     1       2.889   6.178  18.620  0.00  0.00    +0.000 HD
ENDROOT
BRANCH   2   5
ATOM      5  C   UNL     1       2.242   3.648  18.780  0.00  0.00    +0.000 C 
ATOM      6  C   UNL     1       2.845   2.462  19.528  0.00  0.00    +0.000 C 
ATOM      7  C   UNL     1       4.319   2.789  19.574  0.00  0.00    +0.000 C 
ATOM      8  O   UNL     1       5.131   2.196  20.266  0.00  0.00    +0.000 OA
ATOM      9  N   UNL     1       4.565   3.822  18.673  0.00  0.00    +0.000 N 
ATOM     10  C   UNL     1       3.386   4.096  17.880  0.00  0.00    +0.000 C 
BRANCH   9  11
ATOM     11  C   UNL     1       5.898   4.273  18.287  0.00  0.00    +0.000 C 
ATOM     12  C   UNL     1       6.439   5.408  19.162  0.00  0.00    +0.000 C 
ATOM     13  C   UNL     1       7.452   6.162  18.303  0.00  0.00    +0.000 C 
ATOM     14  C   UNL     1       7.210   5.728  16.864  0.00  0.00    +0.000 C 
ATOM     15  C   UNL     1       5.941   4.894  16.887  0.00  0.00    +0.000 C 
ENDBRANCH   9  11
ENDBRANCH   2   5
BRANCH   3  16
ATOM     16  C   UNL     1       1.880   7.156  20.211  0.00  0.00    +0.000 C 
BRANCH  16  17
ATOM     17  C   UNL     1       1.723   8.372  19.377  0.00  0.00    +0.000 A 
ATOM     18  N   UNL     1       2.193   8.562  18.155  0.00  0.00    +0.000 NA
ATOM     19  N   UNL     1       1.851   9.834  17.759  0.00  0.00    +0.000 NA
ATOM     20  C   UNL     1       1.183  10.400  18.739  0.00  0.00    +0.000 A 
ATOM     21  C   UNL     1       0.609  11.685  18.890  0.00  0.00    +0.000 A 
ATOM     22  C   UNL     1      -0.031  11.998  20.033  0.00  0.00    +0.000 A 
ATOM     23  C   UNL     1      -0.158  11.045  21.138  0.00  0.00    +0.000 A 
ATOM     24  C   UNL     1       0.397   9.822  20.983  0.00  0.00    +0.000 A 
ATOM     25  N   UNL     1       1.064   9.509  19.795  0.00  0.00    +0.000 N 
BRANCH  23  26
ATOM     26  C   UNL     1      -0.899  11.455  22.384  0.00  0.00    +0.000 C 
ATOM     27  F   UNL     1      -0.818  10.536  23.377  0.00  0.00    +0.000 F 
ATOM     28  F   UNL     1      -0.421  12.622  22.885  0.00  0.00    +0.000 F 
ATOM     29  F   UNL     1      -2.219  11.647  22.132  0.00  0.00    +0.000 F 
ENDBRANCH  23  26
ENDBRANCH  16  17
ENDBRANCH   3  16
TORSDOF 5
ENDMDL
MODEL 2
REMARK VINA RESULT:      -8.3      2.380      3.240
REMARK  Name = 
REMARK  5 active torsions:
REMARK  status: ('A' for Active; 'I' for Inactive)
REMARK    1  A    between atoms: C_2  and  C_18
REMARK    2  A    between atoms: N_3  and  C_4
REMARK    3  A    between atoms: C_4  and  C_5
REMARK    4  A    between atoms: C_11  and  C_12
REMARK    5  A    between atoms: N_22  and  C_23
REMARK                            x       y       z     vdW  Elec       q    Type
REMARK                         _______ _______ _______ _____ _____    ______ ____
ROOT
ATOM      1  O   UNL     1       3.211   4.083  17.849  0.00  0.00    +0.000 OA
ATOM      2  C   UNL     1       4.139   4.643  18.426  0.00  0.00    +0.000 C 
ATOM      3  N   UNL     1       3.911   5.599  19.386  0.00  0.00    +0.000 N 
ATOM      4  H   UNL     1       4.662   5.972  19.959  0.00  0.00    +0.000 HD
ENDROOT
BRANCH   2   5
ATOM      5  C   UNL     1       5.607   4.300  18.183  0.00  0.00    +0.000 C 
ATOM      6  C   UNL     1       6.506   5.531  18.275  0.00  0.00    +0.000 C 
ATOM      7  C   UNL     1       6.546   6.043  16.855  0.00  0.00    +0.000 C 
ATOM      8  O   UNL     1       6.990   7.132  16.531  0.00  0.00    +0.000 OA
ATOM      9  N   UNL     1       6.045   5.048  16.018  0.00  0.00    +0.000 N 
ATOM     10  C   UNL     1       5.837   3.821  16.756  0.00  0.00    +0.000 C 
BRANCH   9  11
ATOM     11  C   UNL     1       6.113   5.091  14.561  0.00  0.00    +0.000 C 
ATOM     12  C   UNL     1       5.477   3.875  13.882  0.00  0.00    +0.000 C 
ATOM     13  C   UNL     1       6.159   3.741  12.522  0.00  0.00    +0.000 C 
ATOM     14  C   UNL     1       7.416   4.598  12.581  0.00  0.00    +0.000 C 
ATOM     15  C   UNL     1       7.548   5.048  14.025  0.00  0.00    +0.000 C 
ENDBRANCH   9  11
ENDBRANCH   2   5
BRANCH   3  16
ATOM     16  C   UNL     1       2.558   6.011  19.685  0.00  0.00    +0.000 C 
BRANCH  16  17
ATOM     17  C   UNL     1       2.267   7.325  19.064  0.00  0.00    +0.000 A 
ATOM     18  N   UNL     1       2.583   7.712  17.839  0.00  0.00    +0.000 NA
ATOM     19  N   UNL     1       2.158   9.010  17.677  0.00  0.00    +0.000 NA
ATOM     20  C   UNL     1       1.594   9.396  18.799  0.00  0.00    +0.000 A 
ATOM     21  C   UNL     1       1.004  10.618  19.203  0.00  0.00    +0.000 A 
ATOM     22  C   UNL     1       0.495  10.733  20.445  0.00  0.00    +0.000 A 
ATOM     23  C   UNL     1       0.528   9.626  21.404  0.00  0.00    +0.000 A 
ATOM     24  C   UNL     1       1.097   8.465  21.007  0.00  0.00    +0.000 A 
ATOM     25  N   UNL     1       1.628   8.358  19.718  0.00  0.00    +0.000 N 
BRANCH  23  26
ATOM     26  C   UNL     1      -0.072   9.817  22.772  0.00  0.00    +0.000 C 
ATOM     27  F   UNL     1       0.779   9.492  23.775  0.00  0.00    +0.000 F 
ATOM     28  F   UNL     1      -0.449  11.105  22.973  0.00  0.00    +0.000 F 
ATOM     29  F   UNL     1      -1.183   9.053  22.934  0.00  0.00    +0.000 F 
ENDBRANCH  23  26
ENDBRANCH  16  17
ENDBRANCH   3  16
TORSDOF 5
ENDMDL
MODEL 3
REMARK VINA RESULT:      -8.0      4.524      8.687
REMARK  Name = 
REMARK  5 active torsions:
REMARK  status: ('A' for Active; 'I' for Inactive)
REMARK    1  A    between atoms: C_2  and  C_18
REMARK    2  A    between atoms: N_3  and  C_4
REMARK    3  A    between atoms: C_4  and  C_5
REMARK    4  A    between atoms: C_11  and  C_12
REMARK    5  A    between atoms: N_22  and  C_23
REMARK                            x       y       z     vdW  Elec       q    Type
REMARK                         _______ _______ _______ _____ _____    ______ ____
ROOT
ATOM      1  O   UNL     1       0.961   8.439  21.304  0.00  0.00    +0.000 OA
ATOM      2  C   UNL     1       1.435   8.687  20.199  0.00  0.00    +0.000 C 
ATOM      3  N   UNL     1       2.035   7.709  19.443  0.00  0.00    +0.000 N 
ATOM      4  H   UNL     1       2.312   7.872  18.479  0.00  0.00    +0.000 HD
ENDROOT
BRANCH   2   5
ATOM      5  C   UNL     1       1.354  10.063  19.541  0.00  0.00    +0.000 C 
ATOM      6  C   UNL     1       0.773  11.115  20.483  0.00  0.00    +0.000 C 
ATOM      7  C   UNL     1      -0.709  11.058  20.200  0.00  0.00    +0.000 C 
ATOM      8  O   UNL     1      -1.561  11.597  20.889  0.00  0.00    +0.000 OA
ATOM      9  N   UNL     1      -0.901  10.343  19.020  0.00  0.00    +0.000 N 
ATOM     10  C   UNL     1       0.368  10.067  18.382  0.00  0.00    +0.000 C 
BRANCH   9  11
ATOM     11  C   UNL     1      -2.176  10.251  18.315  0.00  0.00    +0.000 C 
ATOM     12  C   UNL     1      -2.045   9.742  16.876  0.00  0.00    +0.000 C 
ATOM     13  C   UNL     1      -3.253  10.290  16.119  0.00  0.00    +0.000 C 
ATOM     14  C   UNL     1      -3.840  11.398  16.982  0.00  0.00    +0.000 C 
ATOM     15  C   UNL     1      -2.854  11.610  18.117  0.00  0.00    +0.000 C 
ENDBRANCH   9  11
ENDBRANCH   2   5
BRANCH   3  16
ATOM     16  C   UNL     1       2.178   6.373  19.975  0.00  0.00    +0.000 C 
BRANCH  16  17
ATOM     17  C   UNL     1       2.382   5.397  18.878  0.00  0.00    +0.000 A 
ATOM     18  N   UNL     1       1.451   4.682  18.269  0.00  0.00    +0.000 NA
ATOM     19  N   UNL     1       2.068   3.882  17.336  0.00  0.00    +0.000 NA
ATOM     20  C   UNL     1       3.360   4.117  17.389  0.00  0.00    +0.000 A 
ATOM     21  C   UNL     1       4.461   3.579  16.680  0.00  0.00    +0.000 A 
ATOM     22  C   UNL     1       5.705   4.017  16.952  0.00  0.00    +0.000 A 
ATOM     23  C   UNL     1       5.964   5.045  17.964  0.00  0.00    +0.000 A 
ATOM     24  C   UNL     1       4.904   5.549  18.635  0.00  0.00    +0.000 A 
ATOM     25  N   UNL     1       3.617   5.082  18.351  0.00  0.00    +0.000 N 
BRANCH  23  26
ATOM     26  C   UNL     1       7.379   5.501  18.208  0.00  0.00    +0.000 C 
ATOM     27  F   UNL     1       7.757   6.517  17.396  0.00  0.00    +0.000 F 
ATOM     28  F   UNL     1       7.549   5.929  19.484  0.00  0.00    +0.000 F 
ATOM     29  F   UNL     1       8.263   4.489  18.012  0.00  0.00    +0.000 F 
ENDBRANCH  23  26
ENDBRANCH  16  17
ENDBRANCH   3  16
TORSDOF 5
ENDMDL
MODEL 4
REMARK VINA RESULT:      -7.9      1.138      1.530
REMARK  Name = 
REMARK  5 active torsions:
REMARK  status: ('A' for Active; 'I' for Inactive)
REMARK    1  A    between atoms: C_2  and  C_18
REMARK    2  A    between atoms: N_3  and  C_4
REMARK    3  A    between atoms: C_4  and  C_5
REMARK    4  A    between atoms: C_11  and  C_12
REMARK    5  A    between atoms: N_22  and  C_23
REMARK                            x       y       z     vdW  Elec       q    Type
REMARK                         _______ _______ _______ _____ _____    ______ ____
ROOT
ATOM      1  O   UNL     1       0.906   4.488  20.131  0.00  0.00    +0.000 OA
ATOM      2  C   UNL     1       1.584   4.566  19.111  0.00  0.00    +0.000 C 
ATOM      3  N   UNL     1       2.433   5.626  18.897  0.00  0.00    +0.000 N 
ATOM      4  H   UNL     1       3.093   5.636  18.124  0.00  0.00    +0.000 HD
ENDROOT
BRANCH   2   5
ATOM      5  C   UNL     1       1.599   3.490  18.027  0.00  0.00    +0.000 C 
ATOM      6  C   UNL     1       2.016   2.129  18.579  0.00  0.00    +0.000 C 
ATOM      7  C   UNL     1       3.516   2.122  18.397  0.00  0.00    +0.000 C 
ATOM      8  O   UNL     1       4.263   1.297  18.897  0.00  0.00    +0.000 OA
ATOM      9  N   UNL     1       3.856   3.166  17.540  0.00  0.00    +0.000 N 
ATOM     10  C   UNL     1       2.667   3.772  16.980  0.00  0.00    +0.000 C 
BRANCH   9  11
ATOM     11  C   UNL     1       5.185   3.355  16.965  0.00  0.00    +0.000 C 
ATOM     12  C   UNL     1       6.082   4.285  17.788  0.00  0.00    +0.000 C 
ATOM     13  C   UNL     1       7.098   4.870  16.810  0.00  0.00    +0.000 C 
ATOM     14  C   UNL     1       6.558   4.604  15.411  0.00  0.00    +0.000 C 
ATOM     15  C   UNL     1       5.155   4.054  15.602  0.00  0.00    +0.000 C 
ENDBRANCH   9  11
ENDBRANCH   2   5
BRANCH   3  16
ATOM     16  C   UNL     1       2.488   6.709  19.852  0.00  0.00    +0.000 C 
BRANCH  16  17
ATOM     17  C   UNL     1       1.998   7.967  19.238  0.00  0.00    +0.000 A 
ATOM     18  N   UNL     1       2.207   8.380  17.999  0.00  0.00    +0.000 NA
ATOM     19  N   UNL     1       1.607   9.608  17.851  0.00  0.00    +0.000 NA
ATOM     20  C   UNL     1       1.044   9.927  18.994  0.00  0.00    +0.000 A 
ATOM     21  C   UNL     1       0.314  11.063  19.418  0.00  0.00    +0.000 A 
ATOM     22  C   UNL     1      -0.153  11.122  20.680  0.00  0.00    +0.000 A 
ATOM     23  C   UNL     1       0.069  10.039  21.641  0.00  0.00    +0.000 A 
ATOM     24  C   UNL     1       0.770   8.960  21.225  0.00  0.00    +0.000 A 
ATOM     25  N   UNL     1       1.256   8.912  19.915  0.00  0.00    +0.000 N 
BRANCH  23  26
ATOM     26  C   UNL     1      -0.494  10.162  23.034  0.00  0.00    +0.000 C 
ATOM     27  F   UNL     1      -0.784  11.440  23.378  0.00  0.00    +0.000 F 
ATOM     28  F   UNL     1      -1.637   9.445  23.172  0.00  0.00    +0.000 F 
ATOM     29  F   UNL     1       0.380   9.692  23.961  0.00  0.00    +0.000 F 
ENDBRANCH  23  26
ENDBRANCH  16  17
ENDBRANCH   3  16
TORSDOF 5
ENDMDL
MODEL 5
REMARK VINA RESULT:      -7.8      3.225      4.062
REMARK  Name = 
REMARK  5 active torsions:
REMARK  status: ('A' for Active; 'I' for Inactive)
REMARK    1  A    between atoms: C_2  and  C_18
REMARK    2  A    between atoms: N_3  and  C_4
REMARK    3  A    between atoms: C_4  and  C_5
REMARK    4  A    between atoms: C_11  and  C_12
REMARK    5  A    between atoms: N_22  and  C_23
REMARK                            x       y       z     vdW  Elec       q    Type
REMARK                         _______ _______ _______ _____ _____    ______ ____
ROOT
ATOM      1  O   UNL     1       3.573   7.909  17.315  0.00  0.00    +0.000 OA
ATOM      2  C   UNL     1       2.736   7.485  18.107  0.00  0.00    +0.000 C 
ATOM      3  N   UNL     1       1.749   8.299  18.607  0.00  0.00    +0.000 N 
ATOM      4  H   UNL     1       0.978   7.929  19.156  0.00  0.00    +0.000 HD
ENDROOT
BRANCH   2   5
ATOM      5  C   UNL     1       2.672   6.028  18.559  0.00  0.00    +0.000 C 
ATOM      6  C   UNL     1       3.579   5.760  19.758  0.00  0.00    +0.000 C 
ATOM      7  C   UNL     1       4.887   5.349  19.123  0.00  0.00    +0.000 C 
ATOM      8  O   UNL     1       5.941   5.246  19.729  0.00  0.00    +0.000 OA
ATOM      9  N   UNL     1       4.651   5.073  17.778  0.00  0.00    +0.000 N 
ATOM     10  C   UNL     1       3.231   5.092  17.497  0.00  0.00    +0.000 C 
BRANCH   9  11
ATOM     11  C   UNL     1       5.624   4.451  16.885  0.00  0.00    +0.000 C 
ATOM     12  C   UNL     1       6.719   5.410  16.409  0.00  0.00    +0.000 C 
ATOM     13  C   UNL     1       7.222   4.855  15.078  0.00  0.00    +0.000 C 
ATOM     14  C   UNL     1       6.185   3.844  14.610  0.00  0.00    +0.000 C 
ATOM     15  C   UNL     1       5.011   3.977  15.564  0.00  0.00    +0.000 C 
ENDBRANCH   9  11
ENDBRANCH   2   5
BRANCH   3  16
ATOM     16  C   UNL     1       1.723   9.700  18.255  0.00  0.00    +0.000 C 
BRANCH  16  17
ATOM     17  C   UNL     1       0.731  10.425  19.086  0.00  0.00    +0.000 A 
ATOM     18  N   UNL     1       0.907  10.883  20.314  0.00  0.00    +0.000 NA
ATOM     19  N   UNL     1      -0.270  11.461  20.728  0.00  0.00    +0.000 NA
ATOM     20  C   UNL     1      -1.144  11.349  19.752  0.00  0.00    +0.000 A 
ATOM     21  C   UNL     1      -2.497  11.744  19.629  0.00  0.00    +0.000 A 
ATOM     22  C   UNL     1      -3.163  11.490  18.486  0.00  0.00    +0.000 A 
ATOM     23  C   UNL     1      -2.529  10.814  17.351  0.00  0.00    +0.000 A 
ATOM     24  C   UNL     1      -1.237  10.440  17.482  0.00  0.00    +0.000 A 
ATOM     25  N   UNL     1      -0.556  10.701  18.676  0.00  0.00    +0.000 N 
BRANCH  23  26
ATOM     26  C   UNL     1      -3.327  10.574  16.096  0.00  0.00    +0.000 C 
ATOM     27  F   UNL     1      -4.602  11.023  16.183  0.00  0.00    +0.000 F 
ATOM     28  F   UNL     1      -2.763  11.187  15.025  0.00  0.00    +0.000 F 
ATOM     29  F   UNL     1      -3.394   9.251  15.800  0.00  0.00    +0.000 F 
ENDBRANCH  23  26
ENDBRANCH  16  17
ENDBRANCH   3  16
TORSDOF 5
ENDMDL
MODEL 6
REMARK VINA RESULT:      -7.7      4.143      8.486
REMARK  Name = 
REMARK  5 active torsions:
REMARK  status: ('A' for Active; 'I' for Inactive)
REMARK    1  A    between atoms: C_2  and  C_18
REMARK    2  A    between atoms: N_3  and  C_4
REMARK    3  A    between atoms: C_4  and  C_5
REMARK    4  A    between atoms: C_11  and  C_12
REMARK    5  A    between atoms: N_22  and  C_23
REMARK                            x       y       z     vdW  Elec       q    Type
REMARK                         _______ _______ _______ _____ _____    ______ ____
ROOT
ATOM      1  O   UNL     1       0.972  10.594  21.820  0.00  0.00    +0.000 OA
ATOM      2  C   UNL     1       0.838  10.766  20.612  0.00  0.00    +0.000 C 
ATOM      3  N   UNL     1       0.978   9.727  19.723  0.00  0.00    +0.000 N 
ATOM      4  H   UNL     1       0.741   9.828  18.741  0.00  0.00    +0.000 HD
ENDROOT
BRANCH   2   5
ATOM      5  C   UNL     1       0.451  12.107  19.993  0.00  0.00    +0.000 C 
ATOM      6  C   UNL     1      -0.637  12.816  20.796  0.00  0.00    +0.000 C 
ATOM      7  C   UNL     1      -1.916  12.324  20.162  0.00  0.00    +0.000 C 
ATOM      8  O   UNL     1      -3.027  12.490  20.640  0.00  0.00    +0.000 OA
ATOM      9  N   UNL     1      -1.597  11.714  18.951  0.00  0.00    +0.000 N 
ATOM     10  C   UNL     1      -0.202  11.921  18.630  0.00  0.00    +0.000 C 
BRANCH   9  11
ATOM     11  C   UNL     1      -2.582  11.298  17.957  0.00  0.00    +0.000 C 
ATOM     12  C   UNL     1      -2.710   9.778  17.819  0.00  0.00    +0.000 C 
ATOM     13  C   UNL     1      -3.230   9.522  16.406  0.00  0.00    +0.000 C 
ATOM     14  C   UNL     1      -3.027  10.814  15.627  0.00  0.00    +0.000 C 
ATOM     15  C   UNL     1      -2.215  11.724  16.532  0.00  0.00    +0.000 C 
ENDBRANCH   9  11
ENDBRANCH   2   5
BRANCH   3  16
ATOM     16  C   UNL     1       1.357   8.417  20.200  0.00  0.00    +0.000 C 
BRANCH  16  17
ATOM     17  C   UNL     1       2.211   7.728  19.202  0.00  0.00    +0.000 A 
ATOM     18  N   UNL     1       2.833   8.281  18.174  0.00  0.00    +0.000 NA
ATOM     19  N   UNL     1       3.487   7.286  17.485  0.00  0.00    +0.000 NA
ATOM     20  C   UNL     1       3.256   6.147  18.098  0.00  0.00    +0.000 A 
ATOM     21  C   UNL     1       3.656   4.817  17.828  0.00  0.00    +0.000 A 
ATOM     22  C   UNL     1       3.257   3.823  18.645  0.00  0.00    +0.000 A 
ATOM     23  C   UNL     1       2.416   4.072  19.818  0.00  0.00    +0.000 A 
ATOM     24  C   UNL     1       2.038   5.347  20.064  0.00  0.00    +0.000 A 
ATOM     25  N   UNL     1       2.452   6.370  19.206  0.00  0.00    +0.000 N 
BRANCH  23  26
ATOM     26  C   UNL     1       2.017   2.917  20.700  0.00  0.00    +0.000 C 
ATOM     27  F   UNL     1       0.975   3.206  21.516  0.00  0.00    +0.000 F 
ATOM     28  F   UNL     1       1.657   1.834  19.965  0.00  0.00    +0.000 F 
ATOM     29  F   UNL     1       3.045   2.527  21.495  0.00  0.00    +0.000 F 
ENDBRANCH  23  26
ENDBRANCH  16  17
ENDBRANCH   3  16
TORSDOF 5
ENDMDL
MODEL 7
REMARK VINA RESULT:      -7.7      1.993      2.826
REMARK  Name = 
REMARK  5 active torsions:
REMARK  status: ('A' for Active; 'I' for Inactive)
REMARK    1  A    between atoms: C_2  and  C_18
REMARK    2  A    between atoms: N_3  and  C_4
REMARK    3  A    between atoms: C_4  and  C_5
REMARK    4  A    between atoms: C_11  and  C_12
REMARK    5  A    between atoms: N_22  and  C_23
REMARK                            x       y       z     vdW  Elec       q    Type
REMARK                         _______ _______ _______ _____ _____    ______ ____
ROOT
ATOM      1  O   UNL     1       2.647   4.654  18.365  0.00  0.00    +0.000 OA
ATOM      2  C   UNL     1       3.607   5.179  18.921  0.00  0.00    +0.000 C 
ATOM      3  N   UNL     1       3.445   6.241  19.778  0.00  0.00    +0.000 N 
ATOM      4  H   UNL     1       4.212   6.596  20.341  0.00  0.00    +0.000 HD
ENDROOT
BRANCH   2   5
ATOM      5  C   UNL     1       5.042   4.679  18.766  0.00  0.00    +0.000 C 
ATOM      6  C   UNL     1       6.056   5.818  18.839  0.00  0.00    +0.000 C 
ATOM      7  C   UNL     1       6.208   6.244  17.397  0.00  0.00    +0.000 C 
ATOM      8  O   UNL     1       6.774   7.264  17.039  0.00  0.00    +0.000 OA
ATOM      9  N   UNL     1       5.645   5.259  16.590  0.00  0.00    +0.000 N 
ATOM     10  C   UNL     1       5.282   4.101  17.379  0.00  0.00    +0.000 C 
BRANCH   9  11
ATOM     11  C   UNL     1       5.779   5.213  15.137  0.00  0.00    +0.000 C 
ATOM     12  C   UNL     1       5.082   4.011  14.494  0.00  0.00    +0.000 C 
ATOM     13  C   UNL     1       5.810   3.750  13.177  0.00  0.00    +0.000 C 
ATOM     14  C   UNL     1       7.124   4.515  13.249  0.00  0.00    +0.000 C 
ATOM     15  C   UNL     1       7.228   5.035  14.672  0.00  0.00    +0.000 C 
ENDBRANCH   9  11
ENDBRANCH   2   5
BRANCH   3  16
ATOM     16  C   UNL     1       2.130   6.804  19.987  0.00  0.00    +0.000 C 
BRANCH  16  17
ATOM     17  C   UNL     1       1.951   8.022  19.161  0.00  0.00    +0.000 A 
ATOM     18  N   UNL     1       2.389   8.217  17.928  0.00  0.00    +0.000 NA
ATOM     19  N   UNL     1       2.036   9.490  17.546  0.00  0.00    +0.000 NA
ATOM     20  C   UNL     1       1.393  10.052  18.544  0.00  0.00    +0.000 A 
ATOM     21  C   UNL     1       0.823  11.336  18.715  0.00  0.00    +0.000 A 
ATOM     22  C   UNL     1       0.213  11.646  19.875  0.00  0.00    +0.000 A 
ATOM     23  C   UNL     1       0.116  10.689  20.980  0.00  0.00    +0.000 A 
ATOM     24  C   UNL     1       0.666   9.466  20.806  0.00  0.00    +0.000 A 
ATOM     25  N   UNL     1       1.303   9.158  19.600  0.00  0.00    +0.000 N 
BRANCH  23  26
ATOM     26  C   UNL     1      -0.593  11.094  22.247  0.00  0.00    +0.000 C 
ATOM     27  F   UNL     1      -1.940  11.136  22.111  0.00  0.00    +0.000 F 
ATOM     28  F   UNL     1      -0.324  10.235  23.262  0.00  0.00    +0.000 F 
ATOM     29  F   UNL     1      -0.199  12.326  22.659  0.00  0.00    +0.000 F 
ENDBRANCH  23  26
ENDBRANCH  16  17
ENDBRANCH   3  16
TORSDOF 5
ENDMDL
MODEL 8
REMARK VINA RESULT:      -7.7      3.457      7.988
REMARK  Name = 
REMARK  5 active torsions:
REMARK  status: ('A' for Active; 'I' for Inactive)
REMARK    1  A    between atoms: C_2  and  C_18
REMARK    2  A    between atoms: N_3  and  C_4
REMARK    3  A    between atoms: C_4  and  C_5
REMARK    4  A    between atoms: C_11  and  C_12
REMARK    5  A    between atoms: N_22  and  C_23
REMARK                            x       y       z     vdW  Elec       q    Type
REMARK                         _______ _______ _______ _____ _____    ______ ____
ROOT
ATOM      1  O   UNL     1       2.344   7.644  19.824  0.00  0.00    +0.000 OA
ATOM      2  C   UNL     1       2.319   8.101  18.685  0.00  0.00    +0.000 C 
ATOM      3  N   UNL     1       3.298   7.794  17.771  0.00  0.00    +0.000 N 
ATOM      4  H   UNL     1       3.218   8.058  16.793  0.00  0.00    +0.000 HD
ENDROOT
BRANCH   2   5
ATOM      5  C   UNL     1       1.191   8.988  18.161  0.00  0.00    +0.000 C 
ATOM      6  C   UNL     1       1.702  10.353  17.705  0.00  0.00    +0.000 C 
ATOM      7  C   UNL     1       1.590  11.202  18.949  0.00  0.00    +0.000 C 
ATOM      8  O   UNL     1       2.089  12.310  19.070  0.00  0.00    +0.000 OA
ATOM      9  N   UNL     1       0.797  10.524  19.871  0.00  0.00    +0.000 N 
ATOM     10  C   UNL     1       0.209   9.348  19.267  0.00  0.00    +0.000 C 
BRANCH   9  11
ATOM     11  C   UNL     1       0.294  11.111  21.109  0.00  0.00    +0.000 C 
ATOM     12  C   UNL     1       0.006  10.079  22.204  0.00  0.00    +0.000 C 
ATOM     13  C   UNL     1      -1.050  10.705  23.111  0.00  0.00    +0.000 C 
ATOM     14  C   UNL     1      -1.641  11.880  22.344  0.00  0.00    +0.000 C 
ATOM     15  C   UNL     1      -1.067  11.794  20.941  0.00  0.00    +0.000 C 
ENDBRANCH   9  11
ENDBRANCH   2   5
BRANCH   3  16
ATOM     16  C   UNL     1       4.420   6.973  18.164  0.00  0.00    +0.000 C 
BRANCH  16  17
ATOM     17  C   UNL     1       4.290   5.610  17.595  0.00  0.00    +0.000 A 
ATOM     18  N   UNL     1       4.646   5.220  16.382  0.00  0.00    +0.000 NA
ATOM     19  N   UNL     1       4.324   3.889  16.250  0.00  0.00    +0.000 NA
ATOM     20  C   UNL     1       3.778   3.489  17.376  0.00  0.00    +0.000 A 
ATOM     21  C   UNL     1       3.252   2.243  17.796  0.00  0.00    +0.000 A 
ATOM     22  C   UNL     1       2.741   2.120  19.036  0.00  0.00    +0.000 A 
ATOM     23  C   UNL     1       2.712   3.241  19.979  0.00  0.00    +0.000 A 
ATOM     24  C   UNL     1       3.216   4.426  19.566  0.00  0.00    +0.000 A 
ATOM     25  N   UNL     1       3.738   4.545  18.274  0.00  0.00    +0.000 N 
BRANCH  23  26
ATOM     26  C   UNL     1       2.140   3.031  21.357  0.00  0.00    +0.000 C 
ATOM     27  F   UNL     1       2.712   1.996  22.018  0.00  0.00    +0.000 F 
ATOM     28  F   UNL     1       2.298   4.133  22.133  0.00  0.00    +0.000 F 
ATOM     29  F   UNL     1       0.807   2.777  21.303  0.00  0.00    +0.000 F 
ENDBRANCH  23  26
ENDBRANCH  16  17
ENDBRANCH   3  16
TORSDOF 5
ENDMDL
MODEL 9
REMARK VINA RESULT:      -7.7      1.275      1.732
REMARK  Name = 
REMARK  5 active torsions:
REMARK  status: ('A' for Active; 'I' for Inactive)
REMARK    1  A    between atoms: C_2  and  C_18
REMARK    2  A    between atoms: N_3  and  C_4
REMARK    3  A    between atoms: C_4  and  C_5
REMARK    4  A    between atoms: C_11  and  C_12
REMARK    5  A    between atoms: N_22  and  C_23
REMARK                            x       y       z     vdW  Elec       q    Type
REMARK                         _______ _______ _______ _____ _____    ______ ____
ROOT
ATOM      1  O   UNL     1       0.707   4.062  20.408  0.00  0.00    +0.000 OA
ATOM      2  C   UNL     1       1.902   4.119  20.135  0.00  0.00    +0.000 C 
ATOM      3  N   UNL     1       2.634   5.260  20.364  0.00  0.00    +0.000 N 
ATOM      4  H   UNL     1       3.645   5.275  20.266  0.00  0.00    +0.000 HD
ENDROOT
BRANCH   2   5
ATOM      5  C   UNL     1       2.694   2.936  19.581  0.00  0.00    +0.000 C 
ATOM      6  C   UNL     1       4.150   2.957  20.039  0.00  0.00    +0.000 C 
ATOM      7  C   UNL     1       4.848   3.740  18.953  0.00  0.00    +0.000 C 
ATOM      8  O   UNL     1       5.990   4.163  19.038  0.00  0.00    +0.000 OA
ATOM      9  N   UNL     1       3.987   3.836  17.862  0.00  0.00    +0.000 N 
ATOM     10  C   UNL     1       2.816   3.011  18.065  0.00  0.00    +0.000 C 
BRANCH   9  11
ATOM     11  C   UNL     1       4.379   4.341  16.550  0.00  0.00    +0.000 C 
ATOM     12  C   UNL     1       5.627   3.662  15.979  0.00  0.00    +0.000 C 
ATOM     13  C   UNL     1       6.251   4.664  15.009  0.00  0.00    +0.000 C 
ATOM     14  C   UNL     1       5.616   6.014  15.311  0.00  0.00    +0.000 C 
ATOM     15  C   UNL     1       4.793   5.816  16.572  0.00  0.00    +0.000 C 
ENDBRANCH   9  11
ENDBRANCH   2   5
BRANCH   3  16
ATOM     16  C   UNL     1       1.982   6.444  20.874  0.00  0.00    +0.000 C 
BRANCH  16  17
ATOM     17  C   UNL     1       1.925   7.494  19.829  0.00  0.00    +0.000 A 
ATOM     18  N   UNL     1       2.490   7.457  18.633  0.00  0.00    +0.000 NA
ATOM     19  N   UNL     1       2.218   8.644  17.994  0.00  0.00    +0.000 NA
ATOM     20  C   UNL     1       1.496   9.386  18.803  0.00  0.00    +0.000 A 
ATOM     21  C   UNL     1       0.952  10.687  18.680  0.00  0.00    +0.000 A 
ATOM     22  C   UNL     1       0.239  11.209  19.696  0.00  0.00    +0.000 A 
ATOM     23  C   UNL     1       0.001  10.470  20.938  0.00  0.00    +0.000 A 
ATOM     24  C   UNL     1       0.527   9.229  21.045  0.00  0.00    +0.000 A 
ATOM     25  N   UNL     1       1.272   8.699  19.987  0.00  0.00    +0.000 N 
BRANCH  23  26
ATOM     26  C   UNL     1      -0.819  11.108  22.030  0.00  0.00    +0.000 C 
ATOM     27  F   UNL     1      -2.024  11.551  21.600  0.00  0.00    +0.000 F 
ATOM     28  F   UNL     1      -1.055  10.238  23.045  0.00  0.00    +0.000 F 
ATOM     29  F   UNL     1      -0.176  12.175  22.570  0.00  0.00    +0.000 F 
ENDBRANCH  23  26
ENDBRANCH  16  17
ENDBRANCH   3  16
TORSDOF 5
ENDMDL
