MODEL 1
REMARK VINA RESULT:      -8.4      0.000      0.000
REMARK  Name = 
REMARK  5 active torsions:
REMARK  status: ('A' for Active; 'I' for Inactive)
REMARK    1  A    between atoms: C_2  and  C_3
REMARK    2  A    between atoms: N_5  and  C_6
REMARK    3  A    between atoms: C_6  and  C_7
REMARK    4  A    between atoms: C_14  and  C_15
REMARK    5  A    between atoms: C_25  and  N_26
REMARK                            x       y       z     vdW  Elec       q    Type
REMARK                         _______ _______ _______ _____ _____    ______ ____
ROOT
ATOM      1  C   UNL     1      -0.670  11.744  18.525  0.00  0.00    +0.000 A 
ATOM      2  C   UNL     1      -0.599  13.126  18.604  0.00  0.00    +0.000 A 
ATOM      3  N   UNL     1       0.435  13.407  19.435  0.00  0.00    +0.000 N 
ATOM      4  N   UNL     1       1.175  12.328  19.734  0.00  0.00    +0.000 NA
ATOM      5  C   UNL     1       0.512  11.285  19.191  0.00  0.00    +0.000 A 
ENDROOT
BRANCH   1   7
ATOM      6  O   UNL     1      -1.434  10.209  16.939  0.00  0.00    +0.000 OA
ATOM      7  C   UNL     1      -1.713  10.997  17.839  0.00  0.00    +0.000 C 
ATOM      8  N   UNL     1      -3.039  11.249  18.231  0.00  0.00    +0.000 N 
ATOM      9  C   UNL     1      -4.087  10.480  17.569  0.00  0.00    +0.000 C 
ATOM     10  C   UNL     1      -5.409  11.239  17.510  0.00  0.00    +0.000 C 
ATOM     11  C   UNL     1      -5.811  11.933  18.817  0.00  0.00    +0.000 C 
ATOM     12  C   UNL     1      -4.630  12.615  19.508  0.00  0.00    +0.000 C 
ATOM     13  C   UNL     1      -3.395  11.734  19.567  0.00  0.00    +0.000 C 
BRANCH  11  14
ATOM     14  N   UNL     1      -6.603  11.083  19.704  0.00  0.00    +0.000 N 
ATOM     15  C   UNL     1      -7.029   9.758  19.298  0.00  0.00    +0.000 C 
ATOM     16  C   UNL     1      -7.530   9.150  20.597  0.00  0.00    +0.000 C 
ATOM     17  N   UNL     1      -7.904  10.302  21.362  0.00  0.00    +0.000 N 
ATOM     18  C   UNL     1      -7.203  11.416  20.922  0.00  0.00    +0.000 C 
ATOM     19  O   UNL     1      -7.144  12.455  21.549  0.00  0.00    +0.000 OA
ATOM     20  H   UNL     1      -8.229  10.298  22.320  0.00  0.00    +0.000 HD
ENDBRANCH  11  14
ENDBRANCH   1   7
BRANCH   5  21
ATOM     21  C   UNL     1       1.048   9.924  19.360  0.00  0.00    +0.000 A 
ATOM     22  C   UNL     1       0.937   9.210  20.562  0.00  0.00    +0.000 A 
ATOM     23  C   UNL     1       1.470   7.919  20.678  0.00  0.00    +0.000 A 
ATOM     24  C   UNL     1       2.133   7.340  19.599  0.00  0.00    +0.000 A 
ATOM     25 CL   UNL     1       2.806   5.762  19.750  0.00  0.00    +0.000 Cl
ATOM     26  C   UNL     1       2.261   8.034  18.401  0.00  0.00    +0.000 A 
ATOM     27  C   UNL     1       1.721   9.317  18.286  0.00  0.00    +0.000 A 
ENDBRANCH   5  21
BRANCH   3  28
ATOM     28  C   UNL     1       0.804  14.723  19.941  0.00  0.00    +0.000 C 
BRANCH  28  29
ATOM     29  C   UNL     1       1.444  15.598  18.885  0.00  0.00    +0.000 A 
ATOM     30  C   UNL     1       0.879  16.835  18.532  0.00  0.00    +0.000 A 
ATOM     31  C   UNL     1       1.502  17.663  17.601  0.00  0.00    +0.000 A 
ATOM     32  C   UNL     1       2.705  17.277  17.010  0.00  0.00    +0.000 A 
ATOM     33  C   UNL     1       3.281  16.051  17.348  0.00  0.00    +0.000 A 
ATOM     34  C   UNL     1       2.654  15.218  18.281  0.00  0.00    +0.000 A 
ENDBRANCH  28  29
ENDBRANCH   3  28
TORSDOF 5
ENDMDL
MODEL 2
REMARK VINA RESULT:      -8.3      0.268      1.211
REMARK  Name = 
REMARK  5 active torsions:
REMARK  status: ('A' for Active; 'I' for Inactive)
REMARK    1  A    between atoms: C_2  and  C_3
REMARK    2  A    between atoms: N_5  and  C_6
REMARK    3  A    between atoms: C_6  and  C_7
REMARK    4  A    between atoms: C_14  and  C_15
REMARK    5  A    between atoms: C_25  and  N_26
REMARK                            x       y       z     vdW  Elec       q    Type
REMARK                         _______ _______ _______ _____ _____    ______ ____
ROOT
ATOM      1  C   UNL     1      -0.726  11.872  18.520  0.00  0.00    +0.000 A 
ATOM      2  C   UNL     1      -0.704  13.250  18.674  0.00  0.00    +0.000 A 
ATOM      3  N   UNL     1       0.345  13.525  19.488  0.00  0.00    +0.000 N 
ATOM      4  N   UNL     1       1.136  12.462  19.702  0.00  0.00    +0.000 NA
ATOM      5  C   UNL     1       0.494  11.424  19.123  0.00  0.00    +0.000 A 
ENDROOT
BRANCH   1   7
ATOM      6  O   UNL     1      -1.477  10.361  16.906  0.00  0.00    +0.000 OA
ATOM      7  C   UNL     1      -1.761  11.124  17.825  0.00  0.00    +0.000 C 
ATOM      8  N   UNL     1      -3.088  11.345  18.234  0.00  0.00    +0.000 N 
ATOM      9  C   UNL     1      -4.129  10.573  17.563  0.00  0.00    +0.000 C 
ATOM     10  C   UNL     1      -5.463  11.311  17.532  0.00  0.00    +0.000 C 
ATOM     11  C   UNL     1      -5.866  11.968  18.858  0.00  0.00    +0.000 C 
ATOM     12  C   UNL     1      -4.691  12.654  19.555  0.00  0.00    +0.000 C 
ATOM     13  C   UNL     1      -3.440  11.793  19.584  0.00  0.00    +0.000 C 
BRANCH  11  14
ATOM     14  N   UNL     1      -6.636  11.085  19.732  0.00  0.00    +0.000 N 
ATOM     15  C   UNL     1      -7.031   9.757  19.304  0.00  0.00    +0.000 C 
ATOM     16  C   UNL     1      -7.515   9.116  20.594  0.00  0.00    +0.000 C 
ATOM     17  N   UNL     1      -7.916  10.246  21.378  0.00  0.00    +0.000 N 
ATOM     18  C   UNL     1      -7.243  11.384  20.955  0.00  0.00    +0.000 C 
ATOM     19  O   UNL     1      -7.209  12.414  21.598  0.00  0.00    +0.000 OA
ATOM     20  H   UNL     1      -8.240  10.218  22.336  0.00  0.00    +0.000 HD
ENDBRANCH  11  14
ENDBRANCH   1   7
BRANCH   5  21
ATOM     21  C   UNL     1       1.086  10.079  19.199  0.00  0.00    +0.000 A 
ATOM     22  C   UNL     1       1.748   9.479  18.118  0.00  0.00    +0.000 A 
ATOM     23  C   UNL     1       2.290   8.192  18.237  0.00  0.00    +0.000 A 
ATOM     24  C   UNL     1       2.159   7.488  19.431  0.00  0.00    +0.000 A 
ATOM     25 CL   UNL     1       2.806   5.899  19.568  0.00  0.00    +0.000 Cl
ATOM     26  C   UNL     1       1.500   8.062  20.513  0.00  0.00    +0.000 A 
ATOM     27  C   UNL     1       0.969   9.348  20.395  0.00  0.00    +0.000 A 
ENDBRANCH   5  21
BRANCH   3  28
ATOM     28  C   UNL     1       0.682  14.826  20.054  0.00  0.00    +0.000 C 
BRANCH  28  29
ATOM     29  C   UNL     1       1.204  15.798  19.020  0.00  0.00    +0.000 A 
ATOM     30  C   UNL     1       2.474  15.627  18.444  0.00  0.00    +0.000 A 
ATOM     31  C   UNL     1       2.928  16.492  17.451  0.00  0.00    +0.000 A 
ATOM     32  C   UNL     1       2.121  17.539  17.006  0.00  0.00    +0.000 A 
ATOM     33  C   UNL     1       0.856  17.724  17.567  0.00  0.00    +0.000 A 
ATOM     34  C   UNL     1       0.401  16.858  18.566  0.00  0.00    +0.000 A 
ENDBRANCH  28  29
ENDBRANCH   3  28
TORSDOF 5
ENDMDL
MODEL 3
REMARK VINA RESULT:      -8.0      0.577      1.126
REMARK  Name = 
REMARK  5 active torsions:
REMARK  status: ('A' for Active; 'I' for Inactive)
REMARK    1  A    between atoms: C_2  and  C_3
REMARK    2  A    between atoms: N_5  and  C_6
REMARK    3  A    between atoms: C_6  and  C_7
REMARK    4  A    between atoms: C_14  and  C_15
REMARK    5  A    between atoms: C_25  and  N_26
REMARK                            x       y       z     vdW  Elec       q    Type
REMARK                         _______ _______ _______ _____ _____    ______ ____
ROOT
ATOM      1  C   UNL     1      -0.611  11.785  18.617  0.00  0.00    +0.000 A 
ATOM      2  C   UNL     1      -0.539  13.159  18.792  0.00  0.00    +0.000 A 
ATOM      3  N   UNL     1       0.523  13.383  19.606  0.00  0.00    +0.000 N 
ATOM      4  N   UNL     1       1.275  12.289  19.800  0.00  0.00    +0.000 NA
ATOM      5  C   UNL     1       0.594  11.284  19.208  0.00  0.00    +0.000 A 
ENDROOT
BRANCH   1   7
ATOM      6  O   UNL     1      -1.421  10.299  17.008  0.00  0.00    +0.000 OA
ATOM      7  C   UNL     1      -1.676  11.086  17.915  0.00  0.00    +0.000 C 
ATOM      8  N   UNL     1      -2.994  11.381  18.303  0.00  0.00    +0.000 N 
ATOM      9  C   UNL     1      -4.066  10.659  17.626  0.00  0.00    +0.000 C 
ATOM     10  C   UNL     1      -5.358  11.466  17.569  0.00  0.00    +0.000 C 
ATOM     11  C   UNL     1      -5.743  12.159  18.883  0.00  0.00    +0.000 C 
ATOM     12  C   UNL     1      -4.542  12.788  19.589  0.00  0.00    +0.000 C 
ATOM     13  C   UNL     1      -3.340  11.862  19.644  0.00  0.00    +0.000 C 
BRANCH  11  14
ATOM     14  N   UNL     1      -6.571  11.326  19.755  0.00  0.00    +0.000 N 
ATOM     15  C   UNL     1      -7.027  10.015  19.336  0.00  0.00    +0.000 C 
ATOM     16  C   UNL     1      -7.564   9.416  20.625  0.00  0.00    +0.000 C 
ATOM     17  N   UNL     1      -7.916  10.575  21.390  0.00  0.00    +0.000 N 
ATOM     18  C   UNL     1      -7.179  11.671  20.965  0.00  0.00    +0.000 C 
ATOM     19  O   UNL     1      -7.102  12.706  21.597  0.00  0.00    +0.000 OA
ATOM     20  H   UNL     1      -8.256  10.575  22.343  0.00  0.00    +0.000 HD
ENDBRANCH  11  14
ENDBRANCH   1   7
BRANCH   5  21
ATOM     21  C   UNL     1       1.137   9.917  19.261  0.00  0.00    +0.000 A 
ATOM     22  C   UNL     1       1.101   9.132  20.422  0.00  0.00    +0.000 A 
ATOM     23  C   UNL     1       1.637   7.837  20.426  0.00  0.00    +0.000 A 
ATOM     24  C   UNL     1       2.230   7.325  19.275  0.00  0.00    +0.000 A 
ATOM     25 CL   UNL     1       2.908   5.743  19.288  0.00  0.00    +0.000 Cl
ATOM     26  C   UNL     1       2.283   8.090  18.115  0.00  0.00    +0.000 A 
ATOM     27  C   UNL     1       1.740   9.377  18.111  0.00  0.00    +0.000 A 
ENDBRANCH   5  21
BRANCH   3  28
ATOM     28  C   UNL     1       0.908  14.662  20.191  0.00  0.00    +0.000 C 
BRANCH  28  29
ATOM     29  C   UNL     1       0.686  15.826  19.252  0.00  0.00    +0.000 A 
ATOM     30  C   UNL     1       1.742  16.349  18.486  0.00  0.00    +0.000 A 
ATOM     31  C   UNL     1       1.521  17.384  17.580  0.00  0.00    +0.000 A 
ATOM     32  C   UNL     1       0.242  17.913  17.414  0.00  0.00    +0.000 A 
ATOM     33  C   UNL     1      -0.820  17.407  18.166  0.00  0.00    +0.000 A 
ATOM     34  C   UNL     1      -0.598  16.369  19.078  0.00  0.00    +0.000 A 
ENDBRANCH  28  29
ENDBRANCH   3  28
TORSDOF 5
ENDMDL
MODEL 4
REMARK VINA RESULT:      -7.9      1.094      1.925
REMARK  Name = 
REMARK  5 active torsions:
REMARK  status: ('A' for Active; 'I' for Inactive)
REMARK    1  A    between atoms: C_2  and  C_3
REMARK    2  A    between atoms: N_5  and  C_6
REMARK    3  A    between atoms: C_6  and  C_7
REMARK    4  A    between atoms: C_14  and  C_15
REMARK    5  A    between atoms: C_25  and  N_26
REMARK                            x       y       z     vdW  Elec       q    Type
REMARK                         _______ _______ _______ _____ _____    ______ ____
ROOT
ATOM      1  C   UNL     1      -0.655  11.716  18.418  0.00  0.00    +0.000 A 
ATOM      2  C   UNL     1      -0.589  13.101  18.450  0.00  0.00    +0.000 A 
ATOM      3  N   UNL     1       0.480  13.412  19.225  0.00  0.00    +0.000 N 
ATOM      4  N   UNL     1       1.239  12.347  19.524  0.00  0.00    +0.000 NA
ATOM      5  C   UNL     1       0.558  11.284  19.044  0.00  0.00    +0.000 A 
ENDROOT
BRANCH   1   7
ATOM      6  O   UNL     1      -1.475  10.089  16.957  0.00  0.00    +0.000 OA
ATOM      7  C   UNL     1      -1.723  10.944  17.803  0.00  0.00    +0.000 C 
ATOM      8  N   UNL     1      -3.037  11.249  18.197  0.00  0.00    +0.000 N 
ATOM      9  C   UNL     1      -4.111  10.456  17.608  0.00  0.00    +0.000 C 
ATOM     10  C   UNL     1      -5.419  11.235  17.517  0.00  0.00    +0.000 C 
ATOM     11  C   UNL     1      -5.785  12.027  18.778  0.00  0.00    +0.000 C 
ATOM     12  C   UNL     1      -4.581  12.732  19.400  0.00  0.00    +0.000 C 
ATOM     13  C   UNL     1      -3.361  11.833  19.502  0.00  0.00    +0.000 C 
BRANCH  11  14
ATOM     14  N   UNL     1      -6.578  11.256  19.736  0.00  0.00    +0.000 N 
ATOM     15  C   UNL     1      -7.075   9.933  19.413  0.00  0.00    +0.000 C 
ATOM     16  C   UNL     1      -7.550   9.412  20.758  0.00  0.00    +0.000 C 
ATOM     17  N   UNL     1      -7.845  10.616  21.478  0.00  0.00    +0.000 N 
ATOM     18  C   UNL     1      -7.115  11.675  20.956  0.00  0.00    +0.000 C 
ATOM     19  O   UNL     1      -6.989  12.740  21.527  0.00  0.00    +0.000 OA
ATOM     20  H   UNL     1      -8.133  10.672  22.446  0.00  0.00    +0.000 HD
ENDBRANCH  11  14
ENDBRANCH   1   7
BRANCH   5  21
ATOM     21  C   UNL     1       1.109   9.932  19.232  0.00  0.00    +0.000 A 
ATOM     22  C   UNL     1       1.763   9.231  18.209  0.00  0.00    +0.000 A 
ATOM     23  C   UNL     1       2.266   7.942  18.434  0.00  0.00    +0.000 A 
ATOM     24  C   UNL     1       2.102   7.337  19.677  0.00  0.00    +0.000 A 
ATOM     25 CL   UNL     1       2.700   5.745  19.945  0.00  0.00    +0.000 Cl
ATOM     26  C   UNL     1       1.450   8.012  20.703  0.00  0.00    +0.000 A 
ATOM     27  C   UNL     1       0.958   9.300  20.479  0.00  0.00    +0.000 A 
ENDBRANCH   5  21
BRANCH   3  28
ATOM     28  C   UNL     1       0.864  14.746  19.672  0.00  0.00    +0.000 C 
BRANCH  28  29
ATOM     29  C   UNL     1      -0.242  15.763  19.498  0.00  0.00    +0.000 A 
ATOM     30  C   UNL     1      -1.308  15.836  20.410  0.00  0.00    +0.000 A 
ATOM     31  C   UNL     1      -2.294  16.811  20.278  0.00  0.00    +0.000 A 
ATOM     32  C   UNL     1      -2.232  17.738  19.239  0.00  0.00    +0.000 A 
ATOM     33  C   UNL     1      -1.180  17.682  18.323  0.00  0.00    +0.000 A 
ATOM     34  C   UNL     1      -0.192  16.701  18.453  0.00  0.00    +0.000 A 
ENDBRANCH  28  29
ENDBRANCH   3  28
TORSDOF 5
ENDMDL
MODEL 5
REMARK VINA RESULT:      -7.9      0.775      1.181
REMARK  Name = 
REMARK  5 active torsions:
REMARK  status: ('A' for Active; 'I' for Inactive)
REMARK    1  A    between atoms: C_2  and  C_3
REMARK    2  A    between atoms: N_5  and  C_6
REMARK    3  A    between atoms: C_6  and  C_7
REMARK    4  A    between atoms: C_14  and  C_15
REMARK    5  A    between atoms: C_25  and  N_26
REMARK                            x       y       z     vdW  Elec       q    Type
REMARK                         _______ _______ _______ _____ _____    ______ ____
ROOT
ATOM      1  C   UNL     1      -0.691  11.769  18.456  0.00  0.00    +0.000 A 
ATOM      2  C   UNL     1      -0.611  13.153  18.500  0.00  0.00    +0.000 A 
ATOM      3  N   UNL     1       0.443  13.447  19.300  0.00  0.00    +0.000 N 
ATOM      4  N   UNL     1       1.186  12.373  19.606  0.00  0.00    +0.000 NA
ATOM      5  C   UNL     1       0.505  11.320  19.105  0.00  0.00    +0.000 A 
ENDROOT
BRANCH   1   7
ATOM      6  O   UNL     1      -1.497  10.188  16.937  0.00  0.00    +0.000 OA
ATOM      7  C   UNL     1      -1.752  11.012  17.812  0.00  0.00    +0.000 C 
ATOM      8  N   UNL     1      -3.069  11.294  18.215  0.00  0.00    +0.000 N 
ATOM      9  C   UNL     1      -4.136  10.515  17.597  0.00  0.00    +0.000 C 
ATOM     10  C   UNL     1      -5.450  11.287  17.532  0.00  0.00    +0.000 C 
ATOM     11  C   UNL     1      -5.823  12.032  18.819  0.00  0.00    +0.000 C 
ATOM     12  C   UNL     1      -4.624  12.723  19.467  0.00  0.00    +0.000 C 
ATOM     13  C   UNL     1      -3.398  11.830  19.539  0.00  0.00    +0.000 C 
BRANCH  11  14
ATOM     14  N   UNL     1      -6.612  11.223  19.748  0.00  0.00    +0.000 N 
ATOM     15  C   UNL     1      -7.065   9.893  19.393  0.00  0.00    +0.000 C 
ATOM     16  C   UNL     1      -7.551   9.335  20.720  0.00  0.00    +0.000 C 
ATOM     17  N   UNL     1      -7.893  10.518  21.454  0.00  0.00    +0.000 N 
ATOM     18  C   UNL     1      -7.184  11.606  20.964  0.00  0.00    +0.000 C 
ATOM     19  O   UNL     1      -7.098  12.664  21.556  0.00  0.00    +0.000 OA
ATOM     20  H   UNL     1      -8.201  10.549  22.417  0.00  0.00    +0.000 HD
ENDBRANCH  11  14
ENDBRANCH   1   7
BRANCH   5  21
ATOM     21  C   UNL     1       1.039   9.961  19.294  0.00  0.00    +0.000 A 
ATOM     22  C   UNL     1       0.935   9.269  20.509  0.00  0.00    +0.000 A 
ATOM     23  C   UNL     1       1.465   7.978  20.643  0.00  0.00    +0.000 A 
ATOM     24  C   UNL     1       2.119   7.378  19.570  0.00  0.00    +0.000 A 
ATOM     25 CL   UNL     1       2.789   5.802  19.744  0.00  0.00    +0.000 Cl
ATOM     26  C   UNL     1       2.239   8.051  18.359  0.00  0.00    +0.000 A 
ATOM     27  C   UNL     1       1.702   9.333  18.225  0.00  0.00    +0.000 A 
ENDBRANCH   5  21
BRANCH   3  28
ATOM     28  C   UNL     1       0.831  14.774  19.764  0.00  0.00    +0.000 C 
BRANCH  28  29
ATOM     29  C   UNL     1       2.263  15.120  19.423  0.00  0.00    +0.000 A 
ATOM     30  C   UNL     1       3.254  15.157  20.418  0.00  0.00    +0.000 A 
ATOM     31  C   UNL     1       4.583  15.419  20.091  0.00  0.00    +0.000 A 
ATOM     32  C   UNL     1       4.950  15.641  18.764  0.00  0.00    +0.000 A 
ATOM     33  C   UNL     1       3.979  15.608  17.762  0.00  0.00    +0.000 A 
ATOM     34  C   UNL     1       2.645  15.348  18.090  0.00  0.00    +0.000 A 
ENDBRANCH  28  29
ENDBRANCH   3  28
TORSDOF 5
ENDMDL
MODEL 6
REMARK VINA RESULT:      -7.8      1.351      2.201
REMARK  Name = 
REMARK  5 active torsions:
REMARK  status: ('A' for Active; 'I' for Inactive)
REMARK    1  A    between atoms: C_2  and  C_3
REMARK    2  A    between atoms: N_5  and  C_6
REMARK    3  A    between atoms: C_6  and  C_7
REMARK    4  A    between atoms: C_14  and  C_15
REMARK    5  A    between atoms: C_25  and  N_26
REMARK                            x       y       z     vdW  Elec       q    Type
REMARK                         _______ _______ _______ _____ _____    ______ ____
ROOT
ATOM      1  C   UNL     1      -0.716  11.745  18.350  0.00  0.00    +0.000 A 
ATOM      2  C   UNL     1      -0.651  13.129  18.314  0.00  0.00    +0.000 A 
ATOM      3  N   UNL     1       0.481  13.474  18.976  0.00  0.00    +0.000 N 
ATOM      4  N   UNL     1       1.267  12.423  19.253  0.00  0.00    +0.000 NA
ATOM      5  C   UNL     1       0.550  11.340  18.885  0.00  0.00    +0.000 A 
ENDROOT
BRANCH   1   7
ATOM      6  O   UNL     1      -1.646  10.000  17.107  0.00  0.00    +0.000 OA
ATOM      7  C   UNL     1      -1.831  10.946  17.867  0.00  0.00    +0.000 C 
ATOM      8  N   UNL     1      -3.117  11.332  18.284  0.00  0.00    +0.000 N 
ATOM      9  C   UNL     1      -4.238  10.516  17.829  0.00  0.00    +0.000 C 
ATOM     10  C   UNL     1      -5.527  11.322  17.713  0.00  0.00    +0.000 C 
ATOM     11  C   UNL     1      -5.813  12.253  18.898  0.00  0.00    +0.000 C 
ATOM     12  C   UNL     1      -4.562  12.981  19.388  0.00  0.00    +0.000 C 
ATOM     13  C   UNL     1      -3.364  12.061  19.531  0.00  0.00    +0.000 C 
BRANCH  11  14
ATOM     14  N   UNL     1      -6.581  11.613  19.965  0.00  0.00    +0.000 N 
ATOM     15  C   UNL     1      -6.739  12.242  21.262  0.00  0.00    +0.000 C 
ATOM     16  C   UNL     1      -7.825  11.403  21.915  0.00  0.00    +0.000 C 
ATOM     17  N   UNL     1      -7.695  10.142  21.247  0.00  0.00    +0.000 N 
ATOM     18  C   UNL     1      -7.104  10.318  20.004  0.00  0.00    +0.000 C 
ATOM     19  O   UNL     1      -7.102   9.462  19.141  0.00  0.00    +0.000 OA
ATOM     20  H   UNL     1      -8.297   9.339  21.374  0.00  0.00    +0.000 HD
ENDBRANCH  11  14
ENDBRANCH   1   7
BRANCH   5  21
ATOM     21  C   UNL     1       1.120   9.997  19.083  0.00  0.00    +0.000 A 
ATOM     22  C   UNL     1       1.792   9.301  18.068  0.00  0.00    +0.000 A 
ATOM     23  C   UNL     1       2.312   8.021  18.303  0.00  0.00    +0.000 A 
ATOM     24  C   UNL     1       2.148   7.420  19.549  0.00  0.00    +0.000 A 
ATOM     25 CL   UNL     1       2.768   5.839  19.829  0.00  0.00    +0.000 Cl
ATOM     26  C   UNL     1       1.479   8.091  20.567  0.00  0.00    +0.000 A 
ATOM     27  C   UNL     1       0.969   9.370  20.333  0.00  0.00    +0.000 A 
ENDBRANCH   5  21
BRANCH   3  28
ATOM     28  C   UNL     1       0.899  14.826  19.326  0.00  0.00    +0.000 C 
BRANCH  28  29
ATOM     29  C   UNL     1      -0.242  15.819  19.294  0.00  0.00    +0.000 A 
ATOM     30  C   UNL     1      -1.227  15.821  20.296  0.00  0.00    +0.000 A 
ATOM     31  C   UNL     1      -2.244  16.774  20.294  0.00  0.00    +0.000 A 
ATOM     32  C   UNL     1      -2.294  17.747  19.297  0.00  0.00    +0.000 A 
ATOM     33  C   UNL     1      -1.324  17.762  18.293  0.00  0.00    +0.000 A 
ATOM     34  C   UNL     1      -0.304  16.804  18.293  0.00  0.00    +0.000 A 
ENDBRANCH  28  29
ENDBRANCH   3  28
TORSDOF 5
ENDMDL
MODEL 7
REMARK VINA RESULT:      -7.7      1.299      1.989
REMARK  Name = 
REMARK  5 active torsions:
REMARK  status: ('A' for Active; 'I' for Inactive)
REMARK    1  A    between atoms: C_2  and  C_3
REMARK    2  A    between atoms: N_5  and  C_6
REMARK    3  A    between atoms: C_6  and  C_7
REMARK    4  A    between atoms: C_14  and  C_15
REMARK    5  A    between atoms: C_25  and  N_26
REMARK                            x       y       z     vdW  Elec       q    Type
REMARK                         _______ _______ _______ _____ _____    ______ ____
ROOT
ATOM      1  C   UNL     1      -0.711  11.878  18.564  0.00  0.00    +0.000 A 
ATOM      2  C   UNL     1      -0.629  13.261  18.628  0.00  0.00    +0.000 A 
ATOM      3  N   UNL     1       0.493  13.543  19.336  0.00  0.00    +0.000 N 
ATOM      4  N   UNL     1       1.260  12.464  19.554  0.00  0.00    +0.000 NA
ATOM      5  C   UNL     1       0.538  11.419  19.095  0.00  0.00    +0.000 A 
ENDROOT
BRANCH   1   7
ATOM      6  O   UNL     1      -1.635  10.240  17.179  0.00  0.00    +0.000 OA
ATOM      7  C   UNL     1      -1.825  11.131  18.003  0.00  0.00    +0.000 C 
ATOM      8  N   UNL     1      -3.114  11.501  18.423  0.00  0.00    +0.000 N 
ATOM      9  C   UNL     1      -4.235  10.734  17.889  0.00  0.00    +0.000 C 
ATOM     10  C   UNL     1      -5.513  11.562  17.808  0.00  0.00    +0.000 C 
ATOM     11  C   UNL     1      -5.812  12.407  19.052  0.00  0.00    +0.000 C 
ATOM     12  C   UNL     1      -4.564  13.082  19.618  0.00  0.00    +0.000 C 
ATOM     13  C   UNL     1      -3.378  12.139  19.716  0.00  0.00    +0.000 C 
BRANCH  11  14
ATOM     14  N   UNL     1      -6.607  11.700  20.055  0.00  0.00    +0.000 N 
ATOM     15  C   UNL     1      -6.817  12.253  21.379  0.00  0.00    +0.000 C 
ATOM     16  C   UNL     1      -7.914  11.367  21.945  0.00  0.00    +0.000 C 
ATOM     17  N   UNL     1      -7.746  10.147  21.213  0.00  0.00    +0.000 N 
ATOM     18  C   UNL     1      -7.115  10.399  20.003  0.00  0.00    +0.000 C 
ATOM     19  O   UNL     1      -7.072   9.593  19.095  0.00  0.00    +0.000 OA
ATOM     20  H   UNL     1      -8.341   9.332  21.275  0.00  0.00    +0.000 HD
ENDBRANCH  11  14
ENDBRANCH   1   7
BRANCH   5  21
ATOM     21  C   UNL     1       1.088  10.059  19.209  0.00  0.00    +0.000 A 
ATOM     22  C   UNL     1       1.022   9.312  20.394  0.00  0.00    +0.000 A 
ATOM     23  C   UNL     1       1.565   8.021  20.457  0.00  0.00    +0.000 A 
ATOM     24  C   UNL     1       2.195   7.476  19.342  0.00  0.00    +0.000 A 
ATOM     25 CL   UNL     1       2.882   5.900  19.427  0.00  0.00    +0.000 Cl
ATOM     26  C   UNL     1       2.278   8.203  18.159  0.00  0.00    +0.000 A 
ATOM     27  C   UNL     1       1.727   9.484  18.097  0.00  0.00    +0.000 A 
ENDBRANCH   5  21
BRANCH   3  28
ATOM     28  C   UNL     1       0.919  14.861  19.790  0.00  0.00    +0.000 C 
BRANCH  28  29
ATOM     29  C   UNL     1      -0.096  15.941  19.489  0.00  0.00    +0.000 A 
ATOM     30  C   UNL     1       0.004  16.722  18.325  0.00  0.00    +0.000 A 
ATOM     31  C   UNL     1      -0.965  17.677  18.022  0.00  0.00    +0.000 A 
ATOM     32  C   UNL     1      -2.056  17.866  18.870  0.00  0.00    +0.000 A 
ATOM     33  C   UNL     1      -2.172  17.099  20.031  0.00  0.00    +0.000 A 
ATOM     34  C   UNL     1      -1.198  16.142  20.336  0.00  0.00    +0.000 A 
ENDBRANCH  28  29
ENDBRANCH   3  28
TORSDOF 5
ENDMDL
MODEL 8
REMARK VINA RESULT:      -7.6      3.857      8.801
REMARK  Name = 
REMARK  5 active torsions:
REMARK  status: ('A' for Active; 'I' for Inactive)
REMARK    1  A    between atoms: C_2  and  C_3
REMARK    2  A    between atoms: N_5  and  C_6
REMARK    3  A    between atoms: C_6  and  C_7
REMARK    4  A    between atoms: C_14  and  C_15
REMARK    5  A    between atoms: C_25  and  N_26
REMARK                            x       y       z     vdW  Elec       q    Type
REMARK                         _______ _______ _______ _____ _____    ______ ____
ROOT
ATOM      1  C   UNL     1       0.945  10.319  19.612  0.00  0.00    +0.000 A 
ATOM      2  C   UNL     1       2.100   9.572  19.435  0.00  0.00    +0.000 A 
ATOM      3  N   UNL     1       1.816   8.655  18.478  0.00  0.00    +0.000 N 
ATOM      4  N   UNL     1       0.644   8.881  17.866  0.00  0.00    +0.000 NA
ATOM      5  C   UNL     1       0.079   9.899  18.551  0.00  0.00    +0.000 A 
ENDROOT
BRANCH   1   7
ATOM      6  O   UNL     1       0.280  11.050  21.728  0.00  0.00    +0.000 OA
ATOM      7  C   UNL     1       0.755  11.338  20.633  0.00  0.00    +0.000 C 
ATOM      8  N   UNL     1       1.108  12.654  20.291  0.00  0.00    +0.000 N 
ATOM      9  C   UNL     1       0.951  13.675  21.321  0.00  0.00    +0.000 C 
ATOM     10  C   UNL     1       0.676  15.054  20.729  0.00  0.00    +0.000 C 
ATOM     11  C   UNL     1       1.568  15.433  19.540  0.00  0.00    +0.000 C 
ATOM     12  C   UNL     1       1.778  14.272  18.570  0.00  0.00    +0.000 C 
ATOM     13  C   UNL     1       2.115  12.970  19.274  0.00  0.00    +0.000 C 
BRANCH  11  14
ATOM     14  N   UNL     1       2.806  16.104  19.936  0.00  0.00    +0.000 N 
ATOM     15  C   UNL     1       3.201  16.198  21.328  0.00  0.00    +0.000 C 
ATOM     16  C   UNL     1       4.641  16.675  21.239  0.00  0.00    +0.000 C 
ATOM     17  N   UNL     1       4.672  17.354  19.978  0.00  0.00    +0.000 N 
ATOM     18  C   UNL     1       3.670  16.869  19.149  0.00  0.00    +0.000 C 
ATOM     19  O   UNL     1       3.629  17.091  17.955  0.00  0.00    +0.000 OA
ATOM     20  H   UNL     1       5.491  17.757  19.542  0.00  0.00    +0.000 HD
ENDBRANCH  11  14
ENDBRANCH   1   7
BRANCH   5  21
ATOM     21  C   UNL     1      -1.251  10.385  18.151  0.00  0.00    +0.000 A 
ATOM     22  C   UNL     1      -1.899   9.950  16.986  0.00  0.00    +0.000 A 
ATOM     23  C   UNL     1      -3.164  10.448  16.644  0.00  0.00    +0.000 A 
ATOM     24  C   UNL     1      -3.782  11.397  17.453  0.00  0.00    +0.000 A 
ATOM     25 CL   UNL     1      -5.325  12.023  17.019  0.00  0.00    +0.000 Cl
ATOM     26  C   UNL     1      -3.153  11.847  18.609  0.00  0.00    +0.000 A 
ATOM     27  C   UNL     1      -1.897  11.343  18.953  0.00  0.00    +0.000 A 
ENDBRANCH   5  21
BRANCH   3  28
ATOM     28  C   UNL     1       2.673   7.553  18.056  0.00  0.00    +0.000 C 
BRANCH  28  29
ATOM     29  C   UNL     1       2.273   6.231  18.673  0.00  0.00    +0.000 A 
ATOM     30  C   UNL     1       2.137   6.095  20.065  0.00  0.00    +0.000 A 
ATOM     31  C   UNL     1       1.713   4.892  20.625  0.00  0.00    +0.000 A 
ATOM     32  C   UNL     1       1.408   3.804  19.808  0.00  0.00    +0.000 A 
ATOM     33  C   UNL     1       1.536   3.920  18.423  0.00  0.00    +0.000 A 
ATOM     34  C   UNL     1       1.965   5.127  17.860  0.00  0.00    +0.000 A 
ENDBRANCH  28  29
ENDBRANCH   3  28
TORSDOF 5
ENDMDL
MODEL 9
REMARK VINA RESULT:      -7.5      2.832      8.110
REMARK  Name = 
REMARK  5 active torsions:
REMARK  status: ('A' for Active; 'I' for Inactive)
REMARK    1  A    between atoms: C_2  and  C_3
REMARK    2  A    between atoms: N_5  and  C_6
REMARK    3  A    between atoms: C_6  and  C_7
REMARK    4  A    between atoms: C_14  and  C_15
REMARK    5  A    between atoms: C_25  and  N_26
REMARK                            x       y       z     vdW  Elec       q    Type
REMARK                         _______ _______ _______ _____ _____    ______ ____
ROOT
ATOM      1  C   UNL     1      -0.333  11.758  19.776  0.00  0.00    +0.000 A 
ATOM      2  C   UNL     1      -1.552  12.321  19.428  0.00  0.00    +0.000 A 
ATOM      3  N   UNL     1      -2.071  11.531  18.456  0.00  0.00    +0.000 N 
ATOM      4  N   UNL     1      -1.394  10.384  18.294  0.00  0.00    +0.000 NA
ATOM      5  C   UNL     1      -0.310  10.500  19.091  0.00  0.00    +0.000 A 
ENDROOT
BRANCH   1   7
ATOM      6  O   UNL     1       0.728  11.933  21.849  0.00  0.00    +0.000 OA
ATOM      7  C   UNL     1       0.627  12.345  20.697  0.00  0.00    +0.000 C 
ATOM      8  N   UNL     1       1.398  13.417  20.214  0.00  0.00    +0.000 N 
ATOM      9  C   UNL     1       2.387  13.989  21.121  0.00  0.00    +0.000 C 
ATOM     10  C   UNL     1       2.647  15.464  20.833  0.00  0.00    +0.000 C 
ATOM     11  C   UNL     1       2.822  15.809  19.349  0.00  0.00    +0.000 C 
ATOM     12  C   UNL     1       1.823  15.076  18.454  0.00  0.00    +0.000 C 
ATOM     13  C   UNL     1       1.703  13.600  18.792  0.00  0.00    +0.000 C 
BRANCH  11  14
ATOM     14  N   UNL     1       4.207  15.711  18.891  0.00  0.00    +0.000 N 
ATOM     15  C   UNL     1       4.755  14.460  18.404  0.00  0.00    +0.000 C 
ATOM     16  C   UNL     1       6.067  14.889  17.770  0.00  0.00    +0.000 C 
ATOM     17  N   UNL     1       6.383  16.093  18.480  0.00  0.00    +0.000 N 
ATOM     18  C   UNL     1       5.226  16.661  18.995  0.00  0.00    +0.000 C 
ATOM     19  O   UNL     1       5.177  17.798  19.421  0.00  0.00    +0.000 OA
ATOM     20  H   UNL     1       7.166  16.705  18.290  0.00  0.00    +0.000 HD
ENDBRANCH  11  14
ENDBRANCH   1   7
BRANCH   5  21
ATOM     21  C   UNL     1       0.675   9.407  19.129  0.00  0.00    +0.000 A 
ATOM     22  C   UNL     1       0.952   8.676  20.294  0.00  0.00    +0.000 A 
ATOM     23  C   UNL     1       1.905   7.648  20.283  0.00  0.00    +0.000 A 
ATOM     24  C   UNL     1       2.600   7.356  19.113  0.00  0.00    +0.000 A 
ATOM     25 CL   UNL     1       3.786   6.107  19.107  0.00  0.00    +0.000 Cl
ATOM     26  C   UNL     1       2.346   8.073  17.949  0.00  0.00    +0.000 A 
ATOM     27  C   UNL     1       1.390   9.091  17.961  0.00  0.00    +0.000 A 
ENDBRANCH   5  21
BRANCH   3  28
ATOM     28  C   UNL     1      -3.272  11.801  17.673  0.00  0.00    +0.000 C 
BRANCH  28  29
ATOM     29  C   UNL     1      -4.543  11.639  18.476  0.00  0.00    +0.000 A 
ATOM     30  C   UNL     1      -5.508  10.684  18.116  0.00  0.00    +0.000 A 
ATOM     31  C   UNL     1      -6.652  10.499  18.891  0.00  0.00    +0.000 A 
ATOM     32  C   UNL     1      -6.850  11.257  20.045  0.00  0.00    +0.000 A 
ATOM     33  C   UNL     1      -5.902  12.211  20.418  0.00  0.00    +0.000 A 
ATOM     34  C   UNL     1      -4.756  12.399  19.639  0.00  0.00    +0.000 A 
ENDBRANCH  28  29
ENDBRANCH   3  28
TORSDOF 5
ENDMDL
