MODEL 1
REMARK VINA RESULT:      -9.3      0.000      0.000
REMARK  Name = 
REMARK  5 active torsions:
REMARK  status: ('A' for Active; 'I' for Inactive)
REMARK    1  A    between atoms: C_5  and  C_6
REMARK    2  A    between atoms: C_6  and  N_7
REMARK    3  A    between atoms: C_15  and  C_16
REMARK    4  A    between atoms: N_22  and  C_23
REMARK    5  A    between atoms: C_27  and  C_28
REMARK                            x       y       z     vdW  Elec       q    Type
REMARK                         _______ _______ _______ _____ _____    ______ ____
ROOT
ATOM      1  O   UNL     1       2.454   7.830  17.506  0.00  0.00    +0.000 OA
ATOM      2  C   UNL     1       2.057   7.838  18.661  0.00  0.00    +0.000 C 
ATOM      3  C   UNL     1       1.249   8.931  19.170  0.00  0.00    +0.000 A 
ATOM      4  C   UNL     1       0.796  10.009  18.444  0.00  0.00    +0.000 A 
ATOM      5  C   UNL     1      -0.009  10.938  19.098  0.00  0.00    +0.000 A 
ATOM      6  C   UNL     1      -0.258  10.773  20.482  0.00  0.00    +0.000 A 
ATOM      7  C   UNL     1       0.246   9.674  21.221  0.00  0.00    +0.000 A 
ATOM      8  C   UNL     1       0.992   8.733  20.521  0.00  0.00    +0.000 A 
ATOM      9  C   UNL     1       1.651   7.461  20.953  0.00  0.00    +0.000 C 
ATOM     10  N   UNL     1       2.254   6.963  19.720  0.00  0.00    +0.000 N 
ENDROOT
BRANCH  10  11
ATOM     11  C   UNL     1       3.073   5.811  19.653  0.00  0.00    +0.000 A 
ATOM     12  C   UNL     1       2.672   4.597  20.237  0.00  0.00    +0.000 A 
ATOM     13  C   UNL     1       3.403   3.425  20.053  0.00  0.00    +0.000 A 
ATOM     14  C   UNL     1       4.550   3.449  19.274  0.00  0.00    +0.000 A 
ATOM     15  C   UNL     1       4.972   4.660  18.726  0.00  0.00    +0.000 A 
ATOM     16  C   UNL     1       4.271   5.842  18.940  0.00  0.00    +0.000 A 
BRANCH  15  17
ATOM     17  C   UNL     1       6.148   4.664  17.844  0.00  0.00    +0.000 C 
ATOM     18  C   UNL     1       7.473   4.913  17.952  0.00  0.00    +0.000 C 
ATOM     19  O   UNL     1       7.751   4.705  16.714  0.00  0.00    +0.000 OA
ATOM     20  C   UNL     1       6.365   4.448  16.386  0.00  0.00    +0.000 C 
ENDBRANCH  15  17
ENDBRANCH  10  11
BRANCH   7  21
ATOM     21  C   UNL     1      -0.019   9.555  22.698  0.00  0.00    +0.000 C 
ATOM     22  F   UNL     1       1.103   9.329  23.433  0.00  0.00    +0.000 F 
ATOM     23  F   UNL     1      -0.588  10.678  23.215  0.00  0.00    +0.000 F 
ATOM     24  F   UNL     1      -0.872   8.536  22.991  0.00  0.00    +0.000 F 
ENDBRANCH   7  21
BRANCH   5  25
ATOM     25  C   UNL     1      -0.621  12.080  18.311  0.00  0.00    +0.000 C 
BRANCH  25  26
ATOM     26  N   UNL     1      -1.982  11.846  17.808  0.00  0.00    +0.000 NA
ATOM     27  C   UNL     1      -2.990  11.747  18.855  0.00  0.00    +0.000 C 
ATOM     28  C   UNL     1      -4.407  11.988  18.420  0.00  0.00    +0.000 C 
ATOM     29  C   UNL     1      -4.962  11.797  17.215  0.00  0.00    +0.000 C 
ATOM     30  O   UNL     1      -4.415  11.212  16.111  0.00  0.00    +0.000 OA
ATOM     31  C   UNL     1      -3.411  10.241  16.400  0.00  0.00    +0.000 C 
ATOM     32  C   UNL     1      -2.043  10.841  16.739  0.00  0.00    +0.000 C 
ENDBRANCH  25  26
ENDBRANCH   5  25
TORSDOF 5
ENDMDL
MODEL 2
REMARK VINA RESULT:      -9.1      2.656      3.556
REMARK  Name = 
REMARK  5 active torsions:
REMARK  status: ('A' for Active; 'I' for Inactive)
REMARK    1  A    between atoms: C_5  and  C_6
REMARK    2  A    between atoms: C_6  and  N_7
REMARK    3  A    between atoms: C_15  and  C_16
REMARK    4  A    between atoms: N_22  and  C_23
REMARK    5  A    between atoms: C_27  and  C_28
REMARK                            x       y       z     vdW  Elec       q    Type
REMARK                         _______ _______ _______ _____ _____    ______ ____
ROOT
ATOM      1  O   UNL     1       2.229   9.108  17.133  0.00  0.00    +0.000 OA
ATOM      2  C   UNL     1       1.848   8.837  18.261  0.00  0.00    +0.000 C 
ATOM      3  C   UNL     1       1.151   9.816  19.074  0.00  0.00    +0.000 A 
ATOM      4  C   UNL     1       0.794  11.086  18.683  0.00  0.00    +0.000 A 
ATOM      5  C   UNL     1       0.086  11.869  19.591  0.00  0.00    +0.000 A 
ATOM      6  C   UNL     1      -0.162  11.356  20.888  0.00  0.00    +0.000 A 
ATOM      7  C   UNL     1       0.245  10.058  21.284  0.00  0.00    +0.000 A 
ATOM      8  C   UNL     1       0.892   9.282  20.330  0.00  0.00    +0.000 A 
ATOM      9  C   UNL     1       1.433   7.887  20.379  0.00  0.00    +0.000 C 
ATOM     10  N   UNL     1       1.973   7.693  19.036  0.00  0.00    +0.000 N 
ENDROOT
BRANCH  10  11
ATOM     11  C   UNL     1       2.680   6.535  18.632  0.00  0.00    +0.000 A 
ATOM     12  C   UNL     1       2.096   5.259  18.714  0.00  0.00    +0.000 A 
ATOM     13  C   UNL     1       2.728   4.135  18.186  0.00  0.00    +0.000 A 
ATOM     14  C   UNL     1       3.958   4.273  17.560  0.00  0.00    +0.000 A 
ATOM     15  C   UNL     1       4.558   5.531  17.513  0.00  0.00    +0.000 A 
ATOM     16  C   UNL     1       3.953   6.649  18.075  0.00  0.00    +0.000 A 
BRANCH  15  17
ATOM     17  C   UNL     1       5.828   5.680  16.788  0.00  0.00    +0.000 C 
ATOM     18  C   UNL     1       7.027   6.271  16.990  0.00  0.00    +0.000 C 
ATOM     19  O   UNL     1       7.539   5.930  15.860  0.00  0.00    +0.000 OA
ATOM     20  C   UNL     1       6.318   5.278  15.439  0.00  0.00    +0.000 C 
ENDBRANCH  15  17
ENDBRANCH  10  11
BRANCH   7  21
ATOM     21  C   UNL     1      -0.014   9.566  22.684  0.00  0.00    +0.000 C 
ATOM     22  F   UNL     1       1.119   9.227  23.356  0.00  0.00    +0.000 F 
ATOM     23  F   UNL     1      -0.645  10.495  23.452  0.00  0.00    +0.000 F 
ATOM     24  F   UNL     1      -0.808   8.462  22.705  0.00  0.00    +0.000 F 
ENDBRANCH   7  21
BRANCH   5  25
ATOM     25  C   UNL     1      -0.424  13.230  19.165  0.00  0.00    +0.000 C 
BRANCH  25  26
ATOM     26  N   UNL     1       0.607  14.254  18.942  0.00  0.00    +0.000 NA
ATOM     27  C   UNL     1       1.729  14.173  19.867  0.00  0.00    +0.000 C 
ATOM     28  C   UNL     1       2.995  14.843  19.416  0.00  0.00    +0.000 C 
ATOM     29  C   UNL     1       3.147  15.883  18.584  0.00  0.00    +0.000 C 
ATOM     30  O   UNL     1       2.186  16.682  18.037  0.00  0.00    +0.000 OA
ATOM     31  C   UNL     1       1.000  16.790  18.822  0.00  0.00    +0.000 C 
ATOM     32  C   UNL     1       0.055  15.592  18.693  0.00  0.00    +0.000 C 
ENDBRANCH  25  26
ENDBRANCH   5  25
TORSDOF 5
ENDMDL
MODEL 3
REMARK VINA RESULT:      -9.1      2.577      3.586
REMARK  Name = 
REMARK  5 active torsions:
REMARK  status: ('A' for Active; 'I' for Inactive)
REMARK    1  A    between atoms: C_5  and  C_6
REMARK    2  A    between atoms: C_6  and  N_7
REMARK    3  A    between atoms: C_15  and  C_16
REMARK    4  A    between atoms: N_22  and  C_23
REMARK    5  A    between atoms: C_27  and  C_28
REMARK                            x       y       z     vdW  Elec       q    Type
REMARK                         _______ _______ _______ _____ _____    ______ ____
ROOT
ATOM      1  O   UNL     1       2.719   8.358  17.056  0.00  0.00    +0.000 OA
ATOM      2  C   UNL     1       2.257   8.227  18.179  0.00  0.00    +0.000 C 
ATOM      3  C   UNL     1       1.629   9.341  18.866  0.00  0.00    +0.000 A 
ATOM      4  C   UNL     1       1.426  10.599  18.350  0.00  0.00    +0.000 A 
ATOM      5  C   UNL     1       0.762  11.527  19.147  0.00  0.00    +0.000 A 
ATOM      6  C   UNL     1       0.398  11.160  20.466  0.00  0.00    +0.000 A 
ATOM      7  C   UNL     1       0.647   9.869  20.992  0.00  0.00    +0.000 A 
ATOM      8  C   UNL     1       1.255   8.949  20.145  0.00  0.00    +0.000 A 
ATOM      9  C   UNL     1       1.643   7.517  20.342  0.00  0.00    +0.000 C 
ATOM     10  N   UNL     1       2.224   7.150  19.053  0.00  0.00    +0.000 N 
ENDROOT
BRANCH  10  11
ATOM     11  C   UNL     1       2.824   5.897  18.789  0.00  0.00    +0.000 A 
ATOM     12  C   UNL     1       2.073   4.709  18.818  0.00  0.00    +0.000 A 
ATOM     13  C   UNL     1       2.623   3.492  18.419  0.00  0.00    +0.000 A 
ATOM     14  C   UNL     1       3.937   3.445  17.978  0.00  0.00    +0.000 A 
ATOM     15  C   UNL     1       4.697   4.615  17.986  0.00  0.00    +0.000 A 
ATOM     16  C   UNL     1       4.168   5.825  18.423  0.00  0.00    +0.000 A 
BRANCH  15  17
ATOM     17  C   UNL     1       6.065   4.571  17.452  0.00  0.00    +0.000 C 
ATOM     18  C   UNL     1       7.322   4.740  17.920  0.00  0.00    +0.000 C 
ATOM     19  O   UNL     1       7.913   4.546  16.794  0.00  0.00    +0.000 OA
ATOM     20  C   UNL     1       6.656   4.377  16.098  0.00  0.00    +0.000 C 
ENDBRANCH  15  17
ENDBRANCH  10  11
BRANCH   7  21
ATOM     21  C   UNL     1       0.271   9.531  22.411  0.00  0.00    +0.000 C 
ATOM     22  F   UNL     1       1.325   9.122  23.168  0.00  0.00    +0.000 F 
ATOM     23  F   UNL     1      -0.276  10.590  23.068  0.00  0.00    +0.000 F 
ATOM     24  F   UNL     1      -0.650   8.533  22.479  0.00  0.00    +0.000 F 
ENDBRANCH   7  21
BRANCH   5  25
ATOM     25  C   UNL     1       0.418  12.890  18.579  0.00  0.00    +0.000 C 
BRANCH  25  26
ATOM     26  N   UNL     1       1.343  13.977  18.931  0.00  0.00    +0.000 NA
ATOM     27  C   UNL     1       0.697  15.272  19.097  0.00  0.00    +0.000 C 
ATOM     28  C   UNL     1       1.464  16.284  19.897  0.00  0.00    +0.000 C 
ATOM     29  C   UNL     1       2.788  16.396  20.068  0.00  0.00    +0.000 C 
ATOM     30  O   UNL     1       3.786  15.698  19.452  0.00  0.00    +0.000 OA
ATOM     31  C   UNL     1       3.449  15.223  18.150  0.00  0.00    +0.000 C 
ATOM     32  C   UNL     1       2.587  13.956  18.152  0.00  0.00    +0.000 C 
ENDBRANCH  25  26
ENDBRANCH   5  25
TORSDOF 5
ENDMDL
MODEL 4
REMARK VINA RESULT:      -9.0      2.634      3.773
REMARK  Name = 
REMARK  5 active torsions:
REMARK  status: ('A' for Active; 'I' for Inactive)
REMARK    1  A    between atoms: C_5  and  C_6
REMARK    2  A    between atoms: C_6  and  N_7
REMARK    3  A    between atoms: C_15  and  C_16
REMARK    4  A    between atoms: N_22  and  C_23
REMARK    5  A    between atoms: C_27  and  C_28
REMARK                            x       y       z     vdW  Elec       q    Type
REMARK                         _______ _______ _______ _____ _____    ______ ____
ROOT
ATOM      1  O   UNL     1       2.707   8.333  17.039  0.00  0.00    +0.000 OA
ATOM      2  C   UNL     1       2.251   8.210  18.165  0.00  0.00    +0.000 C 
ATOM      3  C   UNL     1       1.617   9.324  18.845  0.00  0.00    +0.000 A 
ATOM      4  C   UNL     1       1.403  10.577  18.318  0.00  0.00    +0.000 A 
ATOM      5  C   UNL     1       0.735  11.507  19.110  0.00  0.00    +0.000 A 
ATOM      6  C   UNL     1       0.380  11.149  20.434  0.00  0.00    +0.000 A 
ATOM      7  C   UNL     1       0.641   9.864  20.971  0.00  0.00    +0.000 A 
ATOM      8  C   UNL     1       1.252   8.942  20.129  0.00  0.00    +0.000 A 
ATOM      9  C   UNL     1       1.652   7.514  20.337  0.00  0.00    +0.000 C 
ATOM     10  N   UNL     1       2.230   7.140  19.049  0.00  0.00    +0.000 N 
ENDROOT
BRANCH  10  11
ATOM     11  C   UNL     1       2.839   5.889  18.794  0.00  0.00    +0.000 A 
ATOM     12  C   UNL     1       2.097   4.695  18.840  0.00  0.00    +0.000 A 
ATOM     13  C   UNL     1       2.654   3.478  18.450  0.00  0.00    +0.000 A 
ATOM     14  C   UNL     1       3.965   3.438  18.000  0.00  0.00    +0.000 A 
ATOM     15  C   UNL     1       4.716   4.614  17.991  0.00  0.00    +0.000 A 
ATOM     16  C   UNL     1       4.181   5.824  18.419  0.00  0.00    +0.000 A 
BRANCH  15  17
ATOM     17  C   UNL     1       6.081   4.575  17.448  0.00  0.00    +0.000 C 
ATOM     18  C   UNL     1       7.340   4.753  17.907  0.00  0.00    +0.000 C 
ATOM     19  O   UNL     1       7.924   4.557  16.778  0.00  0.00    +0.000 OA
ATOM     20  C   UNL     1       6.664   4.379  16.091  0.00  0.00    +0.000 C 
ENDBRANCH  15  17
ENDBRANCH  10  11
BRANCH   7  21
ATOM     21  C   UNL     1       0.274   9.537  22.394  0.00  0.00    +0.000 C 
ATOM     22  F   UNL     1      -0.656   8.549  22.500  0.00  0.00    +0.000 F 
ATOM     23  F   UNL     1       1.346   9.125  23.125  0.00  0.00    +0.000 F 
ATOM     24  F   UNL     1      -0.239  10.609  23.055  0.00  0.00    +0.000 F 
ENDBRANCH   7  21
BRANCH   5  25
ATOM     25  C   UNL     1       0.379  12.861  18.532  0.00  0.00    +0.000 C 
BRANCH  25  26
ATOM     26  N   UNL     1       1.380  13.920  18.729  0.00  0.00    +0.000 NA
ATOM     27  C   UNL     1       2.754  13.476  18.535  0.00  0.00    +0.000 C 
ATOM     28  C   UNL     1       3.754  14.559  18.250  0.00  0.00    +0.000 C 
ATOM     29  C   UNL     1       3.725  15.848  18.612  0.00  0.00    +0.000 C 
ATOM     30  O   UNL     1       2.845  16.479  19.443  0.00  0.00    +0.000 OA
ATOM     31  C   UNL     1       2.263  15.629  20.430  0.00  0.00    +0.000 C 
ATOM     32  C   UNL     1       1.119  14.756  19.906  0.00  0.00    +0.000 C 
ENDBRANCH  25  26
ENDBRANCH   5  25
TORSDOF 5
ENDMDL
MODEL 5
REMARK VINA RESULT:      -8.9      3.317      5.334
REMARK  Name = 
REMARK  5 active torsions:
REMARK  status: ('A' for Active; 'I' for Inactive)
REMARK    1  A    between atoms: C_5  and  C_6
REMARK    2  A    between atoms: C_6  and  N_7
REMARK    3  A    between atoms: C_15  and  C_16
REMARK    4  A    between atoms: N_22  and  C_23
REMARK    5  A    between atoms: C_27  and  C_28
REMARK                            x       y       z     vdW  Elec       q    Type
REMARK                         _______ _______ _______ _____ _____    ______ ____
ROOT
ATOM      1  O   UNL     1       4.266   7.770  17.211  0.00  0.00    +0.000 OA
ATOM      2  C   UNL     1       3.959   6.649  17.587  0.00  0.00    +0.000 C 
ATOM      3  C   UNL     1       3.073   6.453  18.720  0.00  0.00    +0.000 A 
ATOM      4  C   UNL     1       2.450   7.446  19.440  0.00  0.00    +0.000 A 
ATOM      5  C   UNL     1       1.596   7.060  20.470  0.00  0.00    +0.000 A 
ATOM      6  C   UNL     1       1.472   5.682  20.775  0.00  0.00    +0.000 A 
ATOM      7  C   UNL     1       2.150   4.676  20.044  0.00  0.00    +0.000 A 
ATOM      8  C   UNL     1       2.943   5.096  18.982  0.00  0.00    +0.000 A 
ATOM      9  C   UNL     1       3.771   4.334  17.994  0.00  0.00    +0.000 C 
ATOM     10  N   UNL     1       4.332   5.386  17.150  0.00  0.00    +0.000 N 
ENDROOT
BRANCH  10  11
ATOM     11  C   UNL     1       5.268   5.149  16.116  0.00  0.00    +0.000 A 
ATOM     12  C   UNL     1       6.641   5.379  16.310  0.00  0.00    +0.000 A 
ATOM     13  C   UNL     1       7.582   5.014  15.349  0.00  0.00    +0.000 A 
ATOM     14  C   UNL     1       7.162   4.405  14.176  0.00  0.00    +0.000 A 
ATOM     15  C   UNL     1       5.797   4.212  13.963  0.00  0.00    +0.000 A 
ATOM     16  C   UNL     1       4.849   4.612  14.899  0.00  0.00    +0.000 A 
BRANCH  15  17
ATOM     17  C   UNL     1       5.365   3.503  12.750  0.00  0.00    +0.000 C 
ATOM     18  C   UNL     1       4.288   3.494  11.933  0.00  0.00    +0.000 C 
ATOM     19  O   UNL     1       4.725   2.577  11.143  0.00  0.00    +0.000 OA
ATOM     20  C   UNL     1       5.934   2.405  11.920  0.00  0.00    +0.000 C 
ENDBRANCH  15  17
ENDBRANCH  10  11
BRANCH   7  21
ATOM     21  C   UNL     1       2.012   3.225  20.423  0.00  0.00    +0.000 C 
ATOM     22  F   UNL     1       1.253   3.026  21.535  0.00  0.00    +0.000 F 
ATOM     23  F   UNL     1       1.438   2.484  19.437  0.00  0.00    +0.000 F 
ATOM     24  F   UNL     1       3.214   2.641  20.678  0.00  0.00    +0.000 F 
ENDBRANCH   7  21
BRANCH   5  25
ATOM     25  C   UNL     1       0.802   8.113  21.216  0.00  0.00    +0.000 C 
BRANCH  25  26
ATOM     26  N   UNL     1       0.663   9.407  20.532  0.00  0.00    +0.000 NA
ATOM     27  C   UNL     1       0.906  10.558  21.390  0.00  0.00    +0.000 C 
ATOM     28  C   UNL     1       1.247  11.838  20.683  0.00  0.00    +0.000 C 
ATOM     29  C   UNL     1       0.904  12.236  19.451  0.00  0.00    +0.000 C 
ATOM     30  O   UNL     1       0.048  11.639  18.572  0.00  0.00    +0.000 OA
ATOM     31  C   UNL     1      -0.975  10.861  19.190  0.00  0.00    +0.000 C 
ATOM     32  C   UNL     1      -0.512   9.477  19.654  0.00  0.00    +0.000 C 
ENDBRANCH  25  26
ENDBRANCH   5  25
TORSDOF 5
ENDMDL
MODEL 6
REMARK VINA RESULT:      -8.9      3.100      4.368
REMARK  Name = 
REMARK  5 active torsions:
REMARK  status: ('A' for Active; 'I' for Inactive)
REMARK    1  A    between atoms: C_5  and  C_6
REMARK    2  A    between atoms: C_6  and  N_7
REMARK    3  A    between atoms: C_15  and  C_16
REMARK    4  A    between atoms: N_22  and  C_23
REMARK    5  A    between atoms: C_27  and  C_28
REMARK                            x       y       z     vdW  Elec       q    Type
REMARK                         _______ _______ _______ _____ _____    ______ ____
ROOT
ATOM      1  O   UNL     1       2.202   9.934  17.181  0.00  0.00    +0.000 OA
ATOM      2  C   UNL     1       1.795   9.511  18.253  0.00  0.00    +0.000 C 
ATOM      3  C   UNL     1       1.090  10.375  19.182  0.00  0.00    +0.000 A 
ATOM      4  C   UNL     1       0.752  11.690  18.966  0.00  0.00    +0.000 A 
ATOM      5  C   UNL     1       0.032  12.346  19.961  0.00  0.00    +0.000 A 
ATOM      6  C   UNL     1      -0.247  11.659  21.168  0.00  0.00    +0.000 A 
ATOM      7  C   UNL     1       0.141  10.315  21.386  0.00  0.00    +0.000 A 
ATOM      8  C   UNL     1       0.801   9.673  20.345  0.00  0.00    +0.000 A 
ATOM      9  C   UNL     1       1.329   8.279  20.208  0.00  0.00    +0.000 C 
ATOM     10  N   UNL     1       1.895   8.268  18.862  0.00  0.00    +0.000 N 
ENDROOT
BRANCH  10  11
ATOM     11  C   UNL     1       2.600   7.171  18.313  0.00  0.00    +0.000 A 
ATOM     12  C   UNL     1       3.833   7.350  17.663  0.00  0.00    +0.000 A 
ATOM     13  C   UNL     1       4.601   6.263  17.248  0.00  0.00    +0.000 A 
ATOM     14  C   UNL     1       4.146   4.974  17.483  0.00  0.00    +0.000 A 
ATOM     15  C   UNL     1       2.904   4.794  18.093  0.00  0.00    +0.000 A 
ATOM     16  C   UNL     1       2.113   5.874  18.471  0.00  0.00    +0.000 A 
BRANCH  15  17
ATOM     17  C   UNL     1       2.461   3.427  18.402  0.00  0.00    +0.000 C 
ATOM     18  C   UNL     1       1.315   2.811  18.765  0.00  0.00    +0.000 C 
ATOM     19  O   UNL     1       1.816   1.628  18.844  0.00  0.00    +0.000 OA
ATOM     20  C   UNL     1       3.140   2.105  18.510  0.00  0.00    +0.000 C 
ENDBRANCH  15  17
ENDBRANCH  10  11
BRANCH   7  21
ATOM     21  C   UNL     1      -0.151   9.634  22.697  0.00  0.00    +0.000 C 
ATOM     22  F   UNL     1      -0.865   8.484  22.563  0.00  0.00    +0.000 F 
ATOM     23  F   UNL     1       0.984   9.297  23.370  0.00  0.00    +0.000 F 
ATOM     24  F   UNL     1      -0.865  10.424  23.543  0.00  0.00    +0.000 F 
ENDBRANCH   7  21
BRANCH   5  25
ATOM     25  C   UNL     1      -0.458  13.760  19.720  0.00  0.00    +0.000 C 
BRANCH  25  26
ATOM     26  N   UNL     1       0.570  14.728  19.311  0.00  0.00    +0.000 NA
ATOM     27  C   UNL     1       1.608  14.944  20.309  0.00  0.00    +0.000 C 
ATOM     28  C   UNL     1       2.896  15.520  19.795  0.00  0.00    +0.000 C 
ATOM     29  C   UNL     1       3.102  16.303  18.728  0.00  0.00    +0.000 C 
ATOM     30  O   UNL     1       2.178  16.886  17.911  0.00  0.00    +0.000 OA
ATOM     31  C   UNL     1       0.926  17.152  18.541  0.00  0.00    +0.000 C 
ATOM     32  C   UNL     1       0.017  15.926  18.666  0.00  0.00    +0.000 C 
ENDBRANCH  25  26
ENDBRANCH   5  25
TORSDOF 5
ENDMDL
MODEL 7
REMARK VINA RESULT:      -8.9      2.609      3.489
REMARK  Name = 
REMARK  5 active torsions:
REMARK  status: ('A' for Active; 'I' for Inactive)
REMARK    1  A    between atoms: C_5  and  C_6
REMARK    2  A    between atoms: C_6  and  N_7
REMARK    3  A    between atoms: C_15  and  C_16
REMARK    4  A    between atoms: N_22  and  C_23
REMARK    5  A    between atoms: C_27  and  C_28
REMARK                            x       y       z     vdW  Elec       q    Type
REMARK                         _______ _______ _______ _____ _____    ______ ____
ROOT
ATOM      1  O   UNL     1       2.346   8.928  17.118  0.00  0.00    +0.000 OA
ATOM      2  C   UNL     1       1.942   8.709  18.249  0.00  0.00    +0.000 C 
ATOM      3  C   UNL     1       1.213   9.718  18.995  0.00  0.00    +0.000 A 
ATOM      4  C   UNL     1       0.848  10.960  18.531  0.00  0.00    +0.000 A 
ATOM      5  C   UNL     1       0.109  11.778  19.382  0.00  0.00    +0.000 A 
ATOM      6  C   UNL     1      -0.164  11.327  20.697  0.00  0.00    +0.000 A 
ATOM      7  C   UNL     1       0.251  10.058  21.168  0.00  0.00    +0.000 A 
ATOM      8  C   UNL     1       0.931   9.244  20.270  0.00  0.00    +0.000 A 
ATOM      9  C   UNL     1       1.490   7.861  20.403  0.00  0.00    +0.000 C 
ATOM     10  N   UNL     1       2.064   7.607  19.084  0.00  0.00    +0.000 N 
ENDROOT
BRANCH  10  11
ATOM     11  C   UNL     1       2.796   6.441  18.756  0.00  0.00    +0.000 A 
ATOM     12  C   UNL     1       2.278   5.160  19.011  0.00  0.00    +0.000 A 
ATOM     13  C   UNL     1       2.927   4.011  18.562  0.00  0.00    +0.000 A 
ATOM     14  C   UNL     1       4.106   4.128  17.842  0.00  0.00    +0.000 A 
ATOM     15  C   UNL     1       4.644   5.396  17.622  0.00  0.00    +0.000 A 
ATOM     16  C   UNL     1       4.025   6.544  18.104  0.00  0.00    +0.000 A 
BRANCH  15  17
ATOM     17  C   UNL     1       5.855   5.515  16.799  0.00  0.00    +0.000 C 
ATOM     18  C   UNL     1       7.061   6.121  16.885  0.00  0.00    +0.000 C 
ATOM     19  O   UNL     1       7.492   5.728  15.738  0.00  0.00    +0.000 OA
ATOM     20  C   UNL     1       6.249   5.051  15.439  0.00  0.00    +0.000 C 
ENDBRANCH  15  17
ENDBRANCH  10  11
BRANCH   7  21
ATOM     21  C   UNL     1      -0.034   9.633  22.585  0.00  0.00    +0.000 C 
ATOM     22  F   UNL     1      -0.853   8.550  22.671  0.00  0.00    +0.000 F 
ATOM     23  F   UNL     1       1.098   9.304  23.265  0.00  0.00    +0.000 F 
ATOM     24  F   UNL     1      -0.633  10.616  23.309  0.00  0.00    +0.000 F 
ENDBRANCH   7  21
BRANCH   5  25
ATOM     25  C   UNL     1      -0.410  13.108  18.875  0.00  0.00    +0.000 C 
BRANCH  25  26
ATOM     26  N   UNL     1       0.399  14.283  19.231  0.00  0.00    +0.000 NA
ATOM     27  C   UNL     1      -0.304  15.550  19.085  0.00  0.00    +0.000 C 
ATOM     28  C   UNL     1       0.265  16.704  19.858  0.00  0.00    +0.000 C 
ATOM     29  C   UNL     1       1.528  16.912  20.253  0.00  0.00    +0.000 C 
ATOM     30  O   UNL     1       2.646  16.193  19.940  0.00  0.00    +0.000 OA
ATOM     31  C   UNL     1       2.578  15.527  18.681  0.00  0.00    +0.000 C 
ATOM     32  C   UNL     1       1.769  14.226  18.707  0.00  0.00    +0.000 C 
ENDBRANCH  25  26
ENDBRANCH   5  25
TORSDOF 5
ENDMDL
MODEL 8
REMARK VINA RESULT:      -8.8      2.375      3.339
REMARK  Name = 
REMARK  5 active torsions:
REMARK  status: ('A' for Active; 'I' for Inactive)
REMARK    1  A    between atoms: C_5  and  C_6
REMARK    2  A    between atoms: C_6  and  N_7
REMARK    3  A    between atoms: C_15  and  C_16
REMARK    4  A    between atoms: N_22  and  C_23
REMARK    5  A    between atoms: C_27  and  C_28
REMARK                            x       y       z     vdW  Elec       q    Type
REMARK                         _______ _______ _______ _____ _____    ______ ____
ROOT
ATOM      1  O   UNL     1       2.303   8.788  17.269  0.00  0.00    +0.000 OA
ATOM      2  C   UNL     1       1.908   8.619  18.413  0.00  0.00    +0.000 C 
ATOM      3  C   UNL     1       1.065   9.601  19.069  0.00  0.00    +0.000 A 
ATOM      4  C   UNL     1       0.577  10.755  18.502  0.00  0.00    +0.000 A 
ATOM      5  C   UNL     1      -0.258  11.555  19.278  0.00  0.00    +0.000 A 
ATOM      6  C   UNL     1      -0.499  11.187  20.625  0.00  0.00    +0.000 A 
ATOM      7  C   UNL     1       0.041  10.012  21.201  0.00  0.00    +0.000 A 
ATOM      8  C   UNL     1       0.817   9.205  20.377  0.00  0.00    +0.000 A 
ATOM      9  C   UNL     1       1.517   7.906  20.626  0.00  0.00    +0.000 C 
ATOM     10  N   UNL     1       2.135   7.608  19.337  0.00  0.00    +0.000 N 
ENDROOT
BRANCH  10  11
ATOM     11  C   UNL     1       2.991   6.505  19.110  0.00  0.00    +0.000 A 
ATOM     12  C   UNL     1       2.860   5.317  19.850  0.00  0.00    +0.000 A 
ATOM     13  C   UNL     1       3.602   4.180  19.536  0.00  0.00    +0.000 A 
ATOM     14  C   UNL     1       4.486   4.212  18.468  0.00  0.00    +0.000 A 
ATOM     15  C   UNL     1       4.647   5.401  17.756  0.00  0.00    +0.000 A 
ATOM     16  C   UNL     1       3.942   6.552  18.091  0.00  0.00    +0.000 A 
BRANCH  15  17
ATOM     17  C   UNL     1       5.532   5.407  16.584  0.00  0.00    +0.000 C 
ATOM     18  C   UNL     1       5.450   5.739  15.276  0.00  0.00    +0.000 C 
ATOM     19  O   UNL     1       6.660   5.419  14.978  0.00  0.00    +0.000 OA
ATOM     20  C   UNL     1       6.932   4.967  16.325  0.00  0.00    +0.000 C 
ENDBRANCH  15  17
ENDBRANCH  10  11
BRANCH   7  21
ATOM     21  C   UNL     1      -0.217   9.675  22.646  0.00  0.00    +0.000 C 
ATOM     22  F   UNL     1      -0.888  10.650  23.318  0.00  0.00    +0.000 F 
ATOM     23  F   UNL     1      -0.957   8.542  22.790  0.00  0.00    +0.000 F 
ATOM     24  F   UNL     1       0.932   9.462  23.341  0.00  0.00    +0.000 F 
ENDBRANCH   7  21
BRANCH   5  25
ATOM     25  C   UNL     1      -0.908  12.777  18.661  0.00  0.00    +0.000 C 
BRANCH  25  26
ATOM     26  N   UNL     1      -0.234  14.057  18.925  0.00  0.00    +0.000 NA
ATOM     27  C   UNL     1       1.220  13.978  18.889  0.00  0.00    +0.000 C 
ATOM     28  C   UNL     1       1.938  15.279  18.674  0.00  0.00    +0.000 C 
ATOM     29  C   UNL     1       1.543  16.520  18.988  0.00  0.00    +0.000 C 
ATOM     30  O   UNL     1       0.447  16.909  19.702  0.00  0.00    +0.000 OA
ATOM     31  C   UNL     1      -0.003  15.945  20.651  0.00  0.00    +0.000 C 
ATOM     32  C   UNL     1      -0.825  14.805  20.041  0.00  0.00    +0.000 C 
ENDBRANCH  25  26
ENDBRANCH   5  25
TORSDOF 5
ENDMDL
MODEL 9
REMARK VINA RESULT:      -8.8      3.418      5.469
REMARK  Name = 
REMARK  5 active torsions:
REMARK  status: ('A' for Active; 'I' for Inactive)
REMARK    1  A    between atoms: C_5  and  C_6
REMARK    2  A    between atoms: C_6  and  N_7
REMARK    3  A    between atoms: C_15  and  C_16
REMARK    4  A    between atoms: N_22  and  C_23
REMARK    5  A    between atoms: C_27  and  C_28
REMARK                            x       y       z     vdW  Elec       q    Type
REMARK                         _______ _______ _______ _____ _____    ______ ____
ROOT
ATOM      1  O   UNL     1       4.649   7.581  17.420  0.00  0.00    +0.000 OA
ATOM      2  C   UNL     1       4.123   6.490  17.579  0.00  0.00    +0.000 C 
ATOM      3  C   UNL     1       3.149   6.273  18.633  0.00  0.00    +0.000 A 
ATOM      4  C   UNL     1       2.671   7.226  19.501  0.00  0.00    +0.000 A 
ATOM      5  C   UNL     1       1.701   6.836  20.421  0.00  0.00    +0.000 A 
ATOM      6  C   UNL     1       1.312   5.474  20.469  0.00  0.00    +0.000 A 
ATOM      7  C   UNL     1       1.842   4.500  19.589  0.00  0.00    +0.000 A 
ATOM      8  C   UNL     1       2.761   4.939  18.642  0.00  0.00    +0.000 A 
ATOM      9  C   UNL     1       3.498   4.217  17.558  0.00  0.00    +0.000 C 
ATOM     10  N   UNL     1       4.289   5.273  16.933  0.00  0.00    +0.000 N 
ENDROOT
BRANCH  10  11
ATOM     11  C   UNL     1       5.229   5.046  15.900  0.00  0.00    +0.000 A 
ATOM     12  C   UNL     1       6.592   5.340  16.078  0.00  0.00    +0.000 A 
ATOM     13  C   UNL     1       7.542   4.987  15.122  0.00  0.00    +0.000 A 
ATOM     14  C   UNL     1       7.142   4.327  13.970  0.00  0.00    +0.000 A 
ATOM     15  C   UNL     1       5.785   4.070  13.772  0.00  0.00    +0.000 A 
ATOM     16  C   UNL     1       4.826   4.457  14.701  0.00  0.00    +0.000 A 
BRANCH  15  17
ATOM     17  C   UNL     1       5.378   3.309  12.583  0.00  0.00    +0.000 C 
ATOM     18  C   UNL     1       5.869   2.298  11.830  0.00  0.00    +0.000 C 
ATOM     19  O   UNL     1       4.897   2.271  10.988  0.00  0.00    +0.000 OA
ATOM     20  C   UNL     1       4.232   3.383  11.633  0.00  0.00    +0.000 C 
ENDBRANCH  15  17
ENDBRANCH  10  11
BRANCH   7  21
ATOM     21  C   UNL     1       1.423   3.058  19.696  0.00  0.00    +0.000 C 
ATOM     22  F   UNL     1       0.714   2.783  20.824  0.00  0.00    +0.000 F 
ATOM     23  F   UNL     1       0.641   2.666  18.654  0.00  0.00    +0.000 F 
ATOM     24  F   UNL     1       2.486   2.209  19.705  0.00  0.00    +0.000 F 
ENDBRANCH   7  21
BRANCH   5  25
ATOM     25  C   UNL     1       1.065   7.875  21.322  0.00  0.00    +0.000 C 
BRANCH  25  26
ATOM     26  N   UNL     1       0.339   8.954  20.634  0.00  0.00    +0.000 NA
ATOM     27  C   UNL     1       1.007   9.444  19.436  0.00  0.00    +0.000 C 
ATOM     28  C   UNL     1       0.133  10.170  18.455  0.00  0.00    +0.000 C 
ATOM     29  C   UNL     1      -0.992  10.861  18.680  0.00  0.00    +0.000 C 
ATOM     30  O   UNL     1      -1.562  11.192  19.875  0.00  0.00    +0.000 OA
ATOM     31  C   UNL     1      -0.635  11.309  20.951  0.00  0.00    +0.000 C 
ATOM     32  C   UNL     1      -0.200   9.968  21.549  0.00  0.00    +0.000 C 
ENDBRANCH  25  26
ENDBRANCH   5  25
TORSDOF 5
ENDMDL
