MODEL 1
REMARK VINA RESULT:      -8.8      0.000      0.000
REMARK  Name = 
REMARK  5 active torsions:
REMARK  status: ('A' for Active; 'I' for Inactive)
REMARK    1  A    between atoms: C_2  and  C_18
REMARK    2  A    between atoms: N_3  and  C_4
REMARK    3  A    between atoms: C_8  and  S_9
REMARK    4  A    between atoms: S_9  and  N_12
REMARK    5  A    between atoms: C_22  and  N_23
REMARK                            x       y       z     vdW  Elec       q    Type
REMARK                         _______ _______ _______ _____ _____    ______ ____
ROOT
ATOM      1  O   UNL     1       1.987   8.191  17.902  0.00  0.00    +0.000 OA
ATOM      2  C   UNL     1       2.055   7.874  19.085  0.00  0.00    +0.000 C 
ATOM      3  N   UNL     1       2.592   6.698  19.601  0.00  0.00    +0.000 N 
ATOM      4  H   UNL     1       2.401   6.486  20.575  0.00  0.00    +0.000 HD
ENDROOT
BRANCH   3   5
ATOM      5  C   UNL     1       3.089   5.636  18.806  0.00  0.00    +0.000 A 
ATOM      6  C   UNL     1       2.741   4.303  19.054  0.00  0.00    +0.000 A 
ATOM      7  C   UNL     1       3.409   3.257  18.427  0.00  0.00    +0.000 A 
ATOM      8  C   UNL     1       4.385   3.531  17.483  0.00  0.00    +0.000 A 
ATOM      9  C   UNL     1       4.623   4.854  17.103  0.00  0.00    +0.000 A 
ATOM     10  C   UNL     1       4.005   5.918  17.783  0.00  0.00    +0.000 A 
BRANCH   9  11
ATOM     11  S   UNL     1       5.794   5.167  15.795  0.00  0.00    +0.000 S 
ATOM     12  O   UNL     1       5.983   3.923  15.081  0.00  0.00    +0.000 OA
ATOM     13  O   UNL     1       5.364   6.367  15.107  0.00  0.00    +0.000 OA
BRANCH  11  14
ATOM     14  N   UNL     1       7.226   5.524  16.624  0.00  0.00    +0.000 NA
ATOM     15  C   UNL     1       7.673   4.636  17.708  0.00  0.00    +0.000 C 
ATOM     16  C   UNL     1       7.498   5.464  18.967  0.00  0.00    +0.000 C 
ATOM     17  C   UNL     1       7.792   6.885  18.522  0.00  0.00    +0.000 C 
ATOM     18  C   UNL     1       7.501   6.923  17.023  0.00  0.00    +0.000 C 
ENDBRANCH  11  14
ENDBRANCH   9  11
ENDBRANCH   3   5
BRANCH   2  19
ATOM     19  C   UNL     1       1.427   8.801  20.053  0.00  0.00    +0.000 A 
ATOM     20  C   UNL     1       1.191   8.328  21.348  0.00  0.00    +0.000 A 
ATOM     21  C   UNL     1       0.584   9.152  22.283  0.00  0.00    +0.000 A 
ATOM     22  C   UNL     1       0.221  10.453  21.928  0.00  0.00    +0.000 A 
ATOM     23  C   UNL     1       0.448  10.948  20.636  0.00  0.00    +0.000 A 
ATOM     24  C   UNL     1       1.039  10.095  19.692  0.00  0.00    +0.000 A 
BRANCH  23  25
ATOM     25  N   UNL     1       0.144  12.289  20.297  0.00  0.00    +0.000 N 
ATOM     26  C   UNL     1      -0.931  12.653  19.406  0.00  0.00    +0.000 C 
ATOM     27  C   UNL     1      -0.471  13.972  18.826  0.00  0.00    +0.000 C 
ATOM     28  C   UNL     1       0.267  14.618  19.985  0.00  0.00    +0.000 C 
ATOM     29  C   UNL     1       0.831  13.433  20.734  0.00  0.00    +0.000 C 
ATOM     30  O   UNL     1       1.702  13.535  21.584  0.00  0.00    +0.000 OA
ENDBRANCH  23  25
ENDBRANCH   2  19
TORSDOF 5
ENDMDL
MODEL 2
REMARK VINA RESULT:      -8.6      1.021      1.251
REMARK  Name = 
REMARK  5 active torsions:
REMARK  status: ('A' for Active; 'I' for Inactive)
REMARK    1  A    between atoms: C_2  and  C_18
REMARK    2  A    between atoms: N_3  and  C_4
REMARK    3  A    between atoms: C_8  and  S_9
REMARK    4  A    between atoms: S_9  and  N_12
REMARK    5  A    between atoms: C_22  and  N_23
REMARK                            x       y       z     vdW  Elec       q    Type
REMARK                         _______ _______ _______ _____ _____    ______ ____
ROOT
ATOM      1  O   UNL     1       1.578   8.410  17.966  0.00  0.00    +0.000 OA
ATOM      2  C   UNL     1       1.789   8.078  19.128  0.00  0.00    +0.000 C 
ATOM      3  N   UNL     1       2.458   6.936  19.558  0.00  0.00    +0.000 N 
ATOM      4  H   UNL     1       2.383   6.693  20.541  0.00  0.00    +0.000 HD
ENDROOT
BRANCH   3   5
ATOM      5  C   UNL     1       2.943   5.927  18.691  0.00  0.00    +0.000 A 
ATOM      6  C   UNL     1       2.609   4.579  18.865  0.00  0.00    +0.000 A 
ATOM      7  C   UNL     1       3.269   3.576  18.164  0.00  0.00    +0.000 A 
ATOM      8  C   UNL     1       4.224   3.913  17.217  0.00  0.00    +0.000 A 
ATOM      9  C   UNL     1       4.446   5.258  16.912  0.00  0.00    +0.000 A 
ATOM     10  C   UNL     1       3.836   6.275  17.667  0.00  0.00    +0.000 A 
BRANCH   9  11
ATOM     11  S   UNL     1       5.587   5.657  15.601  0.00  0.00    +0.000 S 
ATOM     12  O   UNL     1       5.650   4.509  14.722  0.00  0.00    +0.000 OA
ATOM     13  O   UNL     1       5.227   6.967  15.097  0.00  0.00    +0.000 OA
BRANCH  11  14
ATOM     14  N   UNL     1       7.073   5.794  16.399  0.00  0.00    +0.000 NA
ATOM     15  C   UNL     1       7.622   4.627  17.108  0.00  0.00    +0.000 C 
ATOM     16  C   UNL     1       7.532   5.003  18.575  0.00  0.00    +0.000 C 
ATOM     17  C   UNL     1       7.764   6.503  18.589  0.00  0.00    +0.000 C 
ATOM     18  C   UNL     1       7.354   7.003  17.205  0.00  0.00    +0.000 C 
ENDBRANCH  11  14
ENDBRANCH   9  11
ENDBRANCH   3   5
BRANCH   2  19
ATOM     19  C   UNL     1       1.201   8.940  20.177  0.00  0.00    +0.000 A 
ATOM     20  C   UNL     1       1.010   8.383  21.446  0.00  0.00    +0.000 A 
ATOM     21  C   UNL     1       0.441   9.145  22.456  0.00  0.00    +0.000 A 
ATOM     22  C   UNL     1       0.069  10.466  22.201  0.00  0.00    +0.000 A 
ATOM     23  C   UNL     1       0.251  11.045  20.936  0.00  0.00    +0.000 A 
ATOM     24  C   UNL     1       0.804  10.256  19.917  0.00  0.00    +0.000 A 
BRANCH  23  25
ATOM     25  N   UNL     1      -0.061  12.406  20.697  0.00  0.00    +0.000 N 
ATOM     26  C   UNL     1       0.791  13.495  21.112  0.00  0.00    +0.000 C 
ATOM     27  C   UNL     1      -0.174  14.646  21.285  0.00  0.00    +0.000 C 
ATOM     28  C   UNL     1      -1.199  14.402  20.193  0.00  0.00    +0.000 C 
ATOM     29  C   UNL     1      -1.217  12.896  20.070  0.00  0.00    +0.000 C 
ATOM     30  O   UNL     1      -2.094  12.286  19.479  0.00  0.00    +0.000 OA
ENDBRANCH  23  25
ENDBRANCH   2  19
TORSDOF 5
ENDMDL
MODEL 3
REMARK VINA RESULT:      -8.6      2.956      4.777
REMARK  Name = 
REMARK  5 active torsions:
REMARK  status: ('A' for Active; 'I' for Inactive)
REMARK    1  A    between atoms: C_2  and  C_18
REMARK    2  A    between atoms: N_3  and  C_4
REMARK    3  A    between atoms: C_8  and  S_9
REMARK    4  A    between atoms: S_9  and  N_12
REMARK    5  A    between atoms: C_22  and  N_23
REMARK                            x       y       z     vdW  Elec       q    Type
REMARK                         _______ _______ _______ _____ _____    ______ ____
ROOT
ATOM      1  O   UNL     1       1.620   8.696  19.895  0.00  0.00    +0.000 OA
ATOM      2  C   UNL     1       1.519   9.154  18.762  0.00  0.00    +0.000 C 
ATOM      3  N   UNL     1       2.125   8.663  17.609  0.00  0.00    +0.000 N 
ATOM      4  H   UNL     1       2.113   9.256  16.786  0.00  0.00    +0.000 HD
ENDROOT
BRANCH   3   5
ATOM      5  C   UNL     1       3.029   7.572  17.591  0.00  0.00    +0.000 A 
ATOM      6  C   UNL     1       4.354   7.718  17.167  0.00  0.00    +0.000 A 
ATOM      7  C   UNL     1       5.160   6.609  16.929  0.00  0.00    +0.000 A 
ATOM      8  C   UNL     1       4.674   5.337  17.187  0.00  0.00    +0.000 A 
ATOM      9  C   UNL     1       3.414   5.187  17.770  0.00  0.00    +0.000 A 
ATOM     10  C   UNL     1       2.568   6.295  17.945  0.00  0.00    +0.000 A 
BRANCH   9  11
ATOM     11  S   UNL     1       2.868   3.547  18.207  0.00  0.00    +0.000 S 
ATOM     12  O   UNL     1       2.066   3.053  17.108  0.00  0.00    +0.000 OA
ATOM     13  O   UNL     1       4.027   2.815  18.676  0.00  0.00    +0.000 OA
BRANCH  11  14
ATOM     14  N   UNL     1       1.846   3.811  19.531  0.00  0.00    +0.000 NA
ATOM     15  C   UNL     1       2.371   4.493  20.723  0.00  0.00    +0.000 C 
ATOM     16  C   UNL     1       2.405   3.412  21.788  0.00  0.00    +0.000 C 
ATOM     17  C   UNL     1       1.211   2.533  21.465  0.00  0.00    +0.000 C 
ATOM     18  C   UNL     1       0.941   2.727  19.973  0.00  0.00    +0.000 C 
ENDBRANCH  11  14
ENDBRANCH   9  11
ENDBRANCH   3   5
BRANCH   2  19
ATOM     19  C   UNL     1       0.740  10.405  18.623  0.00  0.00    +0.000 A 
ATOM     20  C   UNL     1       1.418  11.616  18.796  0.00  0.00    +0.000 A 
ATOM     21  C   UNL     1       0.726  12.814  18.698  0.00  0.00    +0.000 A 
ATOM     22  C   UNL     1      -0.642  12.803  18.419  0.00  0.00    +0.000 A 
ATOM     23  C   UNL     1      -1.342  11.600  18.242  0.00  0.00    +0.000 A 
ATOM     24  C   UNL     1      -0.635  10.395  18.370  0.00  0.00    +0.000 A 
BRANCH  23  25
ATOM     25  N   UNL     1      -2.714  11.591  17.889  0.00  0.00    +0.000 N 
ATOM     26  C   UNL     1      -3.770  11.895  18.824  0.00  0.00    +0.000 C 
ATOM     27  C   UNL     1      -4.954  11.134  18.271  0.00  0.00    +0.000 C 
ATOM     28  C   UNL     1      -4.750  11.225  16.770  0.00  0.00    +0.000 C 
ATOM     29  C   UNL     1      -3.246  11.269  16.631  0.00  0.00    +0.000 C 
ATOM     30  O   UNL     1      -2.669  11.086  15.571  0.00  0.00    +0.000 OA
ENDBRANCH  23  25
ENDBRANCH   2  19
TORSDOF 5
ENDMDL
MODEL 4
REMARK VINA RESULT:      -8.5      1.631      2.354
REMARK  Name = 
REMARK  5 active torsions:
REMARK  status: ('A' for Active; 'I' for Inactive)
REMARK    1  A    between atoms: C_2  and  C_18
REMARK    2  A    between atoms: N_3  and  C_4
REMARK    3  A    between atoms: C_8  and  S_9
REMARK    4  A    between atoms: S_9  and  N_12
REMARK    5  A    between atoms: C_22  and  N_23
REMARK                            x       y       z     vdW  Elec       q    Type
REMARK                         _______ _______ _______ _____ _____    ______ ____
ROOT
ATOM      1  O   UNL     1       0.838   8.783  17.294  0.00  0.00    +0.000 OA
ATOM      2  C   UNL     1       1.547   9.152  18.224  0.00  0.00    +0.000 C 
ATOM      3  N   UNL     1       2.607   8.451  18.791  0.00  0.00    +0.000 N 
ATOM      4  H   UNL     1       2.971   8.790  19.675  0.00  0.00    +0.000 HD
ENDROOT
BRANCH   3   5
ATOM      5  C   UNL     1       2.986   7.140  18.410  0.00  0.00    +0.000 A 
ATOM      6  C   UNL     1       2.486   6.008  19.063  0.00  0.00    +0.000 A 
ATOM      7  C   UNL     1       3.036   4.749  18.844  0.00  0.00    +0.000 A 
ATOM      8  C   UNL     1       4.045   4.592  17.907  0.00  0.00    +0.000 A 
ATOM      9  C   UNL     1       4.436   5.684  17.127  0.00  0.00    +0.000 A 
ATOM     10  C   UNL     1       3.937   6.971  17.393  0.00  0.00    +0.000 A 
BRANCH   9  11
ATOM     11  S   UNL     1       5.645   5.424  15.843  0.00  0.00    +0.000 S 
ATOM     12  O   UNL     1       5.550   4.038  15.438  0.00  0.00    +0.000 OA
ATOM     13  O   UNL     1       5.494   6.497  14.882  0.00  0.00    +0.000 OA
BRANCH  11  14
ATOM     14  N   UNL     1       7.122   5.641  16.642  0.00  0.00    +0.000 NA
ATOM     15  C   UNL     1       7.547   4.660  17.653  0.00  0.00    +0.000 C 
ATOM     16  C   UNL     1       7.462   5.415  18.966  0.00  0.00    +0.000 C 
ATOM     17  C   UNL     1       7.830   6.841  18.600  0.00  0.00    +0.000 C 
ATOM     18  C   UNL     1       7.495   6.992  17.117  0.00  0.00    +0.000 C 
ENDBRANCH  11  14
ENDBRANCH   9  11
ENDBRANCH   3   5
BRANCH   2  19
ATOM     19  C   UNL     1       1.183  10.438  18.859  0.00  0.00    +0.000 A 
ATOM     20  C   UNL     1       1.900  11.578  18.479  0.00  0.00    +0.000 A 
ATOM     21  C   UNL     1       1.611  12.802  19.063  0.00  0.00    +0.000 A 
ATOM     22  C   UNL     1       0.599  12.890  20.022  0.00  0.00    +0.000 A 
ATOM     23  C   UNL     1      -0.133  11.761  20.418  0.00  0.00    +0.000 A 
ATOM     24  C   UNL     1       0.188  10.524  19.838  0.00  0.00    +0.000 A 
BRANCH  23  25
ATOM     25  N   UNL     1      -1.205  11.863  21.337  0.00  0.00    +0.000 N 
ATOM     26  C   UNL     1      -2.472  12.472  21.007  0.00  0.00    +0.000 C 
ATOM     27  C   UNL     1      -2.981  12.962  22.344  0.00  0.00    +0.000 C 
ATOM     28  C   UNL     1      -2.487  11.901  23.310  0.00  0.00    +0.000 C 
ATOM     29  C   UNL     1      -1.199  11.433  22.673  0.00  0.00    +0.000 C 
ATOM     30  O   UNL     1      -0.366  10.766  23.267  0.00  0.00    +0.000 OA
ENDBRANCH  23  25
ENDBRANCH   2  19
TORSDOF 5
ENDMDL
MODEL 5
REMARK VINA RESULT:      -8.4      3.051      9.093
REMARK  Name = 
REMARK  5 active torsions:
REMARK  status: ('A' for Active; 'I' for Inactive)
REMARK    1  A    between atoms: C_2  and  C_18
REMARK    2  A    between atoms: N_3  and  C_4
REMARK    3  A    between atoms: C_8  and  S_9
REMARK    4  A    between atoms: S_9  and  N_12
REMARK    5  A    between atoms: C_22  and  N_23
REMARK                            x       y       z     vdW  Elec       q    Type
REMARK                         _______ _______ _______ _____ _____    ______ ____
ROOT
ATOM      1  O   UNL     1       2.535   8.610  18.198  0.00  0.00    +0.000 OA
ATOM      2  C   UNL     1       2.430   7.684  18.995  0.00  0.00    +0.000 C 
ATOM      3  N   UNL     1       1.698   7.684  20.179  0.00  0.00    +0.000 N 
ATOM      4  H   UNL     1       1.864   6.925  20.830  0.00  0.00    +0.000 HD
ENDROOT
BRANCH   3   5
ATOM      5  C   UNL     1       1.005   8.812  20.683  0.00  0.00    +0.000 A 
ATOM      6  C   UNL     1       0.917   9.073  22.055  0.00  0.00    +0.000 A 
ATOM      7  C   UNL     1       0.046  10.038  22.550  0.00  0.00    +0.000 A 
ATOM      8  C   UNL     1      -0.694  10.813  21.672  0.00  0.00    +0.000 A 
ATOM      9  C   UNL     1      -0.489  10.680  20.296  0.00  0.00    +0.000 A 
ATOM     10  C   UNL     1       0.333   9.659  19.789  0.00  0.00    +0.000 A 
BRANCH   9  11
ATOM     11  S   UNL     1      -1.361  11.778  19.195  0.00  0.00    +0.000 S 
ATOM     12  O   UNL     1      -2.182  12.644  20.013  0.00  0.00    +0.000 OA
ATOM     13  O   UNL     1      -0.390  12.324  18.269  0.00  0.00    +0.000 OA
BRANCH  11  14
ATOM     14  N   UNL     1      -2.383  10.742  18.331  0.00  0.00    +0.000 NA
ATOM     15  C   UNL     1      -1.884  10.087  17.112  0.00  0.00    +0.000 C 
ATOM     16  C   UNL     1      -2.664  10.743  15.988  0.00  0.00    +0.000 C 
ATOM     17  C   UNL     1      -4.023  11.033  16.599  0.00  0.00    +0.000 C 
ATOM     18  C   UNL     1      -3.791  11.137  18.105  0.00  0.00    +0.000 C 
ENDBRANCH  11  14
ENDBRANCH   9  11
ENDBRANCH   3   5
BRANCH   2  19
ATOM     19  C   UNL     1       3.231   6.473  18.708  0.00  0.00    +0.000 A 
ATOM     20  C   UNL     1       3.204   5.437  19.647  0.00  0.00    +0.000 A 
ATOM     21  C   UNL     1       3.956   4.292  19.432  0.00  0.00    +0.000 A 
ATOM     22  C   UNL     1       4.729   4.177  18.275  0.00  0.00    +0.000 A 
ATOM     23  C   UNL     1       4.770   5.203  17.320  0.00  0.00    +0.000 A 
ATOM     24  C   UNL     1       4.026   6.367  17.562  0.00  0.00    +0.000 A 
BRANCH  23  25
ATOM     25  N   UNL     1       5.497   5.057  16.113  0.00  0.00    +0.000 N 
ATOM     26  C   UNL     1       4.977   4.369  14.956  0.00  0.00    +0.000 C 
ATOM     27  C   UNL     1       6.221   3.878  14.253  0.00  0.00    +0.000 C 
ATOM     28  C   UNL     1       7.226   4.984  14.518  0.00  0.00    +0.000 C 
ATOM     29  C   UNL     1       6.802   5.514  15.868  0.00  0.00    +0.000 C 
ATOM     30  O   UNL     1       7.508   6.240  16.551  0.00  0.00    +0.000 OA
ENDBRANCH  23  25
ENDBRANCH   2  19
TORSDOF 5
ENDMDL
MODEL 6
REMARK VINA RESULT:      -8.4      2.956      9.056
REMARK  Name = 
REMARK  5 active torsions:
REMARK  status: ('A' for Active; 'I' for Inactive)
REMARK    1  A    between atoms: C_2  and  C_18
REMARK    2  A    between atoms: N_3  and  C_4
REMARK    3  A    between atoms: C_8  and  S_9
REMARK    4  A    between atoms: S_9  and  N_12
REMARK    5  A    between atoms: C_22  and  N_23
REMARK                            x       y       z     vdW  Elec       q    Type
REMARK                         _______ _______ _______ _____ _____    ______ ____
ROOT
ATOM      1  O   UNL     1       1.197   5.683  20.879  0.00  0.00    +0.000 OA
ATOM      2  C   UNL     1       1.851   6.137  19.946  0.00  0.00    +0.000 C 
ATOM      3  N   UNL     1       2.025   7.481  19.630  0.00  0.00    +0.000 N 
ATOM      4  H   UNL     1       2.422   7.699  18.722  0.00  0.00    +0.000 HD
ENDROOT
BRANCH   3   5
ATOM      5  C   UNL     1       1.398   8.547  20.320  0.00  0.00    +0.000 A 
ATOM      6  C   UNL     1       1.403   8.627  21.717  0.00  0.00    +0.000 A 
ATOM      7  C   UNL     1       0.593   9.536  22.389  0.00  0.00    +0.000 A 
ATOM      8  C   UNL     1      -0.179  10.434  21.669  0.00  0.00    +0.000 A 
ATOM      9  C   UNL     1      -0.066  10.477  20.277  0.00  0.00    +0.000 A 
ATOM     10  C   UNL     1       0.694   9.516  19.589  0.00  0.00    +0.000 A 
BRANCH   9  11
ATOM     11  S   UNL     1      -0.975  11.727  19.388  0.00  0.00    +0.000 S 
ATOM     12  O   UNL     1      -1.613  12.576  20.371  0.00  0.00    +0.000 OA
ATOM     13  O   UNL     1      -0.086  12.279  18.386  0.00  0.00    +0.000 OA
BRANCH  11  14
ATOM     14  N   UNL     1      -2.179  10.845  18.590  0.00  0.00    +0.000 NA
ATOM     15  C   UNL     1      -1.848  10.134  17.345  0.00  0.00    +0.000 C 
ATOM     16  C   UNL     1      -2.597  10.897  16.268  0.00  0.00    +0.000 C 
ATOM     17  C   UNL     1      -3.864  11.368  16.957  0.00  0.00    +0.000 C 
ATOM     18  C   UNL     1      -3.531  11.431  18.447  0.00  0.00    +0.000 C 
ENDBRANCH  11  14
ENDBRANCH   9  11
ENDBRANCH   3   5
BRANCH   2  19
ATOM     19  C   UNL     1       2.443   5.151  19.015  0.00  0.00    +0.000 A 
ATOM     20  C   UNL     1       1.778   3.933  18.847  0.00  0.00    +0.000 A 
ATOM     21  C   UNL     1       2.307   2.968  18.002  0.00  0.00    +0.000 A 
ATOM     22  C   UNL     1       3.497   3.224  17.318  0.00  0.00    +0.000 A 
ATOM     23  C   UNL     1       4.181   4.439  17.472  0.00  0.00    +0.000 A 
ATOM     24  C   UNL     1       3.649   5.395  18.349  0.00  0.00    +0.000 A 
BRANCH  23  25
ATOM     25  N   UNL     1       5.350   4.726  16.724  0.00  0.00    +0.000 N 
ATOM     26  C   UNL     1       5.321   5.146  15.344  0.00  0.00    +0.000 C 
ATOM     27  C   UNL     1       6.655   4.679  14.809  0.00  0.00    +0.000 C 
ATOM     28  C   UNL     1       7.583   4.858  15.997  0.00  0.00    +0.000 C 
ATOM     29  C   UNL     1       6.674   4.622  17.180  0.00  0.00    +0.000 C 
ATOM     30  O   UNL     1       7.089   4.424  18.311  0.00  0.00    +0.000 OA
ENDBRANCH  23  25
ENDBRANCH   2  19
TORSDOF 5
ENDMDL
MODEL 7
REMARK VINA RESULT:      -8.4      1.065      1.246
REMARK  Name = 
REMARK  5 active torsions:
REMARK  status: ('A' for Active; 'I' for Inactive)
REMARK    1  A    between atoms: C_2  and  C_18
REMARK    2  A    between atoms: N_3  and  C_4
REMARK    3  A    between atoms: C_8  and  S_9
REMARK    4  A    between atoms: S_9  and  N_12
REMARK    5  A    between atoms: C_22  and  N_23
REMARK                            x       y       z     vdW  Elec       q    Type
REMARK                         _______ _______ _______ _____ _____    ______ ____
ROOT
ATOM      1  O   UNL     1       1.981   8.680  17.267  0.00  0.00    +0.000 OA
ATOM      2  C   UNL     1       1.996   8.454  18.473  0.00  0.00    +0.000 C 
ATOM      3  N   UNL     1       2.461   7.300  19.097  0.00  0.00    +0.000 N 
ATOM      4  H   UNL     1       2.228   7.173  20.076  0.00  0.00    +0.000 HD
ENDROOT
BRANCH   3   5
ATOM      5  C   UNL     1       2.935   6.159  18.403  0.00  0.00    +0.000 A 
ATOM      6  C   UNL     1       2.464   4.872  18.690  0.00  0.00    +0.000 A 
ATOM      7  C   UNL     1       3.095   3.744  18.179  0.00  0.00    +0.000 A 
ATOM      8  C   UNL     1       4.164   3.888  17.307  0.00  0.00    +0.000 A 
ATOM      9  C   UNL     1       4.535   5.165  16.880  0.00  0.00    +0.000 A 
ATOM     10  C   UNL     1       3.950   6.310  17.448  0.00  0.00    +0.000 A 
BRANCH   9  11
ATOM     11  S   UNL     1       5.829   5.313  15.662  0.00  0.00    +0.000 S 
ATOM     12  O   UNL     1       5.956   4.026  15.012  0.00  0.00    +0.000 OA
ATOM     13  O   UNL     1       5.569   6.515  14.897  0.00  0.00    +0.000 OA
BRANCH  11  14
ATOM     14  N   UNL     1       7.219   5.575  16.592  0.00  0.00    +0.000 NA
ATOM     15  C   UNL     1       7.557   4.629  17.666  0.00  0.00    +0.000 C 
ATOM     16  C   UNL     1       7.337   5.418  18.943  0.00  0.00    +0.000 C 
ATOM     17  C   UNL     1       7.720   6.839  18.574  0.00  0.00    +0.000 C 
ATOM     18  C   UNL     1       7.528   6.944  17.061  0.00  0.00    +0.000 C 
ENDBRANCH  11  14
ENDBRANCH   9  11
ENDBRANCH   3   5
BRANCH   2  19
ATOM     19  C   UNL     1       1.379   9.479  19.343  0.00  0.00    +0.000 A 
ATOM     20  C   UNL     1       0.984   9.090  20.628  0.00  0.00    +0.000 A 
ATOM     21  C   UNL     1       0.381  10.010  21.472  0.00  0.00    +0.000 A 
ATOM     22  C   UNL     1       0.180  11.322  21.037  0.00  0.00    +0.000 A 
ATOM     23  C   UNL     1       0.568  11.733  19.753  0.00  0.00    +0.000 A 
ATOM     24  C   UNL     1       1.153  10.786  18.900  0.00  0.00    +0.000 A 
BRANCH  23  25
ATOM     25  N   UNL     1       0.428  13.081  19.338  0.00  0.00    +0.000 N 
ATOM     26  C   UNL     1       1.444  13.787  18.596  0.00  0.00    +0.000 C 
ATOM     27  C   UNL     1       1.207  15.233  18.969  0.00  0.00    +0.000 C 
ATOM     28  C   UNL     1      -0.302  15.306  19.116  0.00  0.00    +0.000 C 
ATOM     29  C   UNL     1      -0.667  13.920  19.597  0.00  0.00    +0.000 C 
ATOM     30  O   UNL     1      -1.755  13.647  20.077  0.00  0.00    +0.000 OA
ENDBRANCH  23  25
ENDBRANCH   2  19
TORSDOF 5
ENDMDL
MODEL 8
REMARK VINA RESULT:      -8.4      1.325      1.473
REMARK  Name = 
REMARK  5 active torsions:
REMARK  status: ('A' for Active; 'I' for Inactive)
REMARK    1  A    between atoms: C_2  and  C_18
REMARK    2  A    between atoms: N_3  and  C_4
REMARK    3  A    between atoms: C_8  and  S_9
REMARK    4  A    between atoms: S_9  and  N_12
REMARK    5  A    between atoms: C_22  and  N_23
REMARK                            x       y       z     vdW  Elec       q    Type
REMARK                         _______ _______ _______ _____ _____    ______ ____
ROOT
ATOM      1  O   UNL     1       1.670   6.031  20.870  0.00  0.00    +0.000 OA
ATOM      2  C   UNL     1       1.750   6.972  20.089  0.00  0.00    +0.000 C 
ATOM      3  N   UNL     1       2.298   6.947  18.810  0.00  0.00    +0.000 N 
ATOM      4  H   UNL     1       2.475   7.839  18.360  0.00  0.00    +0.000 HD
ENDROOT
BRANCH   3   5
ATOM      5  C   UNL     1       2.924   5.813  18.237  0.00  0.00    +0.000 A 
ATOM      6  C   UNL     1       2.585   4.510  18.619  0.00  0.00    +0.000 A 
ATOM      7  C   UNL     1       3.359   3.421  18.232  0.00  0.00    +0.000 A 
ATOM      8  C   UNL     1       4.442   3.612  17.389  0.00  0.00    +0.000 A 
ATOM      9  C   UNL     1       4.690   4.883  16.864  0.00  0.00    +0.000 A 
ATOM     10  C   UNL     1       3.958   5.997  17.308  0.00  0.00    +0.000 A 
BRANCH   9  11
ATOM     11  S   UNL     1       6.013   5.073  15.683  0.00  0.00    +0.000 S 
ATOM     12  O   UNL     1       6.261   3.771  15.103  0.00  0.00    +0.000 OA
ATOM     13  O   UNL     1       5.690   6.214  14.852  0.00  0.00    +0.000 OA
BRANCH  11  14
ATOM     14  N   UNL     1       7.344   5.486  16.645  0.00  0.00    +0.000 NA
ATOM     15  C   UNL     1       7.678   4.654  17.811  0.00  0.00    +0.000 C 
ATOM     16  C   UNL     1       7.360   5.536  19.004  0.00  0.00    +0.000 C 
ATOM     17  C   UNL     1       7.691   6.938  18.527  0.00  0.00    +0.000 C 
ATOM     18  C   UNL     1       7.564   6.904  17.005  0.00  0.00    +0.000 C 
ENDBRANCH  11  14
ENDBRANCH   9  11
ENDBRANCH   3   5
BRANCH   2  19
ATOM     19  C   UNL     1       1.291   8.287  20.591  0.00  0.00    +0.000 A 
ATOM     20  C   UNL     1       1.031   8.405  21.960  0.00  0.00    +0.000 A 
ATOM     21  C   UNL     1       0.578   9.611  22.474  0.00  0.00    +0.000 A 
ATOM     22  C   UNL     1       0.393  10.702  21.622  0.00  0.00    +0.000 A 
ATOM     23  C   UNL     1       0.648  10.605  20.246  0.00  0.00    +0.000 A 
ATOM     24  C   UNL     1       1.080   9.373  19.735  0.00  0.00    +0.000 A 
BRANCH  23  25
ATOM     25  N   UNL     1       0.528  11.731  19.394  0.00  0.00    +0.000 N 
ATOM     26  C   UNL     1       1.665  12.435  18.853  0.00  0.00    +0.000 C 
ATOM     27  C   UNL     1       1.135  13.834  18.632  0.00  0.00    +0.000 C 
ATOM     28  C   UNL     1      -0.308  13.595  18.227  0.00  0.00    +0.000 C 
ATOM     29  C   UNL     1      -0.669  12.335  18.979  0.00  0.00    +0.000 C 
ATOM     30  O   UNL     1      -1.820  11.952  19.123  0.00  0.00    +0.000 OA
ENDBRANCH  23  25
ENDBRANCH   2  19
TORSDOF 5
ENDMDL
MODEL 9
REMARK VINA RESULT:      -8.4      3.044      9.172
REMARK  Name = 
REMARK  5 active torsions:
REMARK  status: ('A' for Active; 'I' for Inactive)
REMARK    1  A    between atoms: C_2  and  C_18
REMARK    2  A    between atoms: N_3  and  C_4
REMARK    3  A    between atoms: C_8  and  S_9
REMARK    4  A    between atoms: S_9  and  N_12
REMARK    5  A    between atoms: C_22  and  N_23
REMARK                            x       y       z     vdW  Elec       q    Type
REMARK                         _______ _______ _______ _____ _____    ______ ____
ROOT
ATOM      1  O   UNL     1       1.803   8.436  19.072  0.00  0.00    +0.000 OA
ATOM      2  C   UNL     1       1.636   7.667  20.013  0.00  0.00    +0.000 C 
ATOM      3  N   UNL     1       0.902   7.914  21.169  0.00  0.00    +0.000 N 
ATOM      4  H   UNL     1       1.016   7.267  21.942  0.00  0.00    +0.000 HD
ENDROOT
BRANCH   3   5
ATOM      5  C   UNL     1       0.282   9.153  21.465  0.00  0.00    +0.000 A 
ATOM      6  C   UNL     1       0.074   9.579  22.782  0.00  0.00    +0.000 A 
ATOM      7  C   UNL     1      -0.738  10.672  23.067  0.00  0.00    +0.000 A 
ATOM      8  C   UNL     1      -1.293  11.405  22.029  0.00  0.00    +0.000 A 
ATOM      9  C   UNL     1      -0.956  11.094  20.710  0.00  0.00    +0.000 A 
ATOM     10  C   UNL     1      -0.197   9.948  20.414  0.00  0.00    +0.000 A 
BRANCH   9  11
ATOM     11  S   UNL     1      -1.584  12.132  19.404  0.00  0.00    +0.000 S 
ATOM     12  O   UNL     1      -2.433  13.130  20.018  0.00  0.00    +0.000 OA
ATOM     13  O   UNL     1      -0.458  12.515  18.576  0.00  0.00    +0.000 OA
BRANCH  11  14
ATOM     14  N   UNL     1      -2.564  11.086  18.503  0.00  0.00    +0.000 NA
ATOM     15  C   UNL     1      -2.009  10.422  17.314  0.00  0.00    +0.000 C 
ATOM     16  C   UNL     1      -2.739  11.067  16.150  0.00  0.00    +0.000 C 
ATOM     17  C   UNL     1      -4.124  11.358  16.696  0.00  0.00    +0.000 C 
ATOM     18  C   UNL     1      -3.961  11.476  18.211  0.00  0.00    +0.000 C 
ENDBRANCH  11  14
ENDBRANCH   9  11
ENDBRANCH   3   5
BRANCH   2  19
ATOM     19  C   UNL     1       2.357   6.377  19.945  0.00  0.00    +0.000 A 
ATOM     20  C   UNL     1       1.748   5.259  20.526  0.00  0.00    +0.000 A 
ATOM     21  C   UNL     1       2.396   4.033  20.507  0.00  0.00    +0.000 A 
ATOM     22  C   UNL     1       3.649   3.921  19.901  0.00  0.00    +0.000 A 
ATOM     23  C   UNL     1       4.278   5.028  19.313  0.00  0.00    +0.000 A 
ATOM     24  C   UNL     1       3.624   6.268  19.362  0.00  0.00    +0.000 A 
BRANCH  23  25
ATOM     25  N   UNL     1       5.516   4.898  18.637  0.00  0.00    +0.000 N 
ATOM     26  C   UNL     1       6.765   5.378  19.178  0.00  0.00    +0.000 C 
ATOM     27  C   UNL     1       7.595   5.656  17.946  0.00  0.00    +0.000 C 
ATOM     28  C   UNL     1       7.157   4.567  16.984  0.00  0.00    +0.000 C 
ATOM     29  C   UNL     1       5.715   4.331  17.368  0.00  0.00    +0.000 C 
ATOM     30  O   UNL     1       4.930   3.712  16.666  0.00  0.00    +0.000 OA
ENDBRANCH  23  25
ENDBRANCH   2  19
TORSDOF 5
ENDMDL
