MODEL 1
REMARK VINA RESULT:      -8.9      0.000      0.000
REMARK  Name = 
REMARK  5 active torsions:
REMARK  status: ('A' for Active; 'I' for Inactive)
REMARK    1  A    between atoms: C_1  and  C_2
REMARK    2  A    between atoms: C_6  and  C_7
REMARK    3  A    between atoms: N_13  and  S_14
REMARK    4  A    between atoms: S_14  and  C_17
REMARK    5  A    between atoms: C_23  and  C_24
REMARK                            x       y       z     vdW  Elec       q    Type
REMARK                         _______ _______ _______ _____ _____    ______ ____
ROOT
ATOM      1  C   UNL     1       1.349   7.574  20.656  0.00  0.00    +0.000 C 
ATOM      2  O   UNL     1       0.825   7.587  21.769  0.00  0.00    +0.000 OA
ATOM      3  N   UNL     1       1.830   6.396  20.051  0.00  0.00    +0.000 N 
ATOM      4  C   UNL     1       1.594   5.145  20.772  0.00  0.00    +0.000 C 
ATOM      5  C   UNL     1       0.972   4.003  19.967  0.00  0.00    +0.000 C 
ATOM      6  C   UNL     1       1.399   3.731  18.529  0.00  0.00    +0.000 C 
ATOM      7  N   UNL     1       2.761   4.141  18.153  0.00  0.00    +0.000 NA
ATOM      8  C   UNL     1       2.887   5.602  17.911  0.00  0.00    +0.000 C 
ATOM      9  C   UNL     1       3.038   6.412  19.202  0.00  0.00    +0.000 C 
ENDROOT
BRANCH   1  15
ATOM     10  C   UNL     1       0.509  12.502  20.629  0.00  0.00    +0.000 C 
ATOM     11  C   UNL     1       1.005  11.274  19.923  0.00  0.00    +0.000 A 
ATOM     12  C   UNL     1       1.433  11.334  18.592  0.00  0.00    +0.000 A 
ATOM     13  C   UNL     1       1.816  10.173  17.920  0.00  0.00    +0.000 A 
ATOM     14  C   UNL     1       1.775   8.942  18.573  0.00  0.00    +0.000 A 
ATOM     15  C   UNL     1       1.416   8.871  19.923  0.00  0.00    +0.000 A 
ATOM     16  C   UNL     1       1.011  10.039  20.587  0.00  0.00    +0.000 A 
ENDBRANCH   1  15
BRANCH   7  17
ATOM     17  S   UNL     1       4.130   3.365  18.787  0.00  0.00    +0.000 S 
ATOM     18  O   UNL     1       4.068   3.425  20.232  0.00  0.00    +0.000 OA
ATOM     19  O   UNL     1       4.208   2.065  18.148  0.00  0.00    +0.000 OA
BRANCH  17  20
ATOM     20  C   UNL     1       5.550   4.276  18.244  0.00  0.00    +0.000 A 
ATOM     21  C   UNL     1       6.179   5.110  19.191  0.00  0.00    +0.000 A 
ATOM     22  C   UNL     1       7.170   5.994  18.793  0.00  0.00    +0.000 A 
ATOM     23  C   UNL     1       7.537   6.043  17.455  0.00  0.00    +0.000 A 
ATOM     24  C   UNL     1       6.913   5.209  16.509  0.00  0.00    +0.000 A 
ATOM     25  C   UNL     1       7.283   5.292  15.160  0.00  0.00    +0.000 A 
ATOM     26  C   UNL     1       6.650   4.499  14.207  0.00  0.00    +0.000 A 
ATOM     27  C   UNL     1       6.998   4.571  12.756  0.00  0.00    +0.000 C 
ATOM     28  C   UNL     1       5.665   3.641  14.664  0.00  0.00    +0.000 A 
ATOM     29  N   UNL     1       5.299   3.515  15.962  0.00  0.00    +0.000 NA
ATOM     30  C   UNL     1       5.894   4.301  16.892  0.00  0.00    +0.000 A 
ENDBRANCH  17  20
ENDBRANCH   7  17
TORSDOF 3
ENDMDL
MODEL 2
REMARK VINA RESULT:      -8.2      4.110     10.269
REMARK  Name = 
REMARK  5 active torsions:
REMARK  status: ('A' for Active; 'I' for Inactive)
REMARK    1  A    between atoms: C_1  and  C_2
REMARK    2  A    between atoms: C_6  and  C_7
REMARK    3  A    between atoms: N_13  and  S_14
REMARK    4  A    between atoms: S_14  and  C_17
REMARK    5  A    between atoms: C_23  and  C_24
REMARK                            x       y       z     vdW  Elec       q    Type
REMARK                         _______ _______ _______ _____ _____    ______ ____
ROOT
ATOM      1  C   UNL     1       2.336   7.580  18.704  0.00  0.00    +0.000 C 
ATOM      2  O   UNL     1       3.073   7.833  17.751  0.00  0.00    +0.000 OA
ATOM      3  N   UNL     1       1.505   8.545  19.305  0.00  0.00    +0.000 N 
ATOM      4  C   UNL     1       1.481   9.869  18.682  0.00  0.00    +0.000 C 
ATOM      5  C   UNL     1       0.099  10.455  18.384  0.00  0.00    +0.000 C 
ATOM      6  C   UNL     1      -1.053  10.295  19.370  0.00  0.00    +0.000 C 
ATOM      7  N   UNL     1      -0.695  10.133  20.787  0.00  0.00    +0.000 NA
ATOM      8  C   UNL     1      -0.223   8.763  21.120  0.00  0.00    +0.000 C 
ATOM      9  C   UNL     1       1.246   8.532  20.759  0.00  0.00    +0.000 C 
ENDROOT
BRANCH   1  15
ATOM     10  C   UNL     1       2.518   2.705  17.613  0.00  0.00    +0.000 C 
ATOM     11  C   UNL     1       2.403   3.793  18.639  0.00  0.00    +0.000 A 
ATOM     12  C   UNL     1       2.191   3.490  19.989  0.00  0.00    +0.000 A 
ATOM     13  C   UNL     1       2.004   4.509  20.922  0.00  0.00    +0.000 A 
ATOM     14  C   UNL     1       2.030   5.843  20.514  0.00  0.00    +0.000 A 
ATOM     15  C   UNL     1       2.309   6.169  19.182  0.00  0.00    +0.000 A 
ATOM     16  C   UNL     1       2.474   5.137  18.245  0.00  0.00    +0.000 A 
ENDBRANCH   1  15
BRANCH   7  17
ATOM     17  S   UNL     1      -0.006  11.400  21.680  0.00  0.00    +0.000 S 
ATOM     18  O   UNL     1      -0.233  11.152  23.089  0.00  0.00    +0.000 OA
ATOM     19  O   UNL     1       1.358  11.549  21.212  0.00  0.00    +0.000 OA
BRANCH  17  20
ATOM     20  C   UNL     1      -0.857  12.887  21.225  0.00  0.00    +0.000 A 
ATOM     21  C   UNL     1      -0.144  13.824  20.449  0.00  0.00    +0.000 A 
ATOM     22  C   UNL     1      -0.672  15.085  20.219  0.00  0.00    +0.000 A 
ATOM     23  C   UNL     1      -1.910  15.410  20.756  0.00  0.00    +0.000 A 
ATOM     24  C   UNL     1      -2.625  14.475  21.526  0.00  0.00    +0.000 A 
ATOM     25  C   UNL     1      -3.863  14.832  22.077  0.00  0.00    +0.000 A 
ATOM     26  C   UNL     1      -4.566  13.931  22.871  0.00  0.00    +0.000 A 
ATOM     27  C   UNL     1      -5.878  14.278  23.496  0.00  0.00    +0.000 C 
ATOM     28  C   UNL     1      -3.986  12.690  23.070  0.00  0.00    +0.000 A 
ATOM     29  N   UNL     1      -2.805  12.301  22.533  0.00  0.00    +0.000 NA
ATOM     30  C   UNL     1      -2.104  13.181  21.779  0.00  0.00    +0.000 A 
ENDBRANCH  17  20
ENDBRANCH   7  17
TORSDOF 3
ENDMDL
MODEL 3
REMARK VINA RESULT:      -8.2      4.085      9.541
REMARK  Name = 
REMARK  5 active torsions:
REMARK  status: ('A' for Active; 'I' for Inactive)
REMARK    1  A    between atoms: C_1  and  C_2
REMARK    2  A    between atoms: C_6  and  C_7
REMARK    3  A    between atoms: N_13  and  S_14
REMARK    4  A    between atoms: S_14  and  C_17
REMARK    5  A    between atoms: C_23  and  C_24
REMARK                            x       y       z     vdW  Elec       q    Type
REMARK                         _______ _______ _______ _____ _____    ______ ____
ROOT
ATOM      1  C   UNL     1       2.483   7.027  18.800  0.00  0.00    +0.000 C 
ATOM      2  O   UNL     1       3.403   7.288  18.026  0.00  0.00    +0.000 OA
ATOM      3  N   UNL     1       1.710   8.020  19.431  0.00  0.00    +0.000 N 
ATOM      4  C   UNL     1       1.985   9.405  19.052  0.00  0.00    +0.000 C 
ATOM      5  C   UNL     1       0.776  10.257  18.660  0.00  0.00    +0.000 C 
ATOM      6  C   UNL     1      -0.540  10.152  19.422  0.00  0.00    +0.000 C 
ATOM      7  N   UNL     1      -0.460   9.723  20.827  0.00  0.00    +0.000 NA
ATOM      8  C   UNL     1      -0.257   8.259  20.982  0.00  0.00    +0.000 C 
ATOM      9  C   UNL     1       1.204   7.835  20.807  0.00  0.00    +0.000 C 
ENDROOT
BRANCH   1  15
ATOM     10  C   UNL     1       2.173   3.159  21.952  0.00  0.00    +0.000 C 
ATOM     11  C   UNL     1       2.019   3.706  20.564  0.00  0.00    +0.000 A 
ATOM     12  C   UNL     1       1.677   2.871  19.495  0.00  0.00    +0.000 A 
ATOM     13  C   UNL     1       1.616   3.374  18.196  0.00  0.00    +0.000 A 
ATOM     14  C   UNL     1       1.894   4.718  17.954  0.00  0.00    +0.000 A 
ATOM     15  C   UNL     1       2.170   5.585  19.017  0.00  0.00    +0.000 A 
ATOM     16  C   UNL     1       2.252   5.068  20.319  0.00  0.00    +0.000 A 
ENDBRANCH   1  15
BRANCH   7  17
ATOM     17  S   UNL     1       0.240  10.707  22.019  0.00  0.00    +0.000 S 
ATOM     18  O   UNL     1       0.361   9.940  23.241  0.00  0.00    +0.000 OA
ATOM     19  O   UNL     1       1.438  11.281  21.437  0.00  0.00    +0.000 OA
BRANCH  17  20
ATOM     20  C   UNL     1      -0.873  12.057  22.306  0.00  0.00    +0.000 A 
ATOM     21  C   UNL     1      -1.912  11.846  23.236  0.00  0.00    +0.000 A 
ATOM     22  C   UNL     1      -2.929  12.779  23.369  0.00  0.00    +0.000 A 
ATOM     23  C   UNL     1      -2.906  13.923  22.583  0.00  0.00    +0.000 A 
ATOM     24  C   UNL     1      -1.868  14.137  21.659  0.00  0.00    +0.000 A 
ATOM     25  C   UNL     1      -1.878  15.287  20.859  0.00  0.00    +0.000 A 
ATOM     26  C   UNL     1      -0.877  15.497  19.915  0.00  0.00    +0.000 A 
ATOM     27  C   UNL     1      -0.860  16.698  19.027  0.00  0.00    +0.000 C 
ATOM     28  C   UNL     1       0.107  14.527  19.823  0.00  0.00    +0.000 A 
ATOM     29  N   UNL     1       0.163  13.416  20.596  0.00  0.00    +0.000 NA
ATOM     30  C   UNL     1      -0.821  13.195  21.501  0.00  0.00    +0.000 A 
ENDBRANCH  17  20
ENDBRANCH   7  17
TORSDOF 3
ENDMDL
MODEL 4
REMARK VINA RESULT:      -8.2      4.189      9.994
REMARK  Name = 
REMARK  5 active torsions:
REMARK  status: ('A' for Active; 'I' for Inactive)
REMARK    1  A    between atoms: C_1  and  C_2
REMARK    2  A    between atoms: C_6  and  C_7
REMARK    3  A    between atoms: N_13  and  S_14
REMARK    4  A    between atoms: S_14  and  C_17
REMARK    5  A    between atoms: C_23  and  C_24
REMARK                            x       y       z     vdW  Elec       q    Type
REMARK                         _______ _______ _______ _____ _____    ______ ____
ROOT
ATOM      1  C   UNL     1       2.477   6.784  18.823  0.00  0.00    +0.000 C 
ATOM      2  O   UNL     1       3.271   6.760  17.883  0.00  0.00    +0.000 OA
ATOM      3  N   UNL     1       1.775   7.945  19.201  0.00  0.00    +0.000 N 
ATOM      4  C   UNL     1       1.960   9.127  18.359  0.00  0.00    +0.000 C 
ATOM      5  C   UNL     1       0.687   9.832  17.888  0.00  0.00    +0.000 C 
ATOM      6  C   UNL     1      -0.506  10.009  18.821  0.00  0.00    +0.000 C 
ATOM      7  N   UNL     1      -0.218  10.056  20.263  0.00  0.00    +0.000 NA
ATOM      8  C   UNL     1       0.041   8.717  20.853  0.00  0.00    +0.000 C 
ATOM      9  C   UNL     1       1.473   8.227  20.620  0.00  0.00    +0.000 C 
ENDROOT
BRANCH   1  15
ATOM     10  C   UNL     1       0.632   2.139  18.725  0.00  0.00    +0.000 C 
ATOM     11  C   UNL     1       1.333   3.232  19.476  0.00  0.00    +0.000 A 
ATOM     12  C   UNL     1       1.668   3.078  20.826  0.00  0.00    +0.000 A 
ATOM     13  C   UNL     1       2.246   4.130  21.536  0.00  0.00    +0.000 A 
ATOM     14  C   UNL     1       2.497   5.346  20.902  0.00  0.00    +0.000 A 
ATOM     15  C   UNL     1       2.233   5.498  19.536  0.00  0.00    +0.000 A 
ATOM     16  C   UNL     1       1.631   4.442  18.833  0.00  0.00    +0.000 A 
ENDBRANCH   1  15
BRANCH   7  17
ATOM     17  S   UNL     1       0.618  11.357  20.961  0.00  0.00    +0.000 S 
ATOM     18  O   UNL     1       1.737  10.836  21.717  0.00  0.00    +0.000 OA
ATOM     19  O   UNL     1       0.880  12.305  19.895  0.00  0.00    +0.000 OA
BRANCH  17  20
ATOM     20  C   UNL     1      -0.498  12.158  22.082  0.00  0.00    +0.000 A 
ATOM     21  C   UNL     1      -1.673  11.460  22.428  0.00  0.00    +0.000 A 
ATOM     22  C   UNL     1      -2.678  12.096  23.141  0.00  0.00    +0.000 A 
ATOM     23  C   UNL     1      -2.509  13.423  23.513  0.00  0.00    +0.000 A 
ATOM     24  C   UNL     1      -1.335  14.119  23.172  0.00  0.00    +0.000 A 
ATOM     25  C   UNL     1      -1.196  15.465  23.538  0.00  0.00    +0.000 A 
ATOM     26  C   UNL     1      -0.057  16.178  23.178  0.00  0.00    +0.000 A 
ATOM     27  C   UNL     1       0.123  17.619  23.528  0.00  0.00    +0.000 C 
ATOM     28  C   UNL     1       0.908  15.491  22.461  0.00  0.00    +0.000 A 
ATOM     29  N   UNL     1       0.820  14.186  22.112  0.00  0.00    +0.000 NA
ATOM     30  C   UNL     1      -0.296  13.492  22.440  0.00  0.00    +0.000 A 
ENDBRANCH  17  20
ENDBRANCH   7  17
TORSDOF 3
ENDMDL
MODEL 5
REMARK VINA RESULT:      -8.2      3.754      9.272
REMARK  Name = 
REMARK  5 active torsions:
REMARK  status: ('A' for Active; 'I' for Inactive)
REMARK    1  A    between atoms: C_1  and  C_2
REMARK    2  A    between atoms: C_6  and  C_7
REMARK    3  A    between atoms: N_13  and  S_14
REMARK    4  A    between atoms: S_14  and  C_17
REMARK    5  A    between atoms: C_23  and  C_24
REMARK                            x       y       z     vdW  Elec       q    Type
REMARK                         _______ _______ _______ _____ _____    ______ ____
ROOT
ATOM      1  C   UNL     1       2.753   7.381  18.416  0.00  0.00    +0.000 C 
ATOM      2  O   UNL     1       3.356   7.868  17.460  0.00  0.00    +0.000 OA
ATOM      3  N   UNL     1       1.896   8.132  19.242  0.00  0.00    +0.000 N 
ATOM      4  C   UNL     1       1.671   9.526  18.859  0.00  0.00    +0.000 C 
ATOM      5  C   UNL     1       0.213   9.984  18.786  0.00  0.00    +0.000 C 
ATOM      6  C   UNL     1      -0.806   9.533  19.826  0.00  0.00    +0.000 C 
ATOM      7  N   UNL     1      -0.286   9.191  21.159  0.00  0.00    +0.000 NA
ATOM      8  C   UNL     1       0.355   7.851  21.211  0.00  0.00    +0.000 C 
ATOM      9  C   UNL     1       1.795   7.856  20.690  0.00  0.00    +0.000 C 
ENDROOT
BRANCH   1  15
ATOM     10  C   UNL     1       0.696   2.828  18.601  0.00  0.00    +0.000 C 
ATOM     11  C   UNL     1       1.909   3.701  18.732  0.00  0.00    +0.000 A 
ATOM     12  C   UNL     1       3.137   3.170  19.143  0.00  0.00    +0.000 A 
ATOM     13  C   UNL     1       4.237   4.003  19.339  0.00  0.00    +0.000 A 
ATOM     14  C   UNL     1       4.122   5.376  19.124  0.00  0.00    +0.000 A 
ATOM     15  C   UNL     1       2.922   5.918  18.648  0.00  0.00    +0.000 A 
ATOM     16  C   UNL     1       1.813   5.076  18.473  0.00  0.00    +0.000 A 
ENDBRANCH   1  15
BRANCH   7  17
ATOM     17  S   UNL     1       0.359  10.372  22.191  0.00  0.00    +0.000 S 
ATOM     18  O   UNL     1       0.479   9.811  23.520  0.00  0.00    +0.000 OA
ATOM     19  O   UNL     1       1.551  10.887  21.544  0.00  0.00    +0.000 OA
BRANCH  17  20
ATOM     20  C   UNL     1      -0.800  11.712  22.246  0.00  0.00    +0.000 A 
ATOM     21  C   UNL     1      -1.949  11.535  23.044  0.00  0.00    +0.000 A 
ATOM     22  C   UNL     1      -2.987  12.453  22.985  0.00  0.00    +0.000 A 
ATOM     23  C   UNL     1      -2.877  13.548  22.139  0.00  0.00    +0.000 A 
ATOM     24  C   UNL     1      -1.729  13.728  21.346  0.00  0.00    +0.000 A 
ATOM     25  C   UNL     1      -1.649  14.828  20.482  0.00  0.00    +0.000 A 
ATOM     26  C   UNL     1      -0.536  15.002  19.665  0.00  0.00    +0.000 A 
ATOM     27  C   UNL     1      -0.419  16.148  18.713  0.00  0.00    +0.000 C 
ATOM     28  C   UNL     1       0.464  14.049  19.763  0.00  0.00    +0.000 A 
ATOM     29  N   UNL     1       0.434  12.988  20.604  0.00  0.00    +0.000 NA
ATOM     30  C   UNL     1      -0.657  12.801  21.385  0.00  0.00    +0.000 A 
ENDBRANCH  17  20
ENDBRANCH   7  17
TORSDOF 3
ENDMDL
MODEL 6
REMARK VINA RESULT:      -8.2      3.989      9.602
REMARK  Name = 
REMARK  5 active torsions:
REMARK  status: ('A' for Active; 'I' for Inactive)
REMARK    1  A    between atoms: C_1  and  C_2
REMARK    2  A    between atoms: C_6  and  C_7
REMARK    3  A    between atoms: N_13  and  S_14
REMARK    4  A    between atoms: S_14  and  C_17
REMARK    5  A    between atoms: C_23  and  C_24
REMARK                            x       y       z     vdW  Elec       q    Type
REMARK                         _______ _______ _______ _____ _____    ______ ____
ROOT
ATOM      1  C   UNL     1       2.455   7.027  19.068  0.00  0.00    +0.000 C 
ATOM      2  O   UNL     1       3.332   7.278  18.242  0.00  0.00    +0.000 OA
ATOM      3  N   UNL     1       1.648   8.021  19.653  0.00  0.00    +0.000 N 
ATOM      4  C   UNL     1       1.833   9.388  19.163  0.00  0.00    +0.000 C 
ATOM      5  C   UNL     1       0.566  10.141  18.756  0.00  0.00    +0.000 C 
ATOM      6  C   UNL     1      -0.716  10.024  19.572  0.00  0.00    +0.000 C 
ATOM      7  N   UNL     1      -0.566   9.706  21.000  0.00  0.00    +0.000 NA
ATOM      8  C   UNL     1      -0.276   8.271  21.254  0.00  0.00    +0.000 C 
ATOM      9  C   UNL     1       1.199   7.914  21.056  0.00  0.00    +0.000 C 
ENDROOT
BRANCH   1  15
ATOM     10  C   UNL     1       2.504   2.250  17.593  0.00  0.00    +0.000 C 
ATOM     11  C   UNL     1       2.261   3.264  18.671  0.00  0.00    +0.000 A 
ATOM     12  C   UNL     1       1.758   2.880  19.919  0.00  0.00    +0.000 A 
ATOM     13  C   UNL     1       1.459   3.839  20.886  0.00  0.00    +0.000 A 
ATOM     14  C   UNL     1       1.663   5.192  20.616  0.00  0.00    +0.000 A 
ATOM     15  C   UNL     1       2.230   5.591  19.401  0.00  0.00    +0.000 A 
ATOM     16  C   UNL     1       2.508   4.622  18.423  0.00  0.00    +0.000 A 
ENDBRANCH   1  15
BRANCH   7  17
ATOM     17  S   UNL     1       0.117  10.813  22.090  0.00  0.00    +0.000 S 
ATOM     18  O   UNL     1       0.189  10.193  23.396  0.00  0.00    +0.000 OA
ATOM     19  O   UNL     1       1.341  11.297  21.482  0.00  0.00    +0.000 OA
BRANCH  17  20
ATOM     20  C   UNL     1      -0.980  12.203  22.184  0.00  0.00    +0.000 A 
ATOM     21  C   UNL     1      -2.104  12.078  23.026  0.00  0.00    +0.000 A 
ATOM     22  C   UNL     1      -3.102  13.041  23.003  0.00  0.00    +0.000 A 
ATOM     23  C   UNL     1      -2.977  14.127  22.149  0.00  0.00    +0.000 A 
ATOM     24  C   UNL     1      -1.853  14.255  21.312  0.00  0.00    +0.000 A 
ATOM     25  C   UNL     1      -1.758  15.349  20.440  0.00  0.00    +0.000 A 
ATOM     26  C   UNL     1      -0.671  15.472  19.581  0.00  0.00    +0.000 A 
ATOM     27  C   UNL     1      -0.541  16.609  18.621  0.00  0.00    +0.000 C 
ATOM     28  C   UNL     1       0.290  14.477  19.644  0.00  0.00    +0.000 A 
ATOM     29  N   UNL     1       0.245  13.420  20.490  0.00  0.00    +0.000 NA
ATOM     30  C   UNL     1      -0.822  13.282  21.314  0.00  0.00    +0.000 A 
ENDBRANCH  17  20
ENDBRANCH   7  17
TORSDOF 3
ENDMDL
MODEL 7
REMARK VINA RESULT:      -8.1      4.040      8.909
REMARK  Name = 
REMARK  5 active torsions:
REMARK  status: ('A' for Active; 'I' for Inactive)
REMARK    1  A    between atoms: C_1  and  C_2
REMARK    2  A    between atoms: C_6  and  C_7
REMARK    3  A    between atoms: N_13  and  S_14
REMARK    4  A    between atoms: S_14  and  C_17
REMARK    5  A    between atoms: C_23  and  C_24
REMARK                            x       y       z     vdW  Elec       q    Type
REMARK                         _______ _______ _______ _____ _____    ______ ____
ROOT
ATOM      1  C   UNL     1       2.441   7.182  18.874  0.00  0.00    +0.000 C 
ATOM      2  O   UNL     1       3.263   7.402  17.986  0.00  0.00    +0.000 OA
ATOM      3  N   UNL     1       1.647   8.192  19.449  0.00  0.00    +0.000 N 
ATOM      4  C   UNL     1       1.770   9.531  18.872  0.00  0.00    +0.000 C 
ATOM      5  C   UNL     1       0.464  10.234  18.498  0.00  0.00    +0.000 C 
ATOM      6  C   UNL     1      -0.765  10.139  19.394  0.00  0.00    +0.000 C 
ATOM      7  N   UNL     1      -0.526   9.908  20.826  0.00  0.00    +0.000 NA
ATOM      8  C   UNL     1      -0.187   8.496  21.144  0.00  0.00    +0.000 C 
ATOM      9  C   UNL     1       1.282   8.158  20.880  0.00  0.00    +0.000 C 
ENDROOT
BRANCH   1  15
ATOM     10  C   UNL     1       2.399   2.336  17.647  0.00  0.00    +0.000 C 
ATOM     11  C   UNL     1       2.256   3.402  18.692  0.00  0.00    +0.000 A 
ATOM     12  C   UNL     1       1.888   3.080  20.003  0.00  0.00    +0.000 A 
ATOM     13  C   UNL     1       1.679   4.086  20.946  0.00  0.00    +0.000 A 
ATOM     14  C   UNL     1       1.837   5.424  20.588  0.00  0.00    +0.000 A 
ATOM     15  C   UNL     1       2.270   5.764  19.301  0.00  0.00    +0.000 A 
ATOM     16  C   UNL     1       2.458   4.748  18.351  0.00  0.00    +0.000 A 
ENDBRANCH   1  15
BRANCH   7  17
ATOM     17  S   UNL     1       0.193  11.090  21.809  0.00  0.00    +0.000 S 
ATOM     18  O   UNL     1      -0.363  10.985  23.142  0.00  0.00    +0.000 OA
ATOM     19  O   UNL     1       1.627  10.957  21.641  0.00  0.00    +0.000 OA
BRANCH  17  20
ATOM     20  C   UNL     1      -0.246  12.670  21.136  0.00  0.00    +0.000 A 
ATOM     21  C   UNL     1      -1.585  13.086  21.293  0.00  0.00    +0.000 A 
ATOM     22  C   UNL     1      -2.047  14.213  20.631  0.00  0.00    +0.000 A 
ATOM     23  C   UNL     1      -1.176  14.927  19.820  0.00  0.00    +0.000 A 
ATOM     24  C   UNL     1       0.160  14.517  19.666  0.00  0.00    +0.000 A 
ATOM     25  C   UNL     1       1.015  15.240  18.824  0.00  0.00    +0.000 A 
ATOM     26  C   UNL     1       2.330  14.827  18.633  0.00  0.00    +0.000 A 
ATOM     27  C   UNL     1       3.270  15.555  17.728  0.00  0.00    +0.000 C 
ATOM     28  C   UNL     1       2.732  13.691  19.315  0.00  0.00    +0.000 A 
ATOM     29  N   UNL     1       1.943  12.982  20.157  0.00  0.00    +0.000 NA
ATOM     30  C   UNL     1       0.655  13.365  20.329  0.00  0.00    +0.000 A 
ENDBRANCH  17  20
ENDBRANCH   7  17
TORSDOF 3
ENDMDL
MODEL 8
REMARK VINA RESULT:      -8.1      1.163      2.445
REMARK  Name = 
REMARK  5 active torsions:
REMARK  status: ('A' for Active; 'I' for Inactive)
REMARK    1  A    between atoms: C_1  and  C_2
REMARK    2  A    between atoms: C_6  and  C_7
REMARK    3  A    between atoms: N_13  and  S_14
REMARK    4  A    between atoms: S_14  and  C_17
REMARK    5  A    between atoms: C_23  and  C_24
REMARK                            x       y       z     vdW  Elec       q    Type
REMARK                         _______ _______ _______ _____ _____    ______ ____
ROOT
ATOM      1  C   UNL     1       1.678   7.373  20.687  0.00  0.00    +0.000 C 
ATOM      2  O   UNL     1       1.703   7.546  21.905  0.00  0.00    +0.000 OA
ATOM      3  N   UNL     1       1.944   6.129  20.085  0.00  0.00    +0.000 N 
ATOM      4  C   UNL     1       2.166   4.998  20.987  0.00  0.00    +0.000 C 
ATOM      5  C   UNL     1       1.357   3.731  20.702  0.00  0.00    +0.000 C 
ATOM      6  C   UNL     1       1.125   3.251  19.274  0.00  0.00    +0.000 C 
ATOM      7  N   UNL     1       2.135   3.630  18.274  0.00  0.00    +0.000 NA
ATOM      8  C   UNL     1       2.009   5.039  17.818  0.00  0.00    +0.000 C 
ATOM      9  C   UNL     1       2.643   6.041  18.787  0.00  0.00    +0.000 C 
ENDROOT
BRANCH   1  15
ATOM     10  C   UNL     1      -1.222  11.394  20.041  0.00  0.00    +0.000 C 
ATOM     11  C   UNL     1      -0.122  10.504  19.543  0.00  0.00    +0.000 A 
ATOM     12  C   UNL     1       0.464  10.718  18.290  0.00  0.00    +0.000 A 
ATOM     13  C   UNL     1       1.429   9.838  17.801  0.00  0.00    +0.000 A 
ATOM     14  C   UNL     1       1.819   8.736  18.562  0.00  0.00    +0.000 A 
ATOM     15  C   UNL     1       1.296   8.543  19.845  0.00  0.00    +0.000 A 
ATOM     16  C   UNL     1       0.309   9.421  20.322  0.00  0.00    +0.000 A 
ENDBRANCH   1  15
BRANCH   7  17
ATOM     17  S   UNL     1       3.707   2.993  18.314  0.00  0.00    +0.000 S 
ATOM     18  O   UNL     1       4.268   3.226  19.628  0.00  0.00    +0.000 OA
ATOM     19  O   UNL     1       3.618   1.629  17.829  0.00  0.00    +0.000 OA
BRANCH  17  20
ATOM     20  C   UNL     1       4.667   3.887  17.122  0.00  0.00    +0.000 A 
ATOM     21  C   UNL     1       4.594   3.454  15.782  0.00  0.00    +0.000 A 
ATOM     22  C   UNL     1       5.459   3.976  14.832  0.00  0.00    +0.000 A 
ATOM     23  C   UNL     1       6.389   4.932  15.216  0.00  0.00    +0.000 A 
ATOM     24  C   UNL     1       6.460   5.369  16.551  0.00  0.00    +0.000 A 
ATOM     25  C   UNL     1       7.422   6.318  16.920  0.00  0.00    +0.000 A 
ATOM     26  C   UNL     1       7.529   6.734  18.243  0.00  0.00    +0.000 A 
ATOM     27  C   UNL     1       8.554   7.728  18.684  0.00  0.00    +0.000 C 
ATOM     28  C   UNL     1       6.644   6.173  19.147  0.00  0.00    +0.000 A 
ATOM     29  N   UNL     1       5.684   5.273  18.823  0.00  0.00    +0.000 NA
ATOM     30  C   UNL     1       5.590   4.846  17.541  0.00  0.00    +0.000 A 
ENDBRANCH  17  20
ENDBRANCH   7  17
TORSDOF 3
ENDMDL
MODEL 9
REMARK VINA RESULT:      -8.1      3.781      9.563
REMARK  Name = 
REMARK  5 active torsions:
REMARK  status: ('A' for Active; 'I' for Inactive)
REMARK    1  A    between atoms: C_1  and  C_2
REMARK    2  A    between atoms: C_6  and  C_7
REMARK    3  A    between atoms: N_13  and  S_14
REMARK    4  A    between atoms: S_14  and  C_17
REMARK    5  A    between atoms: C_23  and  C_24
REMARK                            x       y       z     vdW  Elec       q    Type
REMARK                         _______ _______ _______ _____ _____    ______ ____
ROOT
ATOM      1  C   UNL     1       2.479   7.808  18.133  0.00  0.00    +0.000 C 
ATOM      2  O   UNL     1       3.094   8.323  17.201  0.00  0.00    +0.000 OA
ATOM      3  N   UNL     1       1.652   8.544  19.002  0.00  0.00    +0.000 N 
ATOM      4  C   UNL     1       1.474   9.963  18.694  0.00  0.00    +0.000 C 
ATOM      5  C   UNL     1       0.032  10.475  18.653  0.00  0.00    +0.000 C 
ATOM      6  C   UNL     1      -0.998  10.006  19.674  0.00  0.00    +0.000 C 
ATOM      7  N   UNL     1      -0.486   9.576  20.984  0.00  0.00    +0.000 NA
ATOM      8  C   UNL     1       0.109   8.214  20.962  0.00  0.00    +0.000 C 
ATOM      9  C   UNL     1       1.546   8.196  20.434  0.00  0.00    +0.000 C 
ENDROOT
BRANCH   1  15
ATOM     10  C   UNL     1       5.318   3.855  19.274  0.00  0.00    +0.000 C 
ATOM     11  C   UNL     1       3.991   4.409  18.849  0.00  0.00    +0.000 A 
ATOM     12  C   UNL     1       2.927   3.559  18.525  0.00  0.00    +0.000 A 
ATOM     13  C   UNL     1       1.723   4.082  18.054  0.00  0.00    +0.000 A 
ATOM     14  C   UNL     1       1.570   5.459  17.904  0.00  0.00    +0.000 A 
ATOM     15  C   UNL     1       2.597   6.330  18.287  0.00  0.00    +0.000 A 
ATOM     16  C   UNL     1       3.814   5.796  18.740  0.00  0.00    +0.000 A 
ENDBRANCH   1  15
BRANCH   7  17
ATOM     17  S   UNL     1       0.205  10.678  22.073  0.00  0.00    +0.000 S 
ATOM     18  O   UNL     1       0.417  10.008  23.339  0.00  0.00    +0.000 OA
ATOM     19  O   UNL     1       1.345  11.272  21.401  0.00  0.00    +0.000 OA
BRANCH  17  20
ATOM     20  C   UNL     1      -0.970  11.983  22.316  0.00  0.00    +0.000 A 
ATOM     21  C   UNL     1      -2.061  11.716  23.168  0.00  0.00    +0.000 A 
ATOM     22  C   UNL     1      -3.115  12.613  23.254  0.00  0.00    +0.000 A 
ATOM     23  C   UNL     1      -3.079  13.776  22.497  0.00  0.00    +0.000 A 
ATOM     24  C   UNL     1      -1.990  14.046  21.650  0.00  0.00    +0.000 A 
ATOM     25  C   UNL     1      -1.985  15.215  20.877  0.00  0.00    +0.000 A 
ATOM     26  C   UNL     1      -0.931  15.480  20.008  0.00  0.00    +0.000 A 
ATOM     27  C   UNL     1      -0.897  16.703  19.150  0.00  0.00    +0.000 C 
ATOM     28  C   UNL     1       0.089  14.545  19.960  0.00  0.00    +0.000 A 
ATOM     29  N   UNL     1       0.131  13.418  20.710  0.00  0.00    +0.000 NA
ATOM     30  C   UNL     1      -0.902  13.142  21.542  0.00  0.00    +0.000 A 
ENDBRANCH  17  20
ENDBRANCH   7  17
TORSDOF 3
ENDMDL
