MODEL 1
REMARK VINA RESULT:      -9.0      0.000      0.000
REMARK  Name = 
REMARK  2 active torsions:
REMARK  status: ('A' for Active; 'I' for Inactive)
REMARK    1  A    between atoms: C_2  and  C_13
REMARK    2  A    between atoms: N_3  and  C_4
REMARK                            x       y       z     vdW  Elec       q    Type
REMARK                         _______ _______ _______ _____ _____    ______ ____
ROOT
ATOM      1  O   UNL     1       3.913   5.863  17.299  0.00  0.00    +0.000 OA
ATOM      2  C   UNL     1       4.072   4.694  17.648  0.00  0.00    +0.000 C 
ATOM      3  N   UNL     1       4.989   3.842  17.057  0.00  0.00    +0.000 N 
ATOM      4  H   UNL     1       4.944   2.858  17.283  0.00  0.00    +0.000 HD
ENDROOT
BRANCH   3   5
ATOM      5  C   UNL     1       5.838   4.221  15.979  0.00  0.00    +0.000 A 
ATOM      6  C   UNL     1       6.850   5.187  16.086  0.00  0.00    +0.000 A 
ATOM      7  N   UNL     1       7.652   5.643  15.089  0.00  0.00    +0.000 NA
ATOM      8  C   UNL     1       7.375   5.063  13.912  0.00  0.00    +0.000 A 
ATOM      9  N   UNL     1       7.973   5.348  12.719  0.00  0.00    +0.000 N 
ATOM     10  N   UNL     1       7.506   4.610  11.690  0.00  0.00    +0.000 NA
ATOM     11  C   UNL     1       6.572   3.842  12.267  0.00  0.00    +0.000 A 
ATOM     12  C   UNL     1       6.436   4.078  13.654  0.00  0.00    +0.000 A 
ATOM     13  C   UNL     1       5.650   3.614  14.728  0.00  0.00    +0.000 A 
ATOM     14  H   UNL     1       8.697   6.037  12.557  0.00  0.00    +0.000 HD
ENDBRANCH   3   5
BRANCH   2  15
ATOM     15  C   UNL     1       3.201   4.111  18.776  0.00  0.00    +0.000 C 
ATOM     16  C   UNL     1       1.764   3.934  18.201  0.00  0.00    +0.000 C 
ATOM     17  C   UNL     1       0.813   3.338  19.239  0.00  0.00    +0.000 C 
ATOM     18  C   UNL     1       1.355   1.970  19.675  0.00  0.00    +0.000 C 
ATOM     19  C   UNL     1       2.753   2.132  20.296  0.00  0.00    +0.000 C 
ATOM     20  C   UNL     1       2.659   3.080  21.505  0.00  0.00    +0.000 C 
ATOM     21  C   UNL     1       2.146   4.459  21.056  0.00  0.00    +0.000 C 
ATOM     22  C   UNL     1       0.745   4.288  20.444  0.00  0.00    +0.000 C 
ATOM     23  C   UNL     1       3.110   5.049  20.002  0.00  0.00    +0.000 C 
ATOM     24  C   UNL     1       3.713   2.732  19.251  0.00  0.00    +0.000 C 
ENDBRANCH   2  15
TORSDOF 2
ENDMDL
MODEL 2
REMARK VINA RESULT:      -8.8      0.145      1.578
REMARK  Name = 
REMARK  2 active torsions:
REMARK  status: ('A' for Active; 'I' for Inactive)
REMARK    1  A    between atoms: C_2  and  C_13
REMARK    2  A    between atoms: N_3  and  C_4
REMARK                            x       y       z     vdW  Elec       q    Type
REMARK                         _______ _______ _______ _____ _____    ______ ____
ROOT
ATOM      1  O   UNL     1       3.916   5.929  17.293  0.00  0.00    +0.000 OA
ATOM      2  C   UNL     1       3.989   4.733  17.576  0.00  0.00    +0.000 C 
ATOM      3  N   UNL     1       4.859   3.856  16.953  0.00  0.00    +0.000 N 
ATOM      4  H   UNL     1       4.743   2.866  17.119  0.00  0.00    +0.000 HD
ENDROOT
BRANCH   3   5
ATOM      5  C   UNL     1       5.755   4.237  15.915  0.00  0.00    +0.000 A 
ATOM      6  C   UNL     1       6.787   5.173  16.081  0.00  0.00    +0.000 A 
ATOM      7  N   UNL     1       7.636   5.631  15.123  0.00  0.00    +0.000 NA
ATOM      8  C   UNL     1       7.388   5.085  13.924  0.00  0.00    +0.000 A 
ATOM      9  N   UNL     1       8.035   5.381  12.761  0.00  0.00    +0.000 N 
ATOM     10  N   UNL     1       7.587   4.680  11.698  0.00  0.00    +0.000 NA
ATOM     11  C   UNL     1       6.612   3.924  12.223  0.00  0.00    +0.000 A 
ATOM     12  C   UNL     1       6.433   4.132  13.610  0.00  0.00    +0.000 A 
ATOM     13  C   UNL     1       5.597   3.665  14.643  0.00  0.00    +0.000 A 
ATOM     14  H   UNL     1       8.782   6.055  12.641  0.00  0.00    +0.000 HD
ENDBRANCH   3   5
BRANCH   2  15
ATOM     15  C   UNL     1       3.055   4.148  18.651  0.00  0.00    +0.000 C 
ATOM     16  C   UNL     1       3.586   2.724  18.995  0.00  0.00    +0.000 C 
ATOM     17  C   UNL     1       2.738   2.054  20.075  0.00  0.00    +0.000 C 
ATOM     18  C   UNL     1       2.772   2.925  21.339  0.00  0.00    +0.000 C 
ATOM     19  C   UNL     1       2.199   4.318  21.032  0.00  0.00    +0.000 C 
ATOM     20  C   UNL     1       0.754   4.168  20.523  0.00  0.00    +0.000 C 
ATOM     21  C   UNL     1       0.731   3.321  19.239  0.00  0.00    +0.000 C 
ATOM     22  C   UNL     1       1.297   1.927  19.559  0.00  0.00    +0.000 C 
ATOM     23  C   UNL     1       1.597   4.004  18.157  0.00  0.00    +0.000 C 
ATOM     24  C   UNL     1       3.053   4.997  19.943  0.00  0.00    +0.000 C 
ENDBRANCH   2  15
TORSDOF 2
ENDMDL
MODEL 3
REMARK VINA RESULT:      -8.8      0.139      1.633
REMARK  Name = 
REMARK  2 active torsions:
REMARK  status: ('A' for Active; 'I' for Inactive)
REMARK    1  A    between atoms: C_2  and  C_13
REMARK    2  A    between atoms: N_3  and  C_4
REMARK                            x       y       z     vdW  Elec       q    Type
REMARK                         _______ _______ _______ _____ _____    ______ ____
ROOT
ATOM      1  O   UNL     1       3.755   5.773  17.198  0.00  0.00    +0.000 OA
ATOM      2  C   UNL     1       3.945   4.613  17.562  0.00  0.00    +0.000 C 
ATOM      3  N   UNL     1       4.918   3.795  17.017  0.00  0.00    +0.000 N 
ATOM      4  H   UNL     1       4.902   2.811  17.247  0.00  0.00    +0.000 HD
ENDROOT
BRANCH   3   5
ATOM      5  C   UNL     1       5.797   4.201  15.973  0.00  0.00    +0.000 A 
ATOM      6  C   UNL     1       6.801   5.169  16.132  0.00  0.00    +0.000 A 
ATOM      7  N   UNL     1       7.630   5.651  15.169  0.00  0.00    +0.000 NA
ATOM      8  C   UNL     1       7.392   5.095  13.972  0.00  0.00    +0.000 A 
ATOM      9  N   UNL     1       8.024   5.409  12.805  0.00  0.00    +0.000 N 
ATOM     10  N   UNL     1       7.591   4.692  11.746  0.00  0.00    +0.000 NA
ATOM     11  C   UNL     1       6.644   3.907  12.277  0.00  0.00    +0.000 A 
ATOM     12  C   UNL     1       6.466   4.113  13.664  0.00  0.00    +0.000 A 
ATOM     13  C   UNL     1       5.650   3.622  14.704  0.00  0.00    +0.000 A 
ATOM     14  H   UNL     1       8.749   6.105  12.680  0.00  0.00    +0.000 HD
ENDBRANCH   3   5
BRANCH   2  15
ATOM     15  C   UNL     1       3.049   4.003  18.656  0.00  0.00    +0.000 C 
ATOM     16  C   UNL     1       3.103   4.962  19.882  0.00  0.00    +0.000 C 
ATOM     17  C   UNL     1       2.227   4.458  21.029  0.00  0.00    +0.000 C 
ATOM     18  C   UNL     1       0.778   4.354  20.531  0.00  0.00    +0.000 C 
ATOM     19  C   UNL     1       0.696   3.368  19.354  0.00  0.00    +0.000 C 
ATOM     20  C   UNL     1       1.204   1.990  19.815  0.00  0.00    +0.000 C 
ATOM     21  C   UNL     1       2.666   2.095  20.282  0.00  0.00    +0.000 C 
ATOM     22  C   UNL     1       2.736   3.076  21.464  0.00  0.00    +0.000 C 
ATOM     23  C   UNL     1       3.541   2.612  19.118  0.00  0.00    +0.000 C 
ATOM     24  C   UNL     1       1.579   3.875  18.197  0.00  0.00    +0.000 C 
ENDBRANCH   2  15
TORSDOF 2
ENDMDL
MODEL 4
REMARK VINA RESULT:      -8.0      1.058      1.725
REMARK  Name = 
REMARK  2 active torsions:
REMARK  status: ('A' for Active; 'I' for Inactive)
REMARK    1  A    between atoms: C_2  and  C_13
REMARK    2  A    between atoms: N_3  and  C_4
REMARK                            x       y       z     vdW  Elec       q    Type
REMARK                         _______ _______ _______ _____ _____    ______ ____
ROOT
ATOM      1  O   UNL     1       4.386   2.252  17.317  0.00  0.00    +0.000 OA
ATOM      2  C   UNL     1       4.063   3.354  17.760  0.00  0.00    +0.000 C 
ATOM      3  N   UNL     1       4.539   4.548  17.249  0.00  0.00    +0.000 N 
ATOM      4  H   UNL     1       4.362   5.397  17.768  0.00  0.00    +0.000 HD
ENDROOT
BRANCH   3   5
ATOM      5  C   UNL     1       5.457   4.633  16.165  0.00  0.00    +0.000 A 
ATOM      6  C   UNL     1       6.618   5.422  16.186  0.00  0.00    +0.000 A 
ATOM      7  N   UNL     1       7.502   5.601  15.170  0.00  0.00    +0.000 NA
ATOM      8  C   UNL     1       7.150   4.924  14.068  0.00  0.00    +0.000 A 
ATOM      9  N   UNL     1       7.807   4.944  12.872  0.00  0.00    +0.000 N 
ATOM     10  N   UNL     1       7.237   4.164  11.929  0.00  0.00    +0.000 NA
ATOM     11  C   UNL     1       6.176   3.647  12.562  0.00  0.00    +0.000 A 
ATOM     12  C   UNL     1       6.061   4.085  13.902  0.00  0.00    +0.000 A 
ATOM     13  C   UNL     1       5.189   3.906  14.995  0.00  0.00    +0.000 A 
ATOM     14  H   UNL     1       8.640   5.475  12.652  0.00  0.00    +0.000 HD
ENDBRANCH   3   5
BRANCH   2  15
ATOM     15  C   UNL     1       3.107   3.439  18.964  0.00  0.00    +0.000 C 
ATOM     16  C   UNL     1       3.079   4.927  19.424  0.00  0.00    +0.000 C 
ATOM     17  C   UNL     1       2.138   5.130  20.611  0.00  0.00    +0.000 C 
ATOM     18  C   UNL     1       0.724   4.704  20.196  0.00  0.00    +0.000 C 
ATOM     19  C   UNL     1       0.720   3.220  19.791  0.00  0.00    +0.000 C 
ATOM     20  C   UNL     1       1.208   2.372  20.979  0.00  0.00    +0.000 C 
ATOM     21  C   UNL     1       2.639   2.783  21.369  0.00  0.00    +0.000 C 
ATOM     22  C   UNL     1       2.630   4.265  21.781  0.00  0.00    +0.000 C 
ATOM     23  C   UNL     1       3.579   2.580  20.160  0.00  0.00    +0.000 C 
ATOM     24  C   UNL     1       1.668   3.013  18.593  0.00  0.00    +0.000 C 
ENDBRANCH   2  15
TORSDOF 2
ENDMDL
MODEL 5
REMARK VINA RESULT:      -7.9      1.053      2.005
REMARK  Name = 
REMARK  2 active torsions:
REMARK  status: ('A' for Active; 'I' for Inactive)
REMARK    1  A    between atoms: C_2  and  C_13
REMARK    2  A    between atoms: N_3  and  C_4
REMARK                            x       y       z     vdW  Elec       q    Type
REMARK                         _______ _______ _______ _____ _____    ______ ____
ROOT
ATOM      1  O   UNL     1       4.212   2.325  17.204  0.00  0.00    +0.000 OA
ATOM      2  C   UNL     1       3.928   3.447  17.621  0.00  0.00    +0.000 C 
ATOM      3  N   UNL     1       4.453   4.611  17.087  0.00  0.00    +0.000 N 
ATOM      4  H   UNL     1       4.305   5.477  17.587  0.00  0.00    +0.000 HD
ENDROOT
BRANCH   3   5
ATOM      5  C   UNL     1       5.381   4.637  16.009  0.00  0.00    +0.000 A 
ATOM      6  C   UNL     1       6.570   5.383  16.022  0.00  0.00    +0.000 A 
ATOM      7  N   UNL     1       7.467   5.505  15.008  0.00  0.00    +0.000 NA
ATOM      8  C   UNL     1       7.098   4.816  13.919  0.00  0.00    +0.000 A 
ATOM      9  N   UNL     1       7.763   4.785  12.729  0.00  0.00    +0.000 N 
ATOM     10  N   UNL     1       7.172   4.005  11.799  0.00  0.00    +0.000 NA
ATOM     11  C   UNL     1       6.088   3.542  12.436  0.00  0.00    +0.000 A 
ATOM     12  C   UNL     1       5.979   4.015  13.764  0.00  0.00    +0.000 A 
ATOM     13  C   UNL     1       5.094   3.893  14.854  0.00  0.00    +0.000 A 
ATOM     14  H   UNL     1       8.617   5.279  12.502  0.00  0.00    +0.000 HD
ENDBRANCH   3   5
BRANCH   2  15
ATOM     15  C   UNL     1       2.967   3.595  18.815  0.00  0.00    +0.000 C 
ATOM     16  C   UNL     1       3.592   2.810  20.007  0.00  0.00    +0.000 C 
ATOM     17  C   UNL     1       2.723   2.907  21.261  0.00  0.00    +0.000 C 
ATOM     18  C   UNL     1       2.583   4.385  21.648  0.00  0.00    +0.000 C 
ATOM     19  C   UNL     1       1.917   5.168  20.504  0.00  0.00    +0.000 C 
ATOM     20  C   UNL     1       0.534   4.556  20.214  0.00  0.00    +0.000 C 
ATOM     21  C   UNL     1       0.685   3.084  19.795  0.00  0.00    +0.000 C 
ATOM     22  C   UNL     1       1.344   2.309  20.949  0.00  0.00    +0.000 C 
ATOM     23  C   UNL     1       1.570   2.997  18.532  0.00  0.00    +0.000 C 
ATOM     24  C   UNL     1       2.792   5.071  19.239  0.00  0.00    +0.000 C 
ENDBRANCH   2  15
TORSDOF 2
ENDMDL
MODEL 6
REMARK VINA RESULT:      -7.8      5.004      8.148
REMARK  Name = 
REMARK  2 active torsions:
REMARK  status: ('A' for Active; 'I' for Inactive)
REMARK    1  A    between atoms: C_2  and  C_13
REMARK    2  A    between atoms: N_3  and  C_4
REMARK                            x       y       z     vdW  Elec       q    Type
REMARK                         _______ _______ _______ _____ _____    ______ ____
ROOT
ATOM      1  O   UNL     1       2.197   7.955  17.633  0.00  0.00    +0.000 OA
ATOM      2  C   UNL     1       2.562   7.190  18.525  0.00  0.00    +0.000 C 
ATOM      3  N   UNL     1       2.225   7.360  19.856  0.00  0.00    +0.000 N 
ATOM      4  H   UNL     1       2.697   6.792  20.547  0.00  0.00    +0.000 HD
ENDROOT
BRANCH   3   5
ATOM      5  C   UNL     1       1.431   8.438  20.339  0.00  0.00    +0.000 A 
ATOM      6  C   UNL     1       1.173   9.605  19.604  0.00  0.00    +0.000 A 
ATOM      7  N   UNL     1       0.481  10.697  20.024  0.00  0.00    +0.000 NA
ATOM      8  C   UNL     1       0.040  10.564  21.283  0.00  0.00    +0.000 A 
ATOM      9  N   UNL     1      -0.639  11.508  21.997  0.00  0.00    +0.000 N 
ATOM     10  N   UNL     1      -0.968  11.110  23.244  0.00  0.00    +0.000 NA
ATOM     11  C   UNL     1      -0.462   9.871  23.311  0.00  0.00    +0.000 A 
ATOM     12  C   UNL     1       0.186   9.470  22.119  0.00  0.00    +0.000 A 
ATOM     13  C   UNL     1       0.884   8.349  21.628  0.00  0.00    +0.000 A 
ATOM     14  H   UNL     1      -0.895  12.435  21.680  0.00  0.00    +0.000 HD
ENDBRANCH   3   5
BRANCH   2  15
ATOM     15  C   UNL     1       3.465   5.992  18.178  0.00  0.00    +0.000 C 
ATOM     16  C   UNL     1       4.205   5.582  19.486  0.00  0.00    +0.000 C 
ATOM     17  C   UNL     1       5.122   4.380  19.259  0.00  0.00    +0.000 C 
ATOM     18  C   UNL     1       4.272   3.200  18.768  0.00  0.00    +0.000 C 
ATOM     19  C   UNL     1       3.576   3.567  17.447  0.00  0.00    +0.000 C 
ATOM     20  C   UNL     1       4.644   3.931  16.400  0.00  0.00    +0.000 C 
ATOM     21  C   UNL     1       5.470   5.135  16.884  0.00  0.00    +0.000 C 
ATOM     22  C   UNL     1       6.169   4.754  18.201  0.00  0.00    +0.000 C 
ATOM     23  C   UNL     1       4.533   6.341  17.117  0.00  0.00    +0.000 C 
ATOM     24  C   UNL     1       2.651   4.779  17.674  0.00  0.00    +0.000 C 
ENDBRANCH   2  15
TORSDOF 2
ENDMDL
MODEL 7
REMARK VINA RESULT:      -7.8      5.148      7.615
REMARK  Name = 
REMARK  2 active torsions:
REMARK  status: ('A' for Active; 'I' for Inactive)
REMARK    1  A    between atoms: C_2  and  C_13
REMARK    2  A    between atoms: N_3  and  C_4
REMARK                            x       y       z     vdW  Elec       q    Type
REMARK                         _______ _______ _______ _____ _____    ______ ____
ROOT
ATOM      1  O   UNL     1       2.707   7.549  18.711  0.00  0.00    +0.000 OA
ATOM      2  C   UNL     1       2.294   6.744  19.543  0.00  0.00    +0.000 C 
ATOM      3  N   UNL     1       1.559   7.111  20.657  0.00  0.00    +0.000 N 
ATOM      4  H   UNL     1       1.401   6.419  21.377  0.00  0.00    +0.000 HD
ENDROOT
BRANCH   3   5
ATOM      5  C   UNL     1       1.209   8.456  20.964  0.00  0.00    +0.000 A 
ATOM      6  C   UNL     1       1.152   8.968  22.269  0.00  0.00    +0.000 A 
ATOM      7  N   UNL     1       0.766  10.217  22.640  0.00  0.00    +0.000 NA
ATOM      8  C   UNL     1       0.412  10.970  21.588  0.00  0.00    +0.000 A 
ATOM      9  N   UNL     1      -0.068  12.246  21.643  0.00  0.00    +0.000 N 
ATOM     10  N   UNL     1      -0.343  12.773  20.431  0.00  0.00    +0.000 NA
ATOM     11  C   UNL     1      -0.031  11.778  19.590  0.00  0.00    +0.000 A 
ATOM     12  C   UNL     1       0.443  10.621  20.249  0.00  0.00    +0.000 A 
ATOM     13  C   UNL     1       0.881   9.324  19.911  0.00  0.00    +0.000 A 
ATOM     14  H   UNL     1      -0.228  12.794  22.480  0.00  0.00    +0.000 HD
ENDBRANCH   3   5
BRANCH   2  15
ATOM     15  C   UNL     1       2.623   5.248  19.383  0.00  0.00    +0.000 C 
ATOM     16  C   UNL     1       2.042   4.795  18.010  0.00  0.00    +0.000 C 
ATOM     17  C   UNL     1       2.331   3.318  17.739  0.00  0.00    +0.000 C 
ATOM     18  C   UNL     1       3.851   3.107  17.739  0.00  0.00    +0.000 C 
ATOM     19  C   UNL     1       4.436   3.497  19.107  0.00  0.00    +0.000 C 
ATOM     20  C   UNL     1       3.775   2.639  20.200  0.00  0.00    +0.000 C 
ATOM     21  C   UNL     1       2.255   2.881  20.216  0.00  0.00    +0.000 C 
ATOM     22  C   UNL     1       1.680   2.479  18.847  0.00  0.00    +0.000 C 
ATOM     23  C   UNL     1       1.976   4.376  20.485  0.00  0.00    +0.000 C 
ATOM     24  C   UNL     1       4.146   4.985  19.383  0.00  0.00    +0.000 C 
ENDBRANCH   2  15
TORSDOF 2
ENDMDL
MODEL 8
REMARK VINA RESULT:      -7.8      5.055      8.177
REMARK  Name = 
REMARK  2 active torsions:
REMARK  status: ('A' for Active; 'I' for Inactive)
REMARK    1  A    between atoms: C_2  and  C_13
REMARK    2  A    between atoms: N_3  and  C_4
REMARK                            x       y       z     vdW  Elec       q    Type
REMARK                         _______ _______ _______ _____ _____    ______ ____
ROOT
ATOM      1  O   UNL     1       2.206   7.949  17.712  0.00  0.00    +0.000 OA
ATOM      2  C   UNL     1       2.535   7.192  18.624  0.00  0.00    +0.000 C 
ATOM      3  N   UNL     1       2.176   7.392  19.946  0.00  0.00    +0.000 N 
ATOM      4  H   UNL     1       2.621   6.827  20.655  0.00  0.00    +0.000 HD
ENDROOT
BRANCH   3   5
ATOM      5  C   UNL     1       1.397   8.496  20.393  0.00  0.00    +0.000 A 
ATOM      6  C   UNL     1       1.199   9.666  19.643  0.00  0.00    +0.000 A 
ATOM      7  N   UNL     1       0.524  10.780  20.031  0.00  0.00    +0.000 NA
ATOM      8  C   UNL     1       0.036  10.668  21.275  0.00  0.00    +0.000 A 
ATOM      9  N   UNL     1      -0.641  11.635  21.959  0.00  0.00    +0.000 N 
ATOM     10  N   UNL     1      -1.026  11.255  23.195  0.00  0.00    +0.000 NA
ATOM     11  C   UNL     1      -0.559  10.002  23.287  0.00  0.00    +0.000 A 
ATOM     12  C   UNL     1       0.119   9.576  22.122  0.00  0.00    +0.000 A 
ATOM     13  C   UNL     1       0.802   8.431  21.662  0.00  0.00    +0.000 A 
ATOM     14  H   UNL     1      -0.859  12.567  21.627  0.00  0.00    +0.000 HD
ENDBRANCH   3   5
BRANCH   2  15
ATOM     15  C   UNL     1       3.419   5.968  18.317  0.00  0.00    +0.000 C 
ATOM     16  C   UNL     1       4.479   6.420  17.269  0.00  0.00    +0.000 C 
ATOM     17  C   UNL     1       5.428   5.279  16.903  0.00  0.00    +0.000 C 
ATOM     18  C   UNL     1       6.145   4.809  18.177  0.00  0.00    +0.000 C 
ATOM     19  C   UNL     1       5.116   4.307  19.204  0.00  0.00    +0.000 C 
ATOM     20  C   UNL     1       4.309   3.152  18.586  0.00  0.00    +0.000 C 
ATOM     21  C   UNL     1       3.568   3.638  17.328  0.00  0.00    +0.000 C 
ATOM     22  C   UNL     1       4.606   4.129  16.304  0.00  0.00    +0.000 C 
ATOM     23  C   UNL     1       2.617   4.795  17.708  0.00  0.00    +0.000 C 
ATOM     24  C   UNL     1       4.158   5.456  19.574  0.00  0.00    +0.000 C 
ENDBRANCH   2  15
TORSDOF 2
ENDMDL
MODEL 9
REMARK VINA RESULT:      -7.8      6.201      8.885
REMARK  Name = 
REMARK  2 active torsions:
REMARK  status: ('A' for Active; 'I' for Inactive)
REMARK    1  A    between atoms: C_2  and  C_13
REMARK    2  A    between atoms: N_3  and  C_4
REMARK                            x       y       z     vdW  Elec       q    Type
REMARK                         _______ _______ _______ _____ _____    ______ ____
ROOT
ATOM      1  O   UNL     1       7.598   9.897  17.452  0.00  0.00    +0.000 OA
ATOM      2  C   UNL     1       8.503   9.702  18.263  0.00  0.00    +0.000 C 
ATOM      3  N   UNL     1       8.801   8.455  18.784  0.00  0.00    +0.000 N 
ATOM      4  H   UNL     1       9.441   8.401  19.564  0.00  0.00    +0.000 HD
ENDROOT
BRANCH   3   5
ATOM      5  C   UNL     1       8.091   7.268  18.447  0.00  0.00    +0.000 A 
ATOM      6  C   UNL     1       8.001   6.148  19.288  0.00  0.00    +0.000 A 
ATOM      7  N   UNL     1       7.398   4.963  19.008  0.00  0.00    +0.000 NA
ATOM      8  C   UNL     1       6.865   4.945  17.778  0.00  0.00    +0.000 A 
ATOM      9  N   UNL     1       6.240   3.883  17.192  0.00  0.00    +0.000 N 
ATOM     10  N   UNL     1       5.792   4.140  15.945  0.00  0.00    +0.000 NA
ATOM     11  C   UNL     1       6.163   5.411  15.744  0.00  0.00    +0.000 A 
ATOM     12  C   UNL     1       6.843   5.972  16.850  0.00  0.00    +0.000 A 
ATOM     13  C   UNL     1       7.455   7.194  17.199  0.00  0.00    +0.000 A 
ATOM     14  H   UNL     1       6.100   2.966  17.599  0.00  0.00    +0.000 HD
ENDBRANCH   3   5
BRANCH   2  15
ATOM     15  C   UNL     1       9.343  10.890  18.766  0.00  0.00    +0.000 C 
ATOM     16  C   UNL     1      10.700  10.848  18.002  0.00  0.00    +0.000 C 
ATOM     17  C   UNL     1      11.612  12.004  18.414  0.00  0.00    +0.000 C 
ATOM     18  C   UNL     1      10.898  13.327  18.104  0.00  0.00    +0.000 C 
ATOM     19  C   UNL     1       9.581  13.411  18.893  0.00  0.00    +0.000 C 
ATOM     20  C   UNL     1       9.887  13.307  20.397  0.00  0.00    +0.000 C 
ATOM     21  C   UNL     1      10.573  11.964  20.706  0.00  0.00    +0.000 C 
ATOM     22  C   UNL     1      11.893  11.894  19.919  0.00  0.00    +0.000 C 
ATOM     23  C   UNL     1       9.646  10.804  20.280  0.00  0.00    +0.000 C 
ATOM     24  C   UNL     1       8.660  12.246  18.479  0.00  0.00    +0.000 C 
ENDBRANCH   2  15
TORSDOF 2
ENDMDL
