MODEL 1
REMARK VINA RESULT:      -7.5      0.000      0.000
REMARK  Name = 
REMARK  8 active torsions:
REMARK  status: ('A' for Active; 'I' for Inactive)
REMARK    1  A    between atoms: C_1  and  C_2
REMARK    2  A    between atoms: C_6  and  N_7
REMARK    3  A    between atoms: C_8  and  C_10
REMARK    4  A    between atoms: N_13  and  C_14
REMARK    5  A    between atoms: C_14  and  C_15
REMARK    6  A    between atoms: C_14  and  C_16
REMARK    7  A    between atoms: C_14  and  C_17
REMARK    8  A    between atoms: C_18  and  C_19
REMARK                            x       y       z     vdW  Elec       q    Type
REMARK                         _______ _______ _______ _____ _____    ______ ____
ROOT
ATOM      1  N   UNL     1       1.694   8.530  18.120  0.00  0.00    +0.000 N 
ATOM      2  C   UNL     1       2.141   7.679  19.124  0.00  0.00    +0.000 C 
ATOM      3  O   UNL     1       2.251   7.987  20.303  0.00  0.00    +0.000 OA
ATOM      4  H   UNL     1       1.679   8.178  17.174  0.00  0.00    +0.000 HD
ENDROOT
BRANCH   1  10
ATOM      5  C   UNL     1       1.338  15.804  18.877  0.00  0.00    +0.000 C 
ATOM      6  C   UNL     1       1.260  14.334  18.746  0.00  0.00    +0.000 A 
ATOM      7  N   UNL     1       2.246  13.478  18.586  0.00  0.00    +0.000 NA
ATOM      8  C   UNL     1       1.614  12.262  18.517  0.00  0.00    +0.000 A 
ATOM      9  C   UNL     1       2.129  10.969  18.348  0.00  0.00    +0.000 A 
ATOM     10  C   UNL     1       1.249   9.873  18.301  0.00  0.00    +0.000 A 
ATOM     11  C   UNL     1      -0.136  10.101  18.446  0.00  0.00    +0.000 A 
ATOM     12  C   UNL     1      -0.672  11.396  18.617  0.00  0.00    +0.000 A 
ATOM     13  C   UNL     1       0.251  12.435  18.641  0.00  0.00    +0.000 A 
ATOM     14  O   UNL     1       0.008  13.773  18.790  0.00  0.00    +0.000 OA
ENDBRANCH   1  10
BRANCH   2  15
ATOM     15  C   UNL     1       2.543   6.339  18.698  0.00  0.00    +0.000 A 
ATOM     16  C   UNL     1       3.383   5.967  17.639  0.00  0.00    +0.000 A 
ATOM     17  N   UNL     1       3.629   4.662  17.613  0.00  0.00    +0.000 NA
ATOM     18  N   UNL     1       2.948   4.141  18.668  0.00  0.00    +0.000 N 
ATOM     19  C   UNL     1       2.249   5.131  19.342  0.00  0.00    +0.000 A 
BRANCH  18  20
ATOM     20  C   UNL     1       3.138   2.688  18.931  0.00  0.00    +0.000 C 
ATOM     21  C   UNL     1       4.089   2.486  20.130  0.00  0.00    +0.000 C 
ATOM     22  C   UNL     1       1.840   1.905  19.198  0.00  0.00    +0.000 C 
ATOM     23  C   UNL     1       3.786   1.995  17.699  0.00  0.00    +0.000 C 
ENDBRANCH  18  20
BRANCH  19  24
ATOM     24  C   UNL     1       1.384   4.873  20.519  0.00  0.00    +0.000 C 
ATOM     25  F   UNL     1       2.017   4.338  21.587  0.00  0.00    +0.000 F 
ATOM     26  F   UNL     1       0.841   6.026  20.988  0.00  0.00    +0.000 F 
ATOM     27  F   UNL     1       0.358   4.042  20.211  0.00  0.00    +0.000 F 
ENDBRANCH  19  24
ENDBRANCH   2  15
TORSDOF 4
ENDMDL
MODEL 2
REMARK VINA RESULT:      -7.4      2.391      2.699
REMARK  Name = 
REMARK  8 active torsions:
REMARK  status: ('A' for Active; 'I' for Inactive)
REMARK    1  A    between atoms: C_1  and  C_2
REMARK    2  A    between atoms: C_6  and  N_7
REMARK    3  A    between atoms: C_8  and  C_10
REMARK    4  A    between atoms: N_13  and  C_14
REMARK    5  A    between atoms: C_14  and  C_15
REMARK    6  A    between atoms: C_14  and  C_16
REMARK    7  A    between atoms: C_14  and  C_17
REMARK    8  A    between atoms: C_18  and  C_19
REMARK                            x       y       z     vdW  Elec       q    Type
REMARK                         _______ _______ _______ _____ _____    ______ ____
ROOT
ATOM      1  N   UNL     1       0.958   9.165  19.161  0.00  0.00    +0.000 N 
ATOM      2  C   UNL     1       1.682   8.184  19.830  0.00  0.00    +0.000 C 
ATOM      3  O   UNL     1       1.767   8.085  21.046  0.00  0.00    +0.000 OA
ATOM      4  H   UNL     1       0.991   9.171  18.152  0.00  0.00    +0.000 HD
ENDROOT
BRANCH   1  10
ATOM      5  C   UNL     1      -1.843  14.103  23.785  0.00  0.00    +0.000 C 
ATOM      6  C   UNL     1      -1.390  13.142  22.758  0.00  0.00    +0.000 A 
ATOM      7  N   UNL     1      -0.391  12.288  22.825  0.00  0.00    +0.000 NA
ATOM      8  C   UNL     1      -0.417  11.659  21.607  0.00  0.00    +0.000 A 
ATOM      9  C   UNL     1       0.402  10.652  21.077  0.00  0.00    +0.000 A 
ATOM     10  C   UNL     1       0.163  10.178  19.774  0.00  0.00    +0.000 A 
ATOM     11  C   UNL     1      -0.912  10.717  19.037  0.00  0.00    +0.000 A 
ATOM     12  C   UNL     1      -1.747  11.731  19.554  0.00  0.00    +0.000 A 
ATOM     13  C   UNL     1      -1.448  12.164  20.841  0.00  0.00    +0.000 A 
ATOM     14  O   UNL     1      -2.087  13.125  21.575  0.00  0.00    +0.000 OA
ENDBRANCH   1  10
BRANCH   2  15
ATOM     15  C   UNL     1       2.422   7.246  18.987  0.00  0.00    +0.000 A 
ATOM     16  C   UNL     1       3.276   7.516  17.908  0.00  0.00    +0.000 A 
ATOM     17  N   UNL     1       3.878   6.427  17.443  0.00  0.00    +0.000 NA
ATOM     18  N   UNL     1       3.427   5.404  18.217  0.00  0.00    +0.000 N 
ATOM     19  C   UNL     1       2.514   5.860  19.156  0.00  0.00    +0.000 A 
BRANCH  18  20
ATOM     20  C   UNL     1       4.032   4.066  17.970  0.00  0.00    +0.000 C 
ATOM     21  C   UNL     1       4.736   3.558  19.245  0.00  0.00    +0.000 C 
ATOM     22  C   UNL     1       3.042   2.987  17.494  0.00  0.00    +0.000 C 
ATOM     23  C   UNL     1       5.106   4.157  16.848  0.00  0.00    +0.000 C 
ENDBRANCH  18  20
BRANCH  19  24
ATOM     24  C   UNL     1       1.820   4.977  20.126  0.00  0.00    +0.000 C 
ATOM     25  F   UNL     1       0.711   5.506  20.689  0.00  0.00    +0.000 F 
ATOM     26  F   UNL     1       1.386   3.838  19.525  0.00  0.00    +0.000 F 
ATOM     27  F   UNL     1       2.640   4.608  21.140  0.00  0.00    +0.000 F 
ENDBRANCH  19  24
ENDBRANCH   2  15
TORSDOF 4
ENDMDL
MODEL 3
REMARK VINA RESULT:      -7.4      2.890      3.112
REMARK  Name = 
REMARK  8 active torsions:
REMARK  status: ('A' for Active; 'I' for Inactive)
REMARK    1  A    between atoms: C_1  and  C_2
REMARK    2  A    between atoms: C_6  and  N_7
REMARK    3  A    between atoms: C_8  and  C_10
REMARK    4  A    between atoms: N_13  and  C_14
REMARK    5  A    between atoms: C_14  and  C_15
REMARK    6  A    between atoms: C_14  and  C_16
REMARK    7  A    between atoms: C_14  and  C_17
REMARK    8  A    between atoms: C_18  and  C_19
REMARK                            x       y       z     vdW  Elec       q    Type
REMARK                         _______ _______ _______ _____ _____    ______ ____
ROOT
ATOM      1  N   UNL     1       1.860   8.411  20.215  0.00  0.00    +0.000 N 
ATOM      2  C   UNL     1       1.771   8.298  18.833  0.00  0.00    +0.000 C 
ATOM      3  O   UNL     1       0.944   8.870  18.136  0.00  0.00    +0.000 OA
ATOM      4  H   UNL     1       2.561   7.862  20.690  0.00  0.00    +0.000 HD
ENDROOT
BRANCH   1  10
ATOM      5  C   UNL     1      -1.521  14.103  23.343  0.00  0.00    +0.000 C 
ATOM      6  C   UNL     1      -0.910  12.867  22.811  0.00  0.00    +0.000 A 
ATOM      7  N   UNL     1      -0.012  12.747  21.858  0.00  0.00    +0.000 NA
ATOM      8  C   UNL     1       0.190  11.393  21.768  0.00  0.00    +0.000 A 
ATOM      9  C   UNL     1       1.029  10.645  20.931  0.00  0.00    +0.000 A 
ATOM     10  C   UNL     1       1.043   9.242  21.038  0.00  0.00    +0.000 A 
ATOM     11  C   UNL     1       0.221   8.621  22.002  0.00  0.00    +0.000 A 
ATOM     12  C   UNL     1      -0.630   9.360  22.853  0.00  0.00    +0.000 A 
ATOM     13  C   UNL     1      -0.605  10.739  22.687  0.00  0.00    +0.000 A 
ATOM     14  O   UNL     1      -1.323  11.682  23.369  0.00  0.00    +0.000 OA
ENDBRANCH   1  10
BRANCH   2  15
ATOM     15  C   UNL     1       2.722   7.384  18.202  0.00  0.00    +0.000 A 
ATOM     16  C   UNL     1       3.744   7.670  17.285  0.00  0.00    +0.000 A 
ATOM     17  N   UNL     1       4.498   6.612  17.009  0.00  0.00    +0.000 NA
ATOM     18  N   UNL     1       3.983   5.595  17.748  0.00  0.00    +0.000 N 
ATOM     19  C   UNL     1       2.878   6.019  18.472  0.00  0.00    +0.000 A 
BRANCH  18  20
ATOM     20  C   UNL     1       4.717   4.300  17.702  0.00  0.00    +0.000 C 
ATOM     21  C   UNL     1       5.526   4.101  19.000  0.00  0.00    +0.000 C 
ATOM     22  C   UNL     1       3.829   3.061  17.484  0.00  0.00    +0.000 C 
ATOM     23  C   UNL     1       5.725   4.292  16.517  0.00  0.00    +0.000 C 
ENDBRANCH  18  20
BRANCH  19  24
ATOM     24  C   UNL     1       2.078   5.130  19.349  0.00  0.00    +0.000 C 
ATOM     25  F   UNL     1       2.800   4.294  20.129  0.00  0.00    +0.000 F 
ATOM     26  F   UNL     1       1.333   5.853  20.226  0.00  0.00    +0.000 F 
ATOM     27  F   UNL     1       1.221   4.362  18.633  0.00  0.00    +0.000 F 
ENDBRANCH  19  24
ENDBRANCH   2  15
TORSDOF 4
ENDMDL
MODEL 4
REMARK VINA RESULT:      -7.4      2.372      2.726
REMARK  Name = 
REMARK  8 active torsions:
REMARK  status: ('A' for Active; 'I' for Inactive)
REMARK    1  A    between atoms: C_1  and  C_2
REMARK    2  A    between atoms: C_6  and  N_7
REMARK    3  A    between atoms: C_8  and  C_10
REMARK    4  A    between atoms: N_13  and  C_14
REMARK    5  A    between atoms: C_14  and  C_15
REMARK    6  A    between atoms: C_14  and  C_16
REMARK    7  A    between atoms: C_14  and  C_17
REMARK    8  A    between atoms: C_18  and  C_19
REMARK                            x       y       z     vdW  Elec       q    Type
REMARK                         _______ _______ _______ _____ _____    ______ ____
ROOT
ATOM      1  N   UNL     1       0.966   9.121  19.159  0.00  0.00    +0.000 N 
ATOM      2  C   UNL     1       1.719   8.167  19.834  0.00  0.00    +0.000 C 
ATOM      3  O   UNL     1       1.843   8.107  21.050  0.00  0.00    +0.000 OA
ATOM      4  H   UNL     1       0.967   9.095  18.150  0.00  0.00    +0.000 HD
ENDROOT
BRANCH   1  10
ATOM      5  C   UNL     1      -1.857  14.036  23.794  0.00  0.00    +0.000 C 
ATOM      6  C   UNL     1      -1.394  13.086  22.761  0.00  0.00    +0.000 A 
ATOM      7  N   UNL     1      -0.430  12.195  22.847  0.00  0.00    +0.000 NA
ATOM      8  C   UNL     1      -0.425  11.599  21.612  0.00  0.00    +0.000 A 
ATOM      9  C   UNL     1       0.379  10.577  21.090  0.00  0.00    +0.000 A 
ATOM     10  C   UNL     1       0.181  10.146  19.765  0.00  0.00    +0.000 A 
ATOM     11  C   UNL     1      -0.840  10.744  18.997  0.00  0.00    +0.000 A 
ATOM     12  C   UNL     1      -1.660  11.775  19.507  0.00  0.00    +0.000 A 
ATOM     13  C   UNL     1      -1.403  12.162  20.816  0.00  0.00    +0.000 A 
ATOM     14  O   UNL     1      -2.038  13.126  21.549  0.00  0.00    +0.000 OA
ENDBRANCH   1  10
BRANCH   2  15
ATOM     15  C   UNL     1       2.440   7.209  18.998  0.00  0.00    +0.000 A 
ATOM     16  C   UNL     1       3.299   7.455  17.916  0.00  0.00    +0.000 A 
ATOM     17  N   UNL     1       3.879   6.351  17.460  0.00  0.00    +0.000 NA
ATOM     18  N   UNL     1       3.410   5.343  18.241  0.00  0.00    +0.000 N 
ATOM     19  C   UNL     1       2.506   5.822  19.178  0.00  0.00    +0.000 A 
BRANCH  18  20
ATOM     20  C   UNL     1       3.989   3.992  18.004  0.00  0.00    +0.000 C 
ATOM     21  C   UNL     1       5.113   4.072  16.950  0.00  0.00    +0.000 C 
ATOM     22  C   UNL     1       4.546   3.298  19.261  0.00  0.00    +0.000 C 
ATOM     23  C   UNL     1       2.901   3.026  17.454  0.00  0.00    +0.000 C 
ENDBRANCH  18  20
BRANCH  19  24
ATOM     24  C   UNL     1       1.797   4.960  20.155  0.00  0.00    +0.000 C 
ATOM     25  F   UNL     1       1.358   3.780  19.663  0.00  0.00    +0.000 F 
ATOM     26  F   UNL     1       2.613   4.616  21.185  0.00  0.00    +0.000 F 
ATOM     27  F   UNL     1       0.722   5.591  20.688  0.00  0.00    +0.000 F 
ENDBRANCH  19  24
ENDBRANCH   2  15
TORSDOF 4
ENDMDL
MODEL 5
REMARK VINA RESULT:      -7.3      3.410      8.217
REMARK  Name = 
REMARK  8 active torsions:
REMARK  status: ('A' for Active; 'I' for Inactive)
REMARK    1  A    between atoms: C_1  and  C_2
REMARK    2  A    between atoms: C_6  and  N_7
REMARK    3  A    between atoms: C_8  and  C_10
REMARK    4  A    between atoms: N_13  and  C_14
REMARK    5  A    between atoms: C_14  and  C_15
REMARK    6  A    between atoms: C_14  and  C_16
REMARK    7  A    between atoms: C_14  and  C_17
REMARK    8  A    between atoms: C_18  and  C_19
REMARK                            x       y       z     vdW  Elec       q    Type
REMARK                         _______ _______ _______ _____ _____    ______ ____
ROOT
ATOM      1  N   UNL     1       2.017   8.043  19.173  0.00  0.00    +0.000 N 
ATOM      2  C   UNL     1       1.564   9.261  18.679  0.00  0.00    +0.000 C 
ATOM      3  O   UNL     1       1.756   9.669  17.542  0.00  0.00    +0.000 OA
ATOM      4  H   UNL     1       1.829   7.827  20.141  0.00  0.00    +0.000 HD
ENDROOT
BRANCH   1  10
ATOM      5  C   UNL     1       6.776   4.541  14.848  0.00  0.00    +0.000 C 
ATOM      6  C   UNL     1       5.747   5.115  15.740  0.00  0.00    +0.000 A 
ATOM      7  N   UNL     1       5.574   6.374  16.081  0.00  0.00    +0.000 NA
ATOM      8  C   UNL     1       4.491   6.339  16.923  0.00  0.00    +0.000 A 
ATOM      9  C   UNL     1       3.832   7.366  17.611  0.00  0.00    +0.000 A 
ATOM     10  C   UNL     1       2.732   7.057  18.432  0.00  0.00    +0.000 A 
ATOM     11  C   UNL     1       2.306   5.715  18.527  0.00  0.00    +0.000 A 
ATOM     12  C   UNL     1       2.959   4.668  17.840  0.00  0.00    +0.000 A 
ATOM     13  C   UNL     1       4.045   5.040  17.058  0.00  0.00    +0.000 A 
ATOM     14  O   UNL     1       4.849   4.237  16.298  0.00  0.00    +0.000 OA
ENDBRANCH   1  10
BRANCH   2  15
ATOM     15  C   UNL     1       0.847  10.111  19.628  0.00  0.00    +0.000 A 
ATOM     16  C   UNL     1       1.226  10.505  20.919  0.00  0.00    +0.000 A 
ATOM     17  N   UNL     1       0.386  11.383  21.456  0.00  0.00    +0.000 NA
ATOM     18  N   UNL     1      -0.575  11.589  20.518  0.00  0.00    +0.000 N 
ATOM     19  C   UNL     1      -0.344  10.810  19.394  0.00  0.00    +0.000 A 
BRANCH  18  20
ATOM     20  C   UNL     1      -1.599  12.624  20.830  0.00  0.00    +0.000 C 
ATOM     21  C   UNL     1      -1.261  13.943  20.105  0.00  0.00    +0.000 C 
ATOM     22  C   UNL     1      -3.045  12.228  20.477  0.00  0.00    +0.000 C 
ATOM     23  C   UNL     1      -1.619  12.922  22.356  0.00  0.00    +0.000 C 
ENDBRANCH  18  20
BRANCH  19  24
ATOM     24  C   UNL     1      -1.236  10.788  18.209  0.00  0.00    +0.000 C 
ATOM     25  F   UNL     1      -0.897   9.894  17.253  0.00  0.00    +0.000 F 
ATOM     26  F   UNL     1      -2.504  10.447  18.559  0.00  0.00    +0.000 F 
ATOM     27  F   UNL     1      -1.299  12.003  17.610  0.00  0.00    +0.000 F 
ENDBRANCH  19  24
ENDBRANCH   2  15
TORSDOF 4
ENDMDL
MODEL 6
REMARK VINA RESULT:      -7.3      1.971      2.291
REMARK  Name = 
REMARK  8 active torsions:
REMARK  status: ('A' for Active; 'I' for Inactive)
REMARK    1  A    between atoms: C_1  and  C_2
REMARK    2  A    between atoms: C_6  and  N_7
REMARK    3  A    between atoms: C_8  and  C_10
REMARK    4  A    between atoms: N_13  and  C_14
REMARK    5  A    between atoms: C_14  and  C_15
REMARK    6  A    between atoms: C_14  and  C_16
REMARK    7  A    between atoms: C_14  and  C_17
REMARK    8  A    between atoms: C_18  and  C_19
REMARK                            x       y       z     vdW  Elec       q    Type
REMARK                         _______ _______ _______ _____ _____    ______ ____
ROOT
ATOM      1  N   UNL     1       1.182   9.268  19.006  0.00  0.00    +0.000 N 
ATOM      2  C   UNL     1       1.778   8.228  19.708  0.00  0.00    +0.000 C 
ATOM      3  O   UNL     1       1.797   8.128  20.928  0.00  0.00    +0.000 OA
ATOM      4  H   UNL     1       1.261   9.264  17.999  0.00  0.00    +0.000 HD
ENDROOT
BRANCH   1  10
ATOM      5  C   UNL     1      -0.783  15.224  22.784  0.00  0.00    +0.000 C 
ATOM      6  C   UNL     1      -0.530  14.013  21.976  0.00  0.00    +0.000 A 
ATOM      7  N   UNL     1       0.586  13.326  21.865  0.00  0.00    +0.000 NA
ATOM      8  C   UNL     1       0.264  12.317  20.993  0.00  0.00    +0.000 A 
ATOM      9  C   UNL     1       1.037  11.266  20.481  0.00  0.00    +0.000 A 
ATOM     10  C   UNL     1       0.458  10.355  19.579  0.00  0.00    +0.000 A 
ATOM     11  C   UNL     1      -0.899  10.512  19.225  0.00  0.00    +0.000 A 
ATOM     12  C   UNL     1      -1.692  11.564  19.731  0.00  0.00    +0.000 A 
ATOM     13  C   UNL     1      -1.055  12.436  20.607  0.00  0.00    +0.000 A 
ATOM     14  O   UNL     1      -1.582  13.530  21.236  0.00  0.00    +0.000 OA
ENDBRANCH   1  10
BRANCH   2  15
ATOM     15  C   UNL     1       2.464   7.219  18.902  0.00  0.00    +0.000 A 
ATOM     16  C   UNL     1       3.316   7.399  17.803  0.00  0.00    +0.000 A 
ATOM     17  N   UNL     1       3.861   6.263  17.384  0.00  0.00    +0.000 NA
ATOM     18  N   UNL     1       3.374   5.299  18.208  0.00  0.00    +0.000 N 
ATOM     19  C   UNL     1       2.495   5.838  19.135  0.00  0.00    +0.000 A 
BRANCH  18  20
ATOM     20  C   UNL     1       3.915   3.924  18.018  0.00  0.00    +0.000 C 
ATOM     21  C   UNL     1       5.030   3.934  16.952  0.00  0.00    +0.000 C 
ATOM     22  C   UNL     1       4.465   3.263  19.295  0.00  0.00    +0.000 C 
ATOM     23  C   UNL     1       2.796   2.969  17.514  0.00  0.00    +0.000 C 
ENDBRANCH  18  20
BRANCH  19  24
ATOM     24  C   UNL     1       1.774   5.034  20.152  0.00  0.00    +0.000 C 
ATOM     25  F   UNL     1       0.717   5.653  20.726  0.00  0.00    +0.000 F 
ATOM     26  F   UNL     1       1.250   3.908  19.601  0.00  0.00    +0.000 F 
ATOM     27  F   UNL     1       2.597   4.645  21.156  0.00  0.00    +0.000 F 
ENDBRANCH  19  24
ENDBRANCH   2  15
TORSDOF 4
ENDMDL
MODEL 7
REMARK VINA RESULT:      -7.2      3.318      7.865
REMARK  Name = 
REMARK  8 active torsions:
REMARK  status: ('A' for Active; 'I' for Inactive)
REMARK    1  A    between atoms: C_1  and  C_2
REMARK    2  A    between atoms: C_6  and  N_7
REMARK    3  A    between atoms: C_8  and  C_10
REMARK    4  A    between atoms: N_13  and  C_14
REMARK    5  A    between atoms: C_14  and  C_15
REMARK    6  A    between atoms: C_14  and  C_16
REMARK    7  A    between atoms: C_14  and  C_17
REMARK    8  A    between atoms: C_18  and  C_19
REMARK                            x       y       z     vdW  Elec       q    Type
REMARK                         _______ _______ _______ _____ _____    ______ ____
ROOT
ATOM      1  N   UNL     1       2.279   7.944  19.197  0.00  0.00    +0.000 N 
ATOM      2  C   UNL     1       1.572   7.669  20.362  0.00  0.00    +0.000 C 
ATOM      3  O   UNL     1       1.395   6.550  20.825  0.00  0.00    +0.000 OA
ATOM      4  H   UNL     1       2.329   8.905  18.891  0.00  0.00    +0.000 HD
ENDROOT
BRANCH   1  10
ATOM      5  C   UNL     1       6.821   4.592  14.534  0.00  0.00    +0.000 C 
ATOM      6  C   UNL     1       5.834   5.136  15.490  0.00  0.00    +0.000 A 
ATOM      7  N   UNL     1       5.694   6.379  15.898  0.00  0.00    +0.000 NA
ATOM      8  C   UNL     1       4.642   6.318  16.777  0.00  0.00    +0.000 A 
ATOM      9  C   UNL     1       4.025   7.319  17.539  0.00  0.00    +0.000 A 
ATOM     10  C   UNL     1       2.950   6.985  18.383  0.00  0.00    +0.000 A 
ATOM     11  C   UNL     1       2.506   5.647  18.427  0.00  0.00    +0.000 A 
ATOM     12  C   UNL     1       3.116   4.626  17.666  0.00  0.00    +0.000 A 
ATOM     13  C   UNL     1       4.180   5.021  16.864  0.00  0.00    +0.000 A 
ATOM     14  O   UNL     1       4.943   4.245  16.036  0.00  0.00    +0.000 OA
ENDBRANCH   1  10
BRANCH   2  15
ATOM     15  C   UNL     1       0.970   8.820  21.034  0.00  0.00    +0.000 A 
ATOM     16  C   UNL     1       1.037   9.185  22.386  0.00  0.00    +0.000 A 
ATOM     17  N   UNL     1       0.470  10.361  22.630  0.00  0.00    +0.000 NA
ATOM     18  N   UNL     1       0.013  10.801  21.428  0.00  0.00    +0.000 N 
ATOM     19  C   UNL     1       0.275   9.874  20.430  0.00  0.00    +0.000 A 
BRANCH  18  20
ATOM     20  C   UNL     1      -0.584  12.165  21.402  0.00  0.00    +0.000 C 
ATOM     21  C   UNL     1       0.440  13.183  20.859  0.00  0.00    +0.000 C 
ATOM     22  C   UNL     1      -1.880  12.287  20.579  0.00  0.00    +0.000 C 
ATOM     23  C   UNL     1      -0.971  12.614  22.840  0.00  0.00    +0.000 C 
ENDBRANCH  18  20
BRANCH  19  24
ATOM     24  C   UNL     1      -0.131  10.052  19.014  0.00  0.00    +0.000 C 
ATOM     25  F   UNL     1       0.310   9.094  18.168  0.00  0.00    +0.000 F 
ATOM     26  F   UNL     1      -1.483  10.020  18.887  0.00  0.00    +0.000 F 
ATOM     27  F   UNL     1       0.291  11.241  18.520  0.00  0.00    +0.000 F 
ENDBRANCH  19  24
ENDBRANCH   2  15
TORSDOF 4
ENDMDL
MODEL 8
REMARK VINA RESULT:      -7.2      3.705      7.923
REMARK  Name = 
REMARK  8 active torsions:
REMARK  status: ('A' for Active; 'I' for Inactive)
REMARK    1  A    between atoms: C_1  and  C_2
REMARK    2  A    between atoms: C_6  and  N_7
REMARK    3  A    between atoms: C_8  and  C_10
REMARK    4  A    between atoms: N_13  and  C_14
REMARK    5  A    between atoms: C_14  and  C_15
REMARK    6  A    between atoms: C_14  and  C_16
REMARK    7  A    between atoms: C_14  and  C_17
REMARK    8  A    between atoms: C_18  and  C_19
REMARK                            x       y       z     vdW  Elec       q    Type
REMARK                         _______ _______ _______ _____ _____    ______ ____
ROOT
ATOM      1  N   UNL     1       3.846   7.185  18.630  0.00  0.00    +0.000 N 
ATOM      2  C   UNL     1       2.557   6.777  18.953  0.00  0.00    +0.000 C 
ATOM      3  O   UNL     1       2.023   5.756  18.541  0.00  0.00    +0.000 OA
ATOM      4  H   UNL     1       4.169   8.067  19.001  0.00  0.00    +0.000 HD
ENDROOT
BRANCH   1  10
ATOM      5  C   UNL     1       7.556   4.353  12.988  0.00  0.00    +0.000 C 
ATOM      6  C   UNL     1       6.897   4.844  14.217  0.00  0.00    +0.000 A 
ATOM      7  N   UNL     1       5.852   5.637  14.320  0.00  0.00    +0.000 NA
ATOM      8  C   UNL     1       5.674   5.768  15.674  0.00  0.00    +0.000 A 
ATOM      9  C   UNL     1       4.725   6.492  16.408  0.00  0.00    +0.000 A 
ATOM     10  C   UNL     1       4.768   6.466  17.814  0.00  0.00    +0.000 A 
ATOM     11  C   UNL     1       5.760   5.692  18.453  0.00  0.00    +0.000 A 
ATOM     12  C   UNL     1       6.724   4.957  17.730  0.00  0.00    +0.000 A 
ATOM     13  C   UNL     1       6.633   5.037  16.345  0.00  0.00    +0.000 A 
ATOM     14  O   UNL     1       7.432   4.433  15.414  0.00  0.00    +0.000 OA
ENDBRANCH   1  10
BRANCH   2  15
ATOM     15  C   UNL     1       1.794   7.681  19.813  0.00  0.00    +0.000 A 
ATOM     16  C   UNL     1       1.537   7.580  21.188  0.00  0.00    +0.000 A 
ATOM     17  N   UNL     1       0.909   8.646  21.673  0.00  0.00    +0.000 NA
ATOM     18  N   UNL     1       0.738   9.481  20.614  0.00  0.00    +0.000 N 
ATOM     19  C   UNL     1       1.242   8.916  19.452  0.00  0.00    +0.000 A 
BRANCH  18  20
ATOM     20  C   UNL     1       0.141  10.813  20.906  0.00  0.00    +0.000 C 
ATOM     21  C   UNL     1       1.213  11.915  20.782  0.00  0.00    +0.000 C 
ATOM     22  C   UNL     1      -1.057  11.193  20.017  0.00  0.00    +0.000 C 
ATOM     23  C   UNL     1      -0.404  10.854  22.362  0.00  0.00    +0.000 C 
ENDBRANCH  18  20
BRANCH  19  24
ATOM     24  C   UNL     1       1.176   9.569  18.122  0.00  0.00    +0.000 C 
ATOM     25  F   UNL     1       1.788   8.895  17.122  0.00  0.00    +0.000 F 
ATOM     26  F   UNL     1      -0.111   9.700  17.706  0.00  0.00    +0.000 F 
ATOM     27  F   UNL     1       1.716  10.812  18.149  0.00  0.00    +0.000 F 
ENDBRANCH  19  24
ENDBRANCH   2  15
TORSDOF 4
ENDMDL
MODEL 9
REMARK VINA RESULT:      -7.2      2.137      2.674
REMARK  Name = 
REMARK  8 active torsions:
REMARK  status: ('A' for Active; 'I' for Inactive)
REMARK    1  A    between atoms: C_1  and  C_2
REMARK    2  A    between atoms: C_6  and  N_7
REMARK    3  A    between atoms: C_8  and  C_10
REMARK    4  A    between atoms: N_13  and  C_14
REMARK    5  A    between atoms: C_14  and  C_15
REMARK    6  A    between atoms: C_14  and  C_16
REMARK    7  A    between atoms: C_14  and  C_17
REMARK    8  A    between atoms: C_18  and  C_19
REMARK                            x       y       z     vdW  Elec       q    Type
REMARK                         _______ _______ _______ _____ _____    ______ ____
ROOT
ATOM      1  N   UNL     1       1.197   9.326  18.950  0.00  0.00    +0.000 N 
ATOM      2  C   UNL     1       1.762   8.274  19.662  0.00  0.00    +0.000 C 
ATOM      3  O   UNL     1       1.739   8.163  20.880  0.00  0.00    +0.000 OA
ATOM      4  H   UNL     1       1.310   9.332  17.947  0.00  0.00    +0.000 HD
ENDROOT
BRANCH   1  10
ATOM      5  C   UNL     1      -4.068  14.046  20.852  0.00  0.00    +0.000 C 
ATOM      6  C   UNL     1      -2.909  13.181  20.545  0.00  0.00    +0.000 A 
ATOM      7  N   UNL     1      -2.871  12.112  19.780  0.00  0.00    +0.000 NA
ATOM      8  C   UNL     1      -1.564  11.702  19.854  0.00  0.00    +0.000 A 
ATOM      9  C   UNL     1      -0.907  10.618  19.258  0.00  0.00    +0.000 A 
ATOM     10  C   UNL     1       0.462  10.413  19.509  0.00  0.00    +0.000 A 
ATOM     11  C   UNL     1       1.147  11.320  20.344  0.00  0.00    +0.000 A 
ATOM     12  C   UNL     1       0.501  12.418  20.953  0.00  0.00    +0.000 A 
ATOM     13  C   UNL     1      -0.853  12.555  20.675  0.00  0.00    +0.000 A 
ATOM     14  O   UNL     1      -1.712  13.517  21.129  0.00  0.00    +0.000 OA
ENDBRANCH   1  10
BRANCH   2  15
ATOM     15  C   UNL     1       2.467   7.268  18.869  0.00  0.00    +0.000 A 
ATOM     16  C   UNL     1       3.333   7.452  17.781  0.00  0.00    +0.000 A 
ATOM     17  N   UNL     1       3.894   6.319  17.374  0.00  0.00    +0.000 NA
ATOM     18  N   UNL     1       3.404   5.354  18.196  0.00  0.00    +0.000 N 
ATOM     19  C   UNL     1       2.507   5.890  19.109  0.00  0.00    +0.000 A 
BRANCH  18  20
ATOM     20  C   UNL     1       3.959   3.984  18.019  0.00  0.00    +0.000 C 
ATOM     21  C   UNL     1       4.640   3.513  19.321  0.00  0.00    +0.000 C 
ATOM     22  C   UNL     1       2.930   2.920  17.592  0.00  0.00    +0.000 C 
ATOM     23  C   UNL     1       5.039   3.978  16.899  0.00  0.00    +0.000 C 
ENDBRANCH  18  20
BRANCH  19  24
ATOM     24  C   UNL     1       1.780   5.083  20.119  0.00  0.00    +0.000 C 
ATOM     25  F   UNL     1       0.735   5.709  20.706  0.00  0.00    +0.000 F 
ATOM     26  F   UNL     1       1.238   3.971  19.557  0.00  0.00    +0.000 F 
ATOM     27  F   UNL     1       2.602   4.670  21.114  0.00  0.00    +0.000 F 
ENDBRANCH  19  24
ENDBRANCH   2  15
TORSDOF 4
ENDMDL
