MODEL 1
REMARK VINA RESULT:      -8.8      0.000      0.000
REMARK  Name = 
REMARK  5 active torsions:
REMARK  status: ('A' for Active; 'I' for Inactive)
REMARK    1  A    between atoms: N_1  and  C_2
REMARK    2  A    between atoms: C_7  and  C_8
REMARK    3  A    between atoms: N_10  and  C_11
REMARK    4  A    between atoms: C_16  and  C_17
REMARK    5  A    between atoms: C_19  and  C_20
REMARK                            x       y       z     vdW  Elec       q    Type
REMARK                         _______ _______ _______ _____ _____    ______ ____
ROOT
ATOM      1  C   UNL     1       3.504   3.888  19.417  0.00  0.00    +0.000 A 
ATOM      2  C   UNL     1       3.492   2.668  20.099  0.00  0.00    +0.000 A 
ATOM      3  C   UNL     1       2.676   2.473  21.217  0.00  0.00    +0.000 A 
ATOM      4  C   UNL     1       1.871   3.504  21.683  0.00  0.00    +0.000 A 
ATOM      5  C   UNL     1       1.873   4.733  21.025  0.00  0.00    +0.000 A 
ATOM      6  C   UNL     1       2.678   4.945  19.887  0.00  0.00    +0.000 A 
ENDROOT
BRANCH   6   7
ATOM      7  C   UNL     1       2.563   6.208  19.152  0.00  0.00    +0.000 A 
ATOM      8  N   UNL     1       1.788   7.224  19.474  0.00  0.00    +0.000 NA
ATOM      9  C   UNL     1       2.152   8.230  18.608  0.00  0.00    +0.000 A 
ATOM     10  N   UNL     1       3.049   7.843  17.688  0.00  0.00    +0.000 NA
ATOM     11  N   UNL     1       3.281   6.568  18.046  0.00  0.00    +0.000 N 
ATOM     12  H   UNL     1       3.951   6.024  17.517  0.00  0.00    +0.000 HD
BRANCH   9  13
ATOM     13  C   UNL     1       1.634   9.583  18.759  0.00  0.00    +0.000 A 
ATOM     14  C   UNL     1       0.504   9.812  19.562  0.00  0.00    +0.000 A 
ATOM     15  C   UNL     1       0.014  11.107  19.751  0.00  0.00    +0.000 A 
ATOM     16  C   UNL     1       0.647  12.183  19.141  0.00  0.00    +0.000 A 
ATOM     17  C   UNL     1       1.769  11.972  18.339  0.00  0.00    +0.000 A 
ATOM     18  C   UNL     1       2.262  10.678  18.150  0.00  0.00    +0.000 A 
ENDBRANCH   9  13
ENDBRANCH   6   7
BRANCH   1  21
ATOM     19  C   UNL     1       5.679   4.340  18.195  0.00  0.00    +0.000 C 
ATOM     20  O   UNL     1       6.452   4.433  19.143  0.00  0.00    +0.000 OA
ATOM     21  N   UNL     1       4.317   4.096  18.269  0.00  0.00    +0.000 N 
ATOM     22  H   UNL     1       3.850   3.983  17.365  0.00  0.00    +0.000 HD
BRANCH  19  28
ATOM     23  C   UNL     1       7.080   5.528  16.425  0.00  0.00    +0.000 A 
ATOM     24  N   UNL     1       7.475   5.672  15.137  0.00  0.00    +0.000 NA
ATOM     25  C   UNL     1       6.956   4.805  14.241  0.00  0.00    +0.000 A 
ATOM     26  C   UNL     1       6.065   3.809  14.600  0.00  0.00    +0.000 A 
ATOM     27  N   UNL     1       5.655   3.630  15.874  0.00  0.00    +0.000 NA
ATOM     28  C   UNL     1       6.179   4.509  16.786  0.00  0.00    +0.000 A 
BRANCH  23  29
ATOM     29  N   UNL     1       7.707   6.396  17.311  0.00  0.00    +0.000 N 
ATOM     30  H   UNL     1       7.955   7.249  16.824  0.00  0.00    +0.000 HD
ATOM     31  H   UNL     1       7.168   6.536  18.163  0.00  0.00    +0.000 HD
ENDBRANCH  23  29
ENDBRANCH  19  28
ENDBRANCH   1  21
TORSDOF 5
ENDMDL
MODEL 2
REMARK VINA RESULT:      -8.6      1.941      2.467
REMARK  Name = 
REMARK  5 active torsions:
REMARK  status: ('A' for Active; 'I' for Inactive)
REMARK    1  A    between atoms: N_1  and  C_2
REMARK    2  A    between atoms: C_7  and  C_8
REMARK    3  A    between atoms: N_10  and  C_11
REMARK    4  A    between atoms: C_16  and  C_17
REMARK    5  A    between atoms: C_19  and  C_20
REMARK                            x       y       z     vdW  Elec       q    Type
REMARK                         _______ _______ _______ _____ _____    ______ ____
ROOT
ATOM      1  C   UNL     1       3.197   3.981  18.427  0.00  0.00    +0.000 A 
ATOM      2  C   UNL     1       3.189   2.706  17.853  0.00  0.00    +0.000 A 
ATOM      3  C   UNL     1       2.095   1.852  18.007  0.00  0.00    +0.000 A 
ATOM      4  C   UNL     1       0.995   2.252  18.754  0.00  0.00    +0.000 A 
ATOM      5  C   UNL     1       0.984   3.515  19.344  0.00  0.00    +0.000 A 
ATOM      6  C   UNL     1       2.072   4.398  19.189  0.00  0.00    +0.000 A 
ENDROOT
BRANCH   6   7
ATOM      7  C   UNL     1       1.972   5.760  19.722  0.00  0.00    +0.000 A 
ATOM      8  N   UNL     1       2.067   6.874  19.024  0.00  0.00    +0.000 NA
ATOM      9  C   UNL     1       1.734   7.872  19.911  0.00  0.00    +0.000 A 
ATOM     10  N   UNL     1       1.541   7.429  21.164  0.00  0.00    +0.000 NA
ATOM     11  N   UNL     1       1.708   6.104  21.018  0.00  0.00    +0.000 N 
ATOM     12  H   UNL     1       1.599   5.503  21.826  0.00  0.00    +0.000 HD
BRANCH   9  13
ATOM     13  C   UNL     1       1.556   9.249  19.470  0.00  0.00    +0.000 A 
ATOM     14  C   UNL     1       0.862  10.158  20.286  0.00  0.00    +0.000 A 
ATOM     15  C   UNL     1       0.714  11.493  19.899  0.00  0.00    +0.000 A 
ATOM     16  C   UNL     1       1.257  11.930  18.697  0.00  0.00    +0.000 A 
ATOM     17  C   UNL     1       1.946  11.039  17.876  0.00  0.00    +0.000 A 
ATOM     18  C   UNL     1       2.098   9.704  18.261  0.00  0.00    +0.000 A 
ENDBRANCH   9  13
ENDBRANCH   6   7
BRANCH   1  21
ATOM     19  C   UNL     1       5.584   4.765  18.769  0.00  0.00    +0.000 C 
ATOM     20  O   UNL     1       6.016   3.860  19.477  0.00  0.00    +0.000 OA
ATOM     21  N   UNL     1       4.297   4.868  18.267  0.00  0.00    +0.000 N 
ATOM     22  H   UNL     1       4.143   5.660  17.637  0.00  0.00    +0.000 HD
BRANCH  19  28
ATOM     23  C   UNL     1       7.674   6.199  19.051  0.00  0.00    +0.000 A 
ATOM     24  N   UNL     1       8.426   7.269  18.695  0.00  0.00    +0.000 NA
ATOM     25  C   UNL     1       7.956   8.032  17.685  0.00  0.00    +0.000 A 
ATOM     26  C   UNL     1       6.769   7.753  17.031  0.00  0.00    +0.000 A 
ATOM     27  N   UNL     1       5.999   6.692  17.352  0.00  0.00    +0.000 NA
ATOM     28  C   UNL     1       6.472   5.915  18.378  0.00  0.00    +0.000 A 
BRANCH  23  29
ATOM     29  N   UNL     1       8.247   5.408  20.040  0.00  0.00    +0.000 N 
ATOM     30  H   UNL     1       9.243   5.589  20.078  0.00  0.00    +0.000 HD
ATOM     31  H   UNL     1       7.766   5.496  20.933  0.00  0.00    +0.000 HD
ENDBRANCH  23  29
ENDBRANCH  19  28
ENDBRANCH   1  21
TORSDOF 5
ENDMDL
MODEL 3
REMARK VINA RESULT:      -8.1      5.962      9.812
REMARK  Name = 
REMARK  5 active torsions:
REMARK  status: ('A' for Active; 'I' for Inactive)
REMARK    1  A    between atoms: N_1  and  C_2
REMARK    2  A    between atoms: C_7  and  C_8
REMARK    3  A    between atoms: N_10  and  C_11
REMARK    4  A    between atoms: C_16  and  C_17
REMARK    5  A    between atoms: C_19  and  C_20
REMARK                            x       y       z     vdW  Elec       q    Type
REMARK                         _______ _______ _______ _____ _____    ______ ____
ROOT
ATOM      1  C   UNL     1      -2.341  13.464  21.104  0.00  0.00    +0.000 A 
ATOM      2  C   UNL     1      -2.832  14.760  21.285  0.00  0.00    +0.000 A 
ATOM      3  C   UNL     1      -2.634  15.446  22.486  0.00  0.00    +0.000 A 
ATOM      4  C   UNL     1      -1.956  14.839  23.535  0.00  0.00    +0.000 A 
ATOM      5  C   UNL     1      -1.465  13.544  23.381  0.00  0.00    +0.000 A 
ATOM      6  C   UNL     1      -1.642  12.839  22.172  0.00  0.00    +0.000 A 
ENDROOT
BRANCH   6   7
ATOM      7  C   UNL     1      -1.008  11.528  22.007  0.00  0.00    +0.000 A 
ATOM      8  N   UNL     1      -0.520  11.039  20.884  0.00  0.00    +0.000 NA
ATOM      9  C   UNL     1       0.121   9.880  21.257  0.00  0.00    +0.000 A 
ATOM     10  N   UNL     1      -0.045   9.572  22.554  0.00  0.00    +0.000 NA
ATOM     11  N   UNL     1      -0.765  10.616  22.996  0.00  0.00    +0.000 N 
ATOM     12  H   UNL     1      -1.026  10.655  23.974  0.00  0.00    +0.000 HD
BRANCH   9  13
ATOM     13  C   UNL     1       0.939   9.130  20.314  0.00  0.00    +0.000 A 
ATOM     14  C   UNL     1       1.523   7.915  20.709  0.00  0.00    +0.000 A 
ATOM     15  C   UNL     1       2.280   7.161  19.808  0.00  0.00    +0.000 A 
ATOM     16  C   UNL     1       2.460   7.613  18.507  0.00  0.00    +0.000 A 
ATOM     17  C   UNL     1       1.889   8.819  18.100  0.00  0.00    +0.000 A 
ATOM     18  C   UNL     1       1.130   9.574  18.999  0.00  0.00    +0.000 A 
ENDBRANCH   9  13
ENDBRANCH   6   7
BRANCH   1  21
ATOM     19  C   UNL     1      -3.669  12.176  19.370  0.00  0.00    +0.000 C 
ATOM     20  O   UNL     1      -4.773  12.157  19.905  0.00  0.00    +0.000 OA
ATOM     21  N   UNL     1      -2.521  12.759  19.882  0.00  0.00    +0.000 N 
ATOM     22  H   UNL     1      -1.710  12.734  19.258  0.00  0.00    +0.000 HD
BRANCH  19  28
ATOM     23  C   UNL     1      -4.383  11.636  16.982  0.00  0.00    +0.000 A 
ATOM     24  N   UNL     1      -4.177  10.991  15.808  0.00  0.00    +0.000 NA
ATOM     25  C   UNL     1      -3.062  10.234  15.718  0.00  0.00    +0.000 A 
ATOM     26  C   UNL     1      -2.159  10.112  16.760  0.00  0.00    +0.000 A 
ATOM     27  N   UNL     1      -2.327  10.746  17.940  0.00  0.00    +0.000 NA
ATOM     28  C   UNL     1      -3.458  11.514  18.035  0.00  0.00    +0.000 A 
BRANCH  23  29
ATOM     29  N   UNL     1      -5.502  12.459  16.987  0.00  0.00    +0.000 N 
ATOM     30  H   UNL     1      -5.956  12.412  16.082  0.00  0.00    +0.000 HD
ATOM     31  H   UNL     1      -6.116  12.274  17.778  0.00  0.00    +0.000 HD
ENDBRANCH  23  29
ENDBRANCH  19  28
ENDBRANCH   1  21
TORSDOF 5
ENDMDL
MODEL 4
REMARK VINA RESULT:      -8.1      3.187      6.569
REMARK  Name = 
REMARK  5 active torsions:
REMARK  status: ('A' for Active; 'I' for Inactive)
REMARK    1  A    between atoms: N_1  and  C_2
REMARK    2  A    between atoms: C_7  and  C_8
REMARK    3  A    between atoms: N_10  and  C_11
REMARK    4  A    between atoms: C_16  and  C_17
REMARK    5  A    between atoms: C_19  and  C_20
REMARK                            x       y       z     vdW  Elec       q    Type
REMARK                         _______ _______ _______ _____ _____    ______ ____
ROOT
ATOM      1  C   UNL     1       5.289   5.494  15.817  0.00  0.00    +0.000 A 
ATOM      2  C   UNL     1       4.749   4.630  14.859  0.00  0.00    +0.000 A 
ATOM      3  C   UNL     1       5.573   3.908  13.992  0.00  0.00    +0.000 A 
ATOM      4  C   UNL     1       6.953   4.052  14.057  0.00  0.00    +0.000 A 
ATOM      5  C   UNL     1       7.514   4.914  14.997  0.00  0.00    +0.000 A 
ATOM      6  C   UNL     1       6.700   5.641  15.891  0.00  0.00    +0.000 A 
ENDROOT
BRANCH   6   7
ATOM      7  C   UNL     1       7.330   6.444  16.944  0.00  0.00    +0.000 A 
ATOM      8  N   UNL     1       7.782   7.676  16.813  0.00  0.00    +0.000 NA
ATOM      9  C   UNL     1       8.111   8.064  18.092  0.00  0.00    +0.000 A 
ATOM     10  N   UNL     1       7.984   7.082  18.998  0.00  0.00    +0.000 NA
ATOM     11  N   UNL     1       7.504   6.075  18.248  0.00  0.00    +0.000 N 
ATOM     12  H   UNL     1       7.292   5.190  18.692  0.00  0.00    +0.000 HD
BRANCH   9  13
ATOM     13  C   UNL     1       8.493   9.438  18.390  0.00  0.00    +0.000 A 
ATOM     14  C   UNL     1       9.263   9.715  19.532  0.00  0.00    +0.000 A 
ATOM     15  C   UNL     1       9.672  11.021  19.816  0.00  0.00    +0.000 A 
ATOM     16  C   UNL     1       9.317  12.060  18.964  0.00  0.00    +0.000 A 
ATOM     17  C   UNL     1       8.550  11.801  17.828  0.00  0.00    +0.000 A 
ATOM     18  C   UNL     1       8.141  10.495  17.541  0.00  0.00    +0.000 A 
ENDBRANCH   9  13
ENDBRANCH   6   7
BRANCH   1  21
ATOM     19  C   UNL     1       3.629   5.752  17.717  0.00  0.00    +0.000 C 
ATOM     20  O   UNL     1       3.438   4.575  18.007  0.00  0.00    +0.000 OA
ATOM     21  N   UNL     1       4.464   6.224  16.717  0.00  0.00    +0.000 N 
ATOM     22  H   UNL     1       4.546   7.243  16.671  0.00  0.00    +0.000 HD
BRANCH  19  28
ATOM     23  C   UNL     1       2.461   6.681  19.785  0.00  0.00    +0.000 A 
ATOM     24  N   UNL     1       1.784   7.675  20.409  0.00  0.00    +0.000 NA
ATOM     25  C   UNL     1       1.566   8.802  19.696  0.00  0.00    +0.000 A 
ATOM     26  C   UNL     1       2.006   8.955  18.394  0.00  0.00    +0.000 A 
ATOM     27  N   UNL     1       2.691   7.990  17.743  0.00  0.00    +0.000 NA
ATOM     28  C   UNL     1       2.913   6.845  18.462  0.00  0.00    +0.000 A 
BRANCH  23  29
ATOM     29  N   UNL     1       2.723   5.581  20.592  0.00  0.00    +0.000 N 
ATOM     30  H   UNL     1       3.694   5.603  20.884  0.00  0.00    +0.000 HD
ATOM     31  H   UNL     1       2.055   5.491  21.355  0.00  0.00    +0.000 HD
ENDBRANCH  23  29
ENDBRANCH  19  28
ENDBRANCH   1  21
TORSDOF 5
ENDMDL
MODEL 5
REMARK VINA RESULT:      -8.1      1.980      2.718
REMARK  Name = 
REMARK  5 active torsions:
REMARK  status: ('A' for Active; 'I' for Inactive)
REMARK    1  A    between atoms: N_1  and  C_2
REMARK    2  A    between atoms: C_7  and  C_8
REMARK    3  A    between atoms: N_10  and  C_11
REMARK    4  A    between atoms: C_16  and  C_17
REMARK    5  A    between atoms: C_19  and  C_20
REMARK                            x       y       z     vdW  Elec       q    Type
REMARK                         _______ _______ _______ _____ _____    ______ ____
ROOT
ATOM      1  C   UNL     1       3.380   4.101  19.873  0.00  0.00    +0.000 A 
ATOM      2  C   UNL     1       3.525   2.713  19.956  0.00  0.00    +0.000 A 
ATOM      3  C   UNL     1       2.482   1.904  20.413  0.00  0.00    +0.000 A 
ATOM      4  C   UNL     1       1.279   2.472  20.813  0.00  0.00    +0.000 A 
ATOM      5  C   UNL     1       1.115   3.855  20.749  0.00  0.00    +0.000 A 
ATOM      6  C   UNL     1       2.150   4.688  20.277  0.00  0.00    +0.000 A 
ENDROOT
BRANCH   6   7
ATOM      7  C   UNL     1       1.898   6.122  20.110  0.00  0.00    +0.000 A 
ATOM      8  N   UNL     1       1.076   6.854  20.836  0.00  0.00    +0.000 NA
ATOM      9  C   UNL     1       1.310   8.148  20.431  0.00  0.00    +0.000 A 
ATOM     10  N   UNL     1       2.168   8.239  19.402  0.00  0.00    +0.000 NA
ATOM     11  N   UNL     1       2.512   6.953  19.215  0.00  0.00    +0.000 N 
ATOM     12  H   UNL     1       3.182   6.724  18.491  0.00  0.00    +0.000 HD
BRANCH   9  13
ATOM     13  C   UNL     1       0.709   9.279  21.126  0.00  0.00    +0.000 A 
ATOM     14  C   UNL     1       0.702  10.546  20.519  0.00  0.00    +0.000 A 
ATOM     15  C   UNL     1       0.097  11.636  21.151  0.00  0.00    +0.000 A 
ATOM     16  C   UNL     1      -0.505  11.470  22.393  0.00  0.00    +0.000 A 
ATOM     17  C   UNL     1      -0.502  10.219  23.009  0.00  0.00    +0.000 A 
ATOM     18  C   UNL     1       0.100   9.127  22.378  0.00  0.00    +0.000 A 
ENDBRANCH   9  13
ENDBRANCH   6   7
BRANCH   1  21
ATOM     19  C   UNL     1       5.154   4.841  18.219  0.00  0.00    +0.000 C 
ATOM     20  O   UNL     1       5.024   3.981  17.354  0.00  0.00    +0.000 OA
ATOM     21  N   UNL     1       4.427   4.936  19.395  0.00  0.00    +0.000 N 
ATOM     22  H   UNL     1       4.631   5.765  19.961  0.00  0.00    +0.000 HD
BRANCH  19  28
ATOM     23  C   UNL     1       6.182   6.824  16.988  0.00  0.00    +0.000 A 
ATOM     24  N   UNL     1       7.156   7.759  16.865  0.00  0.00    +0.000 NA
ATOM     25  C   UNL     1       8.115   7.764  17.816  0.00  0.00    +0.000 A 
ATOM     26  C   UNL     1       8.122   6.871  18.872  0.00  0.00    +0.000 A 
ATOM     27  N   UNL     1       7.164   5.933  19.031  0.00  0.00    +0.000 NA
ATOM     28  C   UNL     1       6.189   5.923  18.068  0.00  0.00    +0.000 A 
BRANCH  23  29
ATOM     29  N   UNL     1       5.182   6.918  16.027  0.00  0.00    +0.000 N 
ATOM     30  H   UNL     1       4.678   6.040  15.982  0.00  0.00    +0.000 HD
ATOM     31  H   UNL     1       4.593   7.738  16.160  0.00  0.00    +0.000 HD
ENDBRANCH  23  29
ENDBRANCH  19  28
ENDBRANCH   1  21
TORSDOF 5
ENDMDL
MODEL 6
REMARK VINA RESULT:      -8.1      1.770      2.468
REMARK  Name = 
REMARK  5 active torsions:
REMARK  status: ('A' for Active; 'I' for Inactive)
REMARK    1  A    between atoms: N_1  and  C_2
REMARK    2  A    between atoms: C_7  and  C_8
REMARK    3  A    between atoms: N_10  and  C_11
REMARK    4  A    between atoms: C_16  and  C_17
REMARK    5  A    between atoms: C_19  and  C_20
REMARK                            x       y       z     vdW  Elec       q    Type
REMARK                         _______ _______ _______ _____ _____    ______ ____
ROOT
ATOM      1  C   UNL     1       3.057   3.713  18.827  0.00  0.00    +0.000 A 
ATOM      2  C   UNL     1       3.008   2.410  18.320  0.00  0.00    +0.000 A 
ATOM      3  C   UNL     1       1.857   1.628  18.449  0.00  0.00    +0.000 A 
ATOM      4  C   UNL     1       0.739   2.131  19.102  0.00  0.00    +0.000 A 
ATOM      5  C   UNL     1       0.768   3.423  19.624  0.00  0.00    +0.000 A 
ATOM      6  C   UNL     1       1.915   4.233  19.493  0.00  0.00    +0.000 A 
ENDROOT
BRANCH   6   7
ATOM      7  C   UNL     1       1.865   5.626  19.947  0.00  0.00    +0.000 A 
ATOM      8  N   UNL     1       1.959   6.695  19.182  0.00  0.00    +0.000 NA
ATOM      9  C   UNL     1       1.680   7.751  20.019  0.00  0.00    +0.000 A 
ATOM     10  N   UNL     1       1.523   7.387  21.302  0.00  0.00    +0.000 NA
ATOM     11  N   UNL     1       1.655   6.052  21.229  0.00  0.00    +0.000 N 
ATOM     12  H   UNL     1       1.562   5.502  22.074  0.00  0.00    +0.000 HD
BRANCH   9  13
ATOM     13  C   UNL     1       1.517   9.103  19.504  0.00  0.00    +0.000 A 
ATOM     14  C   UNL     1       0.795  10.051  20.248  0.00  0.00    +0.000 A 
ATOM     15  C   UNL     1       0.660  11.365  19.791  0.00  0.00    +0.000 A 
ATOM     16  C   UNL     1       1.243  11.742  18.587  0.00  0.00    +0.000 A 
ATOM     17  C   UNL     1       1.959  10.812  17.835  0.00  0.00    +0.000 A 
ATOM     18  C   UNL     1       2.098   9.498  18.291  0.00  0.00    +0.000 A 
ENDBRANCH   9  13
ENDBRANCH   6   7
BRANCH   1  21
ATOM     19  C   UNL     1       5.145   4.558  17.664  0.00  0.00    +0.000 C 
ATOM     20  O   UNL     1       5.139   3.857  16.657  0.00  0.00    +0.000 OA
ATOM     21  N   UNL     1       4.216   4.526  18.691  0.00  0.00    +0.000 N 
ATOM     22  H   UNL     1       4.350   5.236  19.415  0.00  0.00    +0.000 HD
BRANCH  19  28
ATOM     23  C   UNL     1       6.503   6.604  16.973  0.00  0.00    +0.000 A 
ATOM     24  N   UNL     1       7.527   7.465  17.186  0.00  0.00    +0.000 NA
ATOM     25  C   UNL     1       8.271   7.262  18.295  0.00  0.00    +0.000 A 
ATOM     26  C   UNL     1       8.015   6.233  19.184  0.00  0.00    +0.000 A 
ATOM     27  N   UNL     1       7.000   5.362  19.009  0.00  0.00    +0.000 NA
ATOM     28  C   UNL     1       6.243   5.564  17.884  0.00  0.00    +0.000 A 
BRANCH  23  29
ATOM     29  N   UNL     1       5.727   6.910  15.861  0.00  0.00    +0.000 N 
ATOM     30  H   UNL     1       5.907   6.231  15.131  0.00  0.00    +0.000 HD
ATOM     31  H   UNL     1       4.743   7.029  16.096  0.00  0.00    +0.000 HD
ENDBRANCH  23  29
ENDBRANCH  19  28
ENDBRANCH   1  21
TORSDOF 5
ENDMDL
MODEL 7
REMARK VINA RESULT:      -8.0      1.880      2.794
REMARK  Name = 
REMARK  5 active torsions:
REMARK  status: ('A' for Active; 'I' for Inactive)
REMARK    1  A    between atoms: N_1  and  C_2
REMARK    2  A    between atoms: C_7  and  C_8
REMARK    3  A    between atoms: N_10  and  C_11
REMARK    4  A    between atoms: C_16  and  C_17
REMARK    5  A    between atoms: C_19  and  C_20
REMARK                            x       y       z     vdW  Elec       q    Type
REMARK                         _______ _______ _______ _____ _____    ______ ____
ROOT
ATOM      1  C   UNL     1       3.576   3.987  18.417  0.00  0.00    +0.000 A 
ATOM      2  C   UNL     1       3.664   2.731  17.810  0.00  0.00    +0.000 A 
ATOM      3  C   UNL     1       2.604   1.822  17.874  0.00  0.00    +0.000 A 
ATOM      4  C   UNL     1       1.444   2.148  18.564  0.00  0.00    +0.000 A 
ATOM      5  C   UNL     1       1.337   3.391  19.185  0.00  0.00    +0.000 A 
ATOM      6  C   UNL     1       2.388   4.328  19.120  0.00  0.00    +0.000 A 
ENDROOT
BRANCH   6   7
ATOM      7  C   UNL     1       2.192   5.667  19.683  0.00  0.00    +0.000 A 
ATOM      8  N   UNL     1       2.283   6.805  19.024  0.00  0.00    +0.000 NA
ATOM      9  C   UNL     1       1.846   7.760  19.914  0.00  0.00    +0.000 A 
ATOM     10  N   UNL     1       1.590   7.271  21.138  0.00  0.00    +0.000 NA
ATOM     11  N   UNL     1       1.826   5.959  20.967  0.00  0.00    +0.000 N 
ATOM     12  H   UNL     1       1.690   5.330  21.748  0.00  0.00    +0.000 HD
BRANCH   9  13
ATOM     13  C   UNL     1       1.636   9.141  19.500  0.00  0.00    +0.000 A 
ATOM     14  C   UNL     1       2.150   9.586  18.271  0.00  0.00    +0.000 A 
ATOM     15  C   UNL     1       1.927  10.896  17.837  0.00  0.00    +0.000 A 
ATOM     16  C   UNL     1       1.190  11.771  18.626  0.00  0.00    +0.000 A 
ATOM     17  C   UNL     1       0.675  11.344  19.850  0.00  0.00    +0.000 A 
ATOM     18  C   UNL     1       0.895  10.034  20.285  0.00  0.00    +0.000 A 
ENDBRANCH   9  13
ENDBRANCH   6   7
BRANCH   1  21
ATOM     19  C   UNL     1       5.338   5.378  17.239  0.00  0.00    +0.000 C 
ATOM     20  O   UNL     1       5.163   5.021  16.078  0.00  0.00    +0.000 OA
ATOM     21  N   UNL     1       4.639   4.929  18.348  0.00  0.00    +0.000 N 
ATOM     22  H   UNL     1       4.881   5.395  19.227  0.00  0.00    +0.000 HD
BRANCH  19  28
ATOM     23  C   UNL     1       7.480   6.085  18.429  0.00  0.00    +0.000 A 
ATOM     24  N   UNL     1       8.398   7.033  18.738  0.00  0.00    +0.000 NA
ATOM     25  C   UNL     1       8.215   8.256  18.196  0.00  0.00    +0.000 A 
ATOM     26  C   UNL     1       7.151   8.548  17.361  0.00  0.00    +0.000 A 
ATOM     27  N   UNL     1       6.223   7.628  17.024  0.00  0.00    +0.000 NA
ATOM     28  C   UNL     1       6.404   6.386  17.573  0.00  0.00    +0.000 A 
BRANCH  23  29
ATOM     29  N   UNL     1       7.764   4.829  18.951  0.00  0.00    +0.000 N 
ATOM     30  H   UNL     1       8.166   4.248  18.225  0.00  0.00    +0.000 HD
ATOM     31  H   UNL     1       8.315   4.880  19.806  0.00  0.00    +0.000 HD
ENDBRANCH  23  29
ENDBRANCH  19  28
ENDBRANCH   1  21
TORSDOF 5
ENDMDL
MODEL 8
REMARK VINA RESULT:      -7.9      2.060      2.702
REMARK  Name = 
REMARK  5 active torsions:
REMARK  status: ('A' for Active; 'I' for Inactive)
REMARK    1  A    between atoms: N_1  and  C_2
REMARK    2  A    between atoms: C_7  and  C_8
REMARK    3  A    between atoms: N_10  and  C_11
REMARK    4  A    between atoms: C_16  and  C_17
REMARK    5  A    between atoms: C_19  and  C_20
REMARK                            x       y       z     vdW  Elec       q    Type
REMARK                         _______ _______ _______ _____ _____    ______ ____
ROOT
ATOM      1  C   UNL     1       3.467   4.287  19.913  0.00  0.00    +0.000 A 
ATOM      2  C   UNL     1       3.650   2.905  20.019  0.00  0.00    +0.000 A 
ATOM      3  C   UNL     1       2.630   2.075  20.491  0.00  0.00    +0.000 A 
ATOM      4  C   UNL     1       1.412   2.616  20.882  0.00  0.00    +0.000 A 
ATOM      5  C   UNL     1       1.209   3.992  20.794  0.00  0.00    +0.000 A 
ATOM      6  C   UNL     1       2.221   4.845  20.307  0.00  0.00    +0.000 A 
ENDROOT
BRANCH   6   7
ATOM      7  C   UNL     1       1.928   6.269  20.116  0.00  0.00    +0.000 A 
ATOM      8  N   UNL     1       1.115   6.999  20.853  0.00  0.00    +0.000 NA
ATOM      9  C   UNL     1       1.303   8.288  20.409  0.00  0.00    +0.000 A 
ATOM     10  N   UNL     1       2.122   8.373  19.349  0.00  0.00    +0.000 NA
ATOM     11  N   UNL     1       2.491   7.092  19.180  0.00  0.00    +0.000 N 
ATOM     12  H   UNL     1       3.140   6.861  18.439  0.00  0.00    +0.000 HD
BRANCH   9  13
ATOM     13  C   UNL     1       0.700   9.421  21.098  0.00  0.00    +0.000 A 
ATOM     14  C   UNL     1       0.783  10.705  20.534  0.00  0.00    +0.000 A 
ATOM     15  C   UNL     1       0.178  11.799  21.158  0.00  0.00    +0.000 A 
ATOM     16  C   UNL     1      -0.513  11.621  22.351  0.00  0.00    +0.000 A 
ATOM     17  C   UNL     1      -0.601  10.353  22.925  0.00  0.00    +0.000 A 
ATOM     18  C   UNL     1       0.001   9.257  22.301  0.00  0.00    +0.000 A 
ENDBRANCH   9  13
ENDBRANCH   6   7
BRANCH   1  21
ATOM     19  C   UNL     1       5.507   4.862  18.522  0.00  0.00    +0.000 C 
ATOM     20  O   UNL     1       5.719   3.781  17.980  0.00  0.00    +0.000 OA
ATOM     21  N   UNL     1       4.490   5.142  19.420  0.00  0.00    +0.000 N 
ATOM     22  H   UNL     1       4.431   6.122  19.712  0.00  0.00    +0.000 HD
BRANCH  19  28
ATOM     23  C   UNL     1       7.618   6.234  18.926  0.00  0.00    +0.000 A 
ATOM     24  N   UNL     1       8.377   7.330  18.679  0.00  0.00    +0.000 NA
ATOM     25  C   UNL     1       7.899   8.207  17.770  0.00  0.00    +0.000 A 
ATOM     26  C   UNL     1       6.699   8.015  17.110  0.00  0.00    +0.000 A 
ATOM     27  N   UNL     1       5.921   6.932  17.324  0.00  0.00    +0.000 NA
ATOM     28  C   UNL     1       6.402   6.040  18.247  0.00  0.00    +0.000 A 
BRANCH  23  29
ATOM     29  N   UNL     1       8.197   5.331  19.810  0.00  0.00    +0.000 N 
ATOM     30  H   UNL     1       7.524   5.086  20.526  0.00  0.00    +0.000 HD
ATOM     31  H   UNL     1       8.616   4.535  19.332  0.00  0.00    +0.000 HD
ENDBRANCH  23  29
ENDBRANCH  19  28
ENDBRANCH   1  21
TORSDOF 5
ENDMDL
MODEL 9
REMARK VINA RESULT:      -7.9      1.954      6.825
REMARK  Name = 
REMARK  5 active torsions:
REMARK  status: ('A' for Active; 'I' for Inactive)
REMARK    1  A    between atoms: N_1  and  C_2
REMARK    2  A    between atoms: C_7  and  C_8
REMARK    3  A    between atoms: N_10  and  C_11
REMARK    4  A    between atoms: C_16  and  C_17
REMARK    5  A    between atoms: C_19  and  C_20
REMARK                            x       y       z     vdW  Elec       q    Type
REMARK                         _______ _______ _______ _____ _____    ______ ____
ROOT
ATOM      1  C   UNL     1       2.073   4.508  19.202  0.00  0.00    +0.000 A 
ATOM      2  C   UNL     1       1.298   3.834  20.151  0.00  0.00    +0.000 A 
ATOM      3  C   UNL     1       1.403   2.451  20.319  0.00  0.00    +0.000 A 
ATOM      4  C   UNL     1       2.273   1.715  19.526  0.00  0.00    +0.000 A 
ATOM      5  C   UNL     1       3.049   2.363  18.567  0.00  0.00    +0.000 A 
ATOM      6  C   UNL     1       2.969   3.760  18.392  0.00  0.00    +0.000 A 
ENDROOT
BRANCH   6   7
ATOM      7  C   UNL     1       3.886   4.420  17.458  0.00  0.00    +0.000 A 
ATOM      8  N   UNL     1       4.598   3.827  16.521  0.00  0.00    +0.000 NA
ATOM      9  C   UNL     1       5.153   4.858  15.798  0.00  0.00    +0.000 A 
ATOM     10  N   UNL     1       4.901   6.070  16.317  0.00  0.00    +0.000 NA
ATOM     11  N   UNL     1       4.114   5.765  17.363  0.00  0.00    +0.000 N 
ATOM     12  H   UNL     1       3.751   6.513  17.940  0.00  0.00    +0.000 HD
BRANCH   9  13
ATOM     13  C   UNL     1       5.880   4.608  14.561  0.00  0.00    +0.000 A 
ATOM     14  C   UNL     1       5.336   3.747  13.593  0.00  0.00    +0.000 A 
ATOM     15  C   UNL     1       5.999   3.525  12.383  0.00  0.00    +0.000 A 
ATOM     16  C   UNL     1       7.209   4.160  12.129  0.00  0.00    +0.000 A 
ATOM     17  C   UNL     1       7.763   5.015  13.080  0.00  0.00    +0.000 A 
ATOM     18  C   UNL     1       7.101   5.241  14.291  0.00  0.00    +0.000 A 
ENDBRANCH   9  13
ENDBRANCH   6   7
BRANCH   1  21
ATOM     19  C   UNL     1       1.803   6.905  19.985  0.00  0.00    +0.000 C 
ATOM     20  O   UNL     1       1.664   6.731  21.192  0.00  0.00    +0.000 OA
ATOM     21  N   UNL     1       1.988   5.917  19.031  0.00  0.00    +0.000 N 
ATOM     22  H   UNL     1       2.155   6.262  18.081  0.00  0.00    +0.000 HD
BRANCH  19  28
ATOM     23  C   UNL     1       1.096   9.355  20.042  0.00  0.00    +0.000 A 
ATOM     24  N   UNL     1       1.052  10.582  19.470  0.00  0.00    +0.000 NA
ATOM     25  C   UNL     1       1.668  10.718  18.276  0.00  0.00    +0.000 A 
ATOM     26  C   UNL     1       2.321   9.670  17.652  0.00  0.00    +0.000 A 
ATOM     27  N   UNL     1       2.393   8.436  18.196  0.00  0.00    +0.000 NA
ATOM     28  C   UNL     1       1.767   8.294  19.407  0.00  0.00    +0.000 A 
BRANCH  23  29
ATOM     29  N   UNL     1       0.514   9.296  21.303  0.00  0.00    +0.000 N 
ATOM     30  H   UNL     1       0.342   8.328  21.548  0.00  0.00    +0.000 HD
ATOM     31  H   UNL     1       1.041   9.821  21.998  0.00  0.00    +0.000 HD
ENDBRANCH  23  29
ENDBRANCH  19  28
ENDBRANCH   1  21
TORSDOF 5
ENDMDL
