MODEL 1
REMARK VINA RESULT:      -8.7      0.000      0.000
REMARK  Name = 
REMARK  5 active torsions:
REMARK  status: ('A' for Active; 'I' for Inactive)
REMARK    1  A    between atoms: C_1  and  N_2
REMARK    2  A    between atoms: C_6  and  C_7
REMARK    3  A    between atoms: C_7  and  C_8
REMARK    4  A    between atoms: C_8  and  C_9
REMARK    5  A    between atoms: C_13  and  N_14
REMARK                            x       y       z     vdW  Elec       q    Type
REMARK                         _______ _______ _______ _____ _____    ______ ____
ROOT
ATOM      1  C   UNL     1       3.036   5.687  18.546  0.00  0.00    +0.000 A 
ATOM      2  C   UNL     1       3.539   6.294  17.386  0.00  0.00    +0.000 A 
ATOM      3  C   UNL     1       3.341   7.649  17.128  0.00  0.00    +0.000 A 
ATOM      4  C   UNL     1       2.634   8.447  18.036  0.00  0.00    +0.000 A 
ATOM      5  C   UNL     1       2.130   7.914  19.224  0.00  0.00    +0.000 A 
ATOM      6  C   UNL     1       2.349   6.537  19.432  0.00  0.00    +0.000 A 
ENDROOT
BRANCH   5   7
ATOM      7  N   UNL     1       1.442   8.660  20.158  0.00  0.00    +0.000 N 
ATOM      8  C   UNL     1       1.133   8.242  21.537  0.00  0.00    +0.000 C 
ATOM      9  C   UNL     1       0.232   9.326  22.011  0.00  0.00    +0.000 C 
ATOM     10  C   UNL     1      -0.397   9.699  23.122  0.00  0.00    +0.000 C 
ATOM     11  C   UNL     1      -1.093  10.944  22.726  0.00  0.00    +0.000 C 
ATOM     12  O   UNL     1      -1.801  11.611  23.461  0.00  0.00    +0.000 OA
ATOM     13  C   UNL     1      -0.807  11.256  21.319  0.00  0.00    +0.000 C 
ATOM     14  C   UNL     1      -0.018  10.253  20.950  0.00  0.00    +0.000 C 
ATOM     15  C   UNL     1       0.693   9.852  19.729  0.00  0.00    +0.000 C 
ENDBRANCH   5   7
BRANCH   1  16
ATOM     16  C   UNL     1       3.204   4.118  18.853  0.00  0.00    +0.000 C 
ATOM     17  C   UNL     1       2.882   3.600  20.289  0.00  0.00    +0.000 C 
ATOM     18  O   UNL     1       1.798   2.771  19.815  0.00  0.00    +0.000 OA
ATOM     19  C   UNL     1       1.965   3.256  18.471  0.00  0.00    +0.000 C 
BRANCH  16  20
ATOM     20  C   UNL     1       4.530   3.586  18.265  0.00  0.00    +0.000 C 
BRANCH  20  26
ATOM     21  C   UNL     1       6.923   4.567  16.374  0.00  0.00    +0.000 C 
ATOM     22  N   UNL     1       6.759   4.790  17.787  0.00  0.00    +0.000 N 
ATOM     23  C   UNL     1       7.667   5.440  18.569  0.00  0.00    +0.000 A 
ATOM     24  N   UNL     1       7.238   5.471  19.806  0.00  0.00    +0.000 NA
ATOM     25  N   UNL     1       6.031   4.820  19.840  0.00  0.00    +0.000 NA
ATOM     26  C   UNL     1       5.737   4.404  18.623  0.00  0.00    +0.000 A 
ENDBRANCH  20  26
ENDBRANCH  16  20
ENDBRANCH   1  16
TORSDOF 4
ENDMDL
MODEL 2
REMARK VINA RESULT:      -8.6      2.640      3.961
REMARK  Name = 
REMARK  5 active torsions:
REMARK  status: ('A' for Active; 'I' for Inactive)
REMARK    1  A    between atoms: C_1  and  N_2
REMARK    2  A    between atoms: C_6  and  C_7
REMARK    3  A    between atoms: C_7  and  C_8
REMARK    4  A    between atoms: C_8  and  C_9
REMARK    5  A    between atoms: C_13  and  N_14
REMARK                            x       y       z     vdW  Elec       q    Type
REMARK                         _______ _______ _______ _____ _____    ______ ____
ROOT
ATOM      1  C   UNL     1       4.524   4.805  17.276  0.00  0.00    +0.000 A 
ATOM      2  C   UNL     1       3.650   3.747  16.991  0.00  0.00    +0.000 A 
ATOM      3  C   UNL     1       2.345   3.728  17.482  0.00  0.00    +0.000 A 
ATOM      4  C   UNL     1       1.871   4.780  18.273  0.00  0.00    +0.000 A 
ATOM      5  C   UNL     1       2.679   5.878  18.574  0.00  0.00    +0.000 A 
ATOM      6  C   UNL     1       3.992   5.845  18.062  0.00  0.00    +0.000 A 
ENDROOT
BRANCH   5   7
ATOM      7  N   UNL     1       2.254   6.947  19.335  0.00  0.00    +0.000 N 
ATOM      8  C   UNL     1       1.769   6.875  20.725  0.00  0.00    +0.000 C 
ATOM      9  C   UNL     1       1.277   8.258  20.968  0.00  0.00    +0.000 C 
ATOM     10  C   UNL     1       0.773   8.987  21.959  0.00  0.00    +0.000 C 
ATOM     11  C   UNL     1       0.562  10.316  21.341  0.00  0.00    +0.000 C 
ATOM     12  O   UNL     1       0.099  11.287  21.915  0.00  0.00    +0.000 OA
ATOM     13  C   UNL     1       0.990  10.292  19.936  0.00  0.00    +0.000 C 
ATOM     14  C   UNL     1       1.400   9.038  19.775  0.00  0.00    +0.000 C 
ATOM     15  C   UNL     1       1.977   8.238  18.686  0.00  0.00    +0.000 C 
ENDBRANCH   5   7
BRANCH   1  16
ATOM     16  C   UNL     1       6.049   4.839  16.768  0.00  0.00    +0.000 C 
ATOM     17  C   UNL     1       6.758   6.221  16.623  0.00  0.00    +0.000 C 
ATOM     18  O   UNL     1       7.740   5.895  17.631  0.00  0.00    +0.000 OA
ATOM     19  C   UNL     1       7.104   4.632  17.895  0.00  0.00    +0.000 C 
BRANCH  16  20
ATOM     20  C   UNL     1       6.243   3.893  15.562  0.00  0.00    +0.000 C 
BRANCH  20  26
ATOM     21  C   UNL     1       5.729   3.340  12.448  0.00  0.00    +0.000 C 
ATOM     22  N   UNL     1       6.666   4.256  13.045  0.00  0.00    +0.000 N 
ATOM     23  C   UNL     1       7.545   5.021  12.337  0.00  0.00    +0.000 A 
ATOM     24  N   UNL     1       8.267   5.737  13.161  0.00  0.00    +0.000 NA
ATOM     25  N   UNL     1       7.862   5.431  14.436  0.00  0.00    +0.000 NA
ATOM     26  C   UNL     1       6.896   4.534  14.373  0.00  0.00    +0.000 A 
ENDBRANCH  20  26
ENDBRANCH  16  20
ENDBRANCH   1  16
TORSDOF 4
ENDMDL
MODEL 3
REMARK VINA RESULT:      -8.6      0.203      1.054
REMARK  Name = 
REMARK  5 active torsions:
REMARK  status: ('A' for Active; 'I' for Inactive)
REMARK    1  A    between atoms: C_1  and  N_2
REMARK    2  A    between atoms: C_6  and  C_7
REMARK    3  A    between atoms: C_7  and  C_8
REMARK    4  A    between atoms: C_8  and  C_9
REMARK    5  A    between atoms: C_13  and  N_14
REMARK                            x       y       z     vdW  Elec       q    Type
REMARK                         _______ _______ _______ _____ _____    ______ ____
ROOT
ATOM      1  C   UNL     1       3.126   5.693  18.460  0.00  0.00    +0.000 A 
ATOM      2  C   UNL     1       3.763   6.303  17.369  0.00  0.00    +0.000 A 
ATOM      3  C   UNL     1       3.580   7.655  17.083  0.00  0.00    +0.000 A 
ATOM      4  C   UNL     1       2.755   8.445  17.892  0.00  0.00    +0.000 A 
ATOM      5  C   UNL     1       2.112   7.908  19.010  0.00  0.00    +0.000 A 
ATOM      6  C   UNL     1       2.321   6.535  19.249  0.00  0.00    +0.000 A 
ENDROOT
BRANCH   5   7
ATOM      7  N   UNL     1       1.303   8.647  19.846  0.00  0.00    +0.000 N 
ATOM      8  C   UNL     1       0.717   9.963  19.537  0.00  0.00    +0.000 C 
ATOM      9  C   UNL     1       0.113  10.364  20.837  0.00  0.00    +0.000 C 
ATOM     10  C   UNL     1      -0.623  11.348  21.344  0.00  0.00    +0.000 C 
ATOM     11  C   UNL     1      -0.800  10.955  22.760  0.00  0.00    +0.000 C 
ATOM     12  O   UNL     1      -1.416  11.600  23.591  0.00  0.00    +0.000 OA
ATOM     13  C   UNL     1      -0.123   9.678  23.017  0.00  0.00    +0.000 C 
ATOM     14  C   UNL     1       0.406   9.382  21.834  0.00  0.00    +0.000 C 
ATOM     15  C   UNL     1       1.202   8.284  21.269  0.00  0.00    +0.000 C 
ENDBRANCH   5   7
BRANCH   1  16
ATOM     16  C   UNL     1       3.275   4.127  18.792  0.00  0.00    +0.000 C 
ATOM     17  C   UNL     1       2.906   3.629  20.223  0.00  0.00    +0.000 C 
ATOM     18  O   UNL     1       1.832   2.800  19.728  0.00  0.00    +0.000 OA
ATOM     19  C   UNL     1       2.042   3.267  18.383  0.00  0.00    +0.000 C 
BRANCH  16  20
ATOM     20  C   UNL     1       4.615   3.579  18.251  0.00  0.00    +0.000 C 
BRANCH  20  26
ATOM     21  C   UNL     1       7.037   4.580  16.408  0.00  0.00    +0.000 C 
ATOM     22  N   UNL     1       6.851   4.788  17.821  0.00  0.00    +0.000 N 
ATOM     23  C   UNL     1       7.746   5.430  18.624  0.00  0.00    +0.000 A 
ATOM     24  N   UNL     1       7.297   5.448  19.854  0.00  0.00    +0.000 NA
ATOM     25  N   UNL     1       6.089   4.797  19.862  0.00  0.00    +0.000 NA
ATOM     26  C   UNL     1       5.815   4.393  18.636  0.00  0.00    +0.000 A 
ENDBRANCH  20  26
ENDBRANCH  16  20
ENDBRANCH   1  16
TORSDOF 4
ENDMDL
MODEL 4
REMARK VINA RESULT:      -8.4      2.719      4.217
REMARK  Name = 
REMARK  5 active torsions:
REMARK  status: ('A' for Active; 'I' for Inactive)
REMARK    1  A    between atoms: C_1  and  N_2
REMARK    2  A    between atoms: C_6  and  C_7
REMARK    3  A    between atoms: C_7  and  C_8
REMARK    4  A    between atoms: C_8  and  C_9
REMARK    5  A    between atoms: C_13  and  N_14
REMARK                            x       y       z     vdW  Elec       q    Type
REMARK                         _______ _______ _______ _____ _____    ______ ____
ROOT
ATOM      1  C   UNL     1       4.561   4.820  17.163  0.00  0.00    +0.000 A 
ATOM      2  C   UNL     1       3.774   3.662  17.074  0.00  0.00    +0.000 A 
ATOM      3  C   UNL     1       2.448   3.649  17.502  0.00  0.00    +0.000 A 
ATOM      4  C   UNL     1       1.862   4.806  18.029  0.00  0.00    +0.000 A 
ATOM      5  C   UNL     1       2.579   6.000  18.122  0.00  0.00    +0.000 A 
ATOM      6  C   UNL     1       3.919   5.958  17.685  0.00  0.00    +0.000 A 
ENDROOT
BRANCH   5   7
ATOM      7  N   UNL     1       2.043   7.170  18.618  0.00  0.00    +0.000 N 
ATOM      8  C   UNL     1       1.915   8.439  17.880  0.00  0.00    +0.000 C 
ATOM      9  C   UNL     1       1.462   9.384  18.937  0.00  0.00    +0.000 C 
ATOM     10  C   UNL     1       1.078  10.652  19.056  0.00  0.00    +0.000 C 
ATOM     11  C   UNL     1       0.771  10.788  20.498  0.00  0.00    +0.000 C 
ATOM     12  O   UNL     1       0.388  11.812  21.036  0.00  0.00    +0.000 OA
ATOM     13  C   UNL     1       0.999   9.509  21.185  0.00  0.00    +0.000 C 
ATOM     14  C   UNL     1       1.414   8.717  20.201  0.00  0.00    +0.000 C 
ATOM     15  C   UNL     1       1.818   7.311  20.065  0.00  0.00    +0.000 C 
ENDBRANCH   5   7
BRANCH   1  16
ATOM     16  C   UNL     1       6.107   4.860  16.725  0.00  0.00    +0.000 C 
ATOM     17  C   UNL     1       6.811   6.246  16.594  0.00  0.00    +0.000 C 
ATOM     18  O   UNL     1       7.748   5.942  17.649  0.00  0.00    +0.000 OA
ATOM     19  C   UNL     1       7.111   4.676  17.901  0.00  0.00    +0.000 C 
BRANCH  16  20
ATOM     20  C   UNL     1       6.363   3.901  15.541  0.00  0.00    +0.000 C 
BRANCH  20  26
ATOM     21  C   UNL     1       5.772   3.343  12.442  0.00  0.00    +0.000 C 
ATOM     22  N   UNL     1       6.708   4.275  13.013  0.00  0.00    +0.000 N 
ATOM     23  C   UNL     1       7.552   5.058  12.282  0.00  0.00    +0.000 A 
ATOM     24  N   UNL     1       8.283   5.786  13.088  0.00  0.00    +0.000 NA
ATOM     25  N   UNL     1       7.920   5.471  14.373  0.00  0.00    +0.000 NA
ATOM     26  C   UNL     1       6.970   4.556  14.335  0.00  0.00    +0.000 A 
ENDBRANCH  20  26
ENDBRANCH  16  20
ENDBRANCH   1  16
TORSDOF 4
ENDMDL
MODEL 5
REMARK VINA RESULT:      -8.3      2.556      4.055
REMARK  Name = 
REMARK  5 active torsions:
REMARK  status: ('A' for Active; 'I' for Inactive)
REMARK    1  A    between atoms: C_1  and  N_2
REMARK    2  A    between atoms: C_6  and  C_7
REMARK    3  A    between atoms: C_7  and  C_8
REMARK    4  A    between atoms: C_8  and  C_9
REMARK    5  A    between atoms: C_13  and  N_14
REMARK                            x       y       z     vdW  Elec       q    Type
REMARK                         _______ _______ _______ _____ _____    ______ ____
ROOT
ATOM      1  C   UNL     1       5.427   5.329  18.781  0.00  0.00    +0.000 A 
ATOM      2  C   UNL     1       4.994   4.073  19.231  0.00  0.00    +0.000 A 
ATOM      3  C   UNL     1       3.706   3.884  19.731  0.00  0.00    +0.000 A 
ATOM      4  C   UNL     1       2.805   4.953  19.790  0.00  0.00    +0.000 A 
ATOM      5  C   UNL     1       3.162   6.224  19.334  0.00  0.00    +0.000 A 
ATOM      6  C   UNL     1       4.477   6.365  18.847  0.00  0.00    +0.000 A 
ENDROOT
BRANCH   5   7
ATOM      7  N   UNL     1       2.306   7.305  19.355  0.00  0.00    +0.000 N 
ATOM      8  C   UNL     1       2.160   8.308  18.286  0.00  0.00    +0.000 C 
ATOM      9  C   UNL     1       1.267   9.322  18.911  0.00  0.00    +0.000 C 
ATOM     10  C   UNL     1       0.641  10.449  18.587  0.00  0.00    +0.000 C 
ATOM     11  C   UNL     1      -0.074  10.819  19.829  0.00  0.00    +0.000 C 
ATOM     12  O   UNL     1      -0.771  11.810  19.964  0.00  0.00    +0.000 OA
ATOM     13  C   UNL     1       0.182   9.820  20.875  0.00  0.00    +0.000 C 
ATOM     14  C   UNL     1       0.991   8.958  20.267  0.00  0.00    +0.000 C 
ATOM     15  C   UNL     1       1.665   7.702  20.619  0.00  0.00    +0.000 C 
ENDBRANCH   5   7
BRANCH   1  16
ATOM     16  C   UNL     1       6.918   5.595  18.243  0.00  0.00    +0.000 C 
ATOM     17  C   UNL     1       7.284   7.023  17.733  0.00  0.00    +0.000 C 
ATOM     18  O   UNL     1       8.277   7.207  18.765  0.00  0.00    +0.000 OA
ATOM     19  C   UNL     1       7.950   5.938  19.358  0.00  0.00    +0.000 C 
BRANCH  16  20
ATOM     20  C   UNL     1       7.375   4.449  17.312  0.00  0.00    +0.000 C 
BRANCH  20  26
ATOM     21  C   UNL     1       4.657   3.526  15.891  0.00  0.00    +0.000 C 
ATOM     22  N   UNL     1       5.790   4.184  15.296  0.00  0.00    +0.000 N 
ATOM     23  C   UNL     1       5.894   4.480  13.969  0.00  0.00    +0.000 A 
ATOM     24  N   UNL     1       7.042   5.066  13.739  0.00  0.00    +0.000 NA
ATOM     25  N   UNL     1       7.710   5.148  14.934  0.00  0.00    +0.000 NA
ATOM     26  C   UNL     1       6.960   4.614  15.879  0.00  0.00    +0.000 A 
ENDBRANCH  20  26
ENDBRANCH  16  20
ENDBRANCH   1  16
TORSDOF 4
ENDMDL
MODEL 6
REMARK VINA RESULT:      -8.2      2.240      3.597
REMARK  Name = 
REMARK  5 active torsions:
REMARK  status: ('A' for Active; 'I' for Inactive)
REMARK    1  A    between atoms: C_1  and  N_2
REMARK    2  A    between atoms: C_6  and  C_7
REMARK    3  A    between atoms: C_7  and  C_8
REMARK    4  A    between atoms: C_8  and  C_9
REMARK    5  A    between atoms: C_13  and  N_14
REMARK                            x       y       z     vdW  Elec       q    Type
REMARK                         _______ _______ _______ _____ _____    ______ ____
ROOT
ATOM      1  C   UNL     1       4.388   4.507  17.178  0.00  0.00    +0.000 A 
ATOM      2  C   UNL     1       3.726   3.353  17.620  0.00  0.00    +0.000 A 
ATOM      3  C   UNL     1       2.643   3.425  18.495  0.00  0.00    +0.000 A 
ATOM      4  C   UNL     1       2.182   4.665  18.951  0.00  0.00    +0.000 A 
ATOM      5  C   UNL     1       2.777   5.856  18.529  0.00  0.00    +0.000 A 
ATOM      6  C   UNL     1       3.874   5.728  17.653  0.00  0.00    +0.000 A 
ENDROOT
BRANCH   5   7
ATOM      7  N   UNL     1       2.351   7.102  18.936  0.00  0.00    +0.000 N 
ATOM      8  C   UNL     1       1.781   7.430  20.255  0.00  0.00    +0.000 C 
ATOM      9  C   UNL     1       1.331   8.837  20.074  0.00  0.00    +0.000 C 
ATOM     10  C   UNL     1       0.798   9.823  20.789  0.00  0.00    +0.000 C 
ATOM     11  C   UNL     1       0.678  10.932  19.816  0.00  0.00    +0.000 C 
ATOM     12  O   UNL     1       0.220  12.034  20.067  0.00  0.00    +0.000 OA
ATOM     13  C   UNL     1       1.188  10.510  18.505  0.00  0.00    +0.000 C 
ATOM     14  C   UNL     1       1.557   9.252  18.724  0.00  0.00    +0.000 C 
ATOM     15  C   UNL     1       2.165   8.169  17.939  0.00  0.00    +0.000 C 
ENDBRANCH   5   7
BRANCH   1  16
ATOM     16  C   UNL     1       5.669   4.461  16.207  0.00  0.00    +0.000 C 
ATOM     17  C   UNL     1       5.675   3.441  15.027  0.00  0.00    +0.000 C 
ATOM     18  O   UNL     1       5.723   4.491  14.036  0.00  0.00    +0.000 OA
ATOM     19  C   UNL     1       5.635   5.505  15.053  0.00  0.00    +0.000 C 
BRANCH  16  20
ATOM     20  C   UNL     1       6.977   4.493  17.029  0.00  0.00    +0.000 C 
BRANCH  20  26
ATOM     21  C   UNL     1       7.953   5.593  19.876  0.00  0.00    +0.000 C 
ATOM     22  N   UNL     1       7.834   6.317  18.637  0.00  0.00    +0.000 N 
ATOM     23  C   UNL     1       8.086   7.650  18.503  0.00  0.00    +0.000 A 
ATOM     24  N   UNL     1       7.879   8.013  17.263  0.00  0.00    +0.000 NA
ATOM     25  N   UNL     1       7.474   6.901  16.570  0.00  0.00    +0.000 NA
ATOM     26  C   UNL     1       7.442   5.872  17.396  0.00  0.00    +0.000 A 
ENDBRANCH  20  26
ENDBRANCH  16  20
ENDBRANCH   1  16
TORSDOF 4
ENDMDL
MODEL 7
REMARK VINA RESULT:      -8.2      2.168      3.685
REMARK  Name = 
REMARK  5 active torsions:
REMARK  status: ('A' for Active; 'I' for Inactive)
REMARK    1  A    between atoms: C_1  and  N_2
REMARK    2  A    between atoms: C_6  and  C_7
REMARK    3  A    between atoms: C_7  and  C_8
REMARK    4  A    between atoms: C_8  and  C_9
REMARK    5  A    between atoms: C_13  and  N_14
REMARK                            x       y       z     vdW  Elec       q    Type
REMARK                         _______ _______ _______ _____ _____    ______ ____
ROOT
ATOM      1  C   UNL     1       4.721   4.605  17.592  0.00  0.00    +0.000 A 
ATOM      2  C   UNL     1       4.545   3.577  18.530  0.00  0.00    +0.000 A 
ATOM      3  C   UNL     1       3.676   3.719  19.611  0.00  0.00    +0.000 A 
ATOM      4  C   UNL     1       2.945   4.900  19.782  0.00  0.00    +0.000 A 
ATOM      5  C   UNL     1       3.052   5.954  18.872  0.00  0.00    +0.000 A 
ATOM      6  C   UNL     1       3.952   5.765  17.802  0.00  0.00    +0.000 A 
ENDROOT
BRANCH   5   7
ATOM      7  N   UNL     1       2.343   7.131  18.987  0.00  0.00    +0.000 N 
ATOM      8  C   UNL     1       2.267   8.193  17.969  0.00  0.00    +0.000 C 
ATOM      9  C   UNL     1       1.546   9.280  18.687  0.00  0.00    +0.000 C 
ATOM     10  C   UNL     1       1.051  10.490  18.446  0.00  0.00    +0.000 C 
ATOM     11  C   UNL     1       0.459  10.888  19.743  0.00  0.00    +0.000 C 
ATOM     12  O   UNL     1      -0.098  11.951  19.959  0.00  0.00    +0.000 OA
ATOM     13  C   UNL     1       0.644   9.817  20.731  0.00  0.00    +0.000 C 
ATOM     14  C   UNL     1       1.301   8.891  20.042  0.00  0.00    +0.000 C 
ATOM     15  C   UNL     1       1.830   7.545  20.303  0.00  0.00    +0.000 C 
ENDBRANCH   5   7
BRANCH   1  16
ATOM     16  C   UNL     1       5.749   4.497  16.361  0.00  0.00    +0.000 C 
ATOM     17  C   UNL     1       5.523   3.381  15.295  0.00  0.00    +0.000 C 
ATOM     18  O   UNL     1       5.309   4.343  14.240  0.00  0.00    +0.000 OA
ATOM     19  C   UNL     1       5.418   5.439  15.166  0.00  0.00    +0.000 C 
BRANCH  16  20
ATOM     20  C   UNL     1       7.208   4.620  16.857  0.00  0.00    +0.000 C 
BRANCH  20  26
ATOM     21  C   UNL     1       7.919   5.591  19.826  0.00  0.00    +0.000 C 
ATOM     22  N   UNL     1       7.864   6.380  18.623  0.00  0.00    +0.000 N 
ATOM     23  C   UNL     1       8.068   7.727  18.581  0.00  0.00    +0.000 A 
ATOM     24  N   UNL     1       7.940   8.153  17.350  0.00  0.00    +0.000 NA
ATOM     25  N   UNL     1       7.635   7.067  16.568  0.00  0.00    +0.000 NA
ATOM     26  C   UNL     1       7.585   5.992  17.332  0.00  0.00    +0.000 A 
ENDBRANCH  20  26
ENDBRANCH  16  20
ENDBRANCH   1  16
TORSDOF 4
ENDMDL
MODEL 8
REMARK VINA RESULT:      -8.0      2.071      3.329
REMARK  Name = 
REMARK  5 active torsions:
REMARK  status: ('A' for Active; 'I' for Inactive)
REMARK    1  A    between atoms: C_1  and  N_2
REMARK    2  A    between atoms: C_6  and  C_7
REMARK    3  A    between atoms: C_7  and  C_8
REMARK    4  A    between atoms: C_8  and  C_9
REMARK    5  A    between atoms: C_13  and  N_14
REMARK                            x       y       z     vdW  Elec       q    Type
REMARK                         _______ _______ _______ _____ _____    ______ ____
ROOT
ATOM      1  C   UNL     1       4.196   4.695  16.799  0.00  0.00    +0.000 A 
ATOM      2  C   UNL     1       3.443   3.514  16.872  0.00  0.00    +0.000 A 
ATOM      3  C   UNL     1       2.332   3.409  17.707  0.00  0.00    +0.000 A 
ATOM      4  C   UNL     1       1.933   4.496  18.494  0.00  0.00    +0.000 A 
ATOM      5  C   UNL     1       2.620   5.710  18.450  0.00  0.00    +0.000 A 
ATOM      6  C   UNL     1       3.743   5.761  17.597  0.00  0.00    +0.000 A 
ENDROOT
BRANCH   5   7
ATOM      7  N   UNL     1       2.258   6.814  19.192  0.00  0.00    +0.000 N 
ATOM      8  C   UNL     1       1.857   6.804  20.611  0.00  0.00    +0.000 C 
ATOM      9  C   UNL     1       1.402   8.204  20.829  0.00  0.00    +0.000 C 
ATOM     10  C   UNL     1       0.969   8.979  21.819  0.00  0.00    +0.000 C 
ATOM     11  C   UNL     1       0.741  10.286  21.163  0.00  0.00    +0.000 C 
ATOM     12  O   UNL     1       0.327  11.286  21.725  0.00  0.00    +0.000 OA
ATOM     13  C   UNL     1       1.082  10.201  19.737  0.00  0.00    +0.000 C 
ATOM     14  C   UNL     1       1.464   8.935  19.601  0.00  0.00    +0.000 C 
ATOM     15  C   UNL     1       1.961   8.084  18.511  0.00  0.00    +0.000 C 
ENDBRANCH   5   7
BRANCH   1  16
ATOM     16  C   UNL     1       5.511   4.837  15.884  0.00  0.00    +0.000 C 
ATOM     17  C   UNL     1       6.378   3.567  15.621  0.00  0.00    +0.000 C 
ATOM     18  O   UNL     1       6.126   3.611  14.200  0.00  0.00    +0.000 OA
ATOM     19  C   UNL     1       5.240   4.734  14.354  0.00  0.00    +0.000 C 
BRANCH  16  20
ATOM     20  C   UNL     1       6.320   6.091  16.284  0.00  0.00    +0.000 C 
BRANCH  20  26
ATOM     21  C   UNL     1       7.961   8.326  17.889  0.00  0.00    +0.000 C 
ATOM     22  N   UNL     1       7.766   6.943  18.241  0.00  0.00    +0.000 N 
ATOM     23  C   UNL     1       8.318   6.346  19.335  0.00  0.00    +0.000 A 
ATOM     24  N   UNL     1       7.964   5.087  19.373  0.00  0.00    +0.000 NA
ATOM     25  N   UNL     1       7.172   4.847  18.279  0.00  0.00    +0.000 NA
ATOM     26  C   UNL     1       7.050   5.965  17.588  0.00  0.00    +0.000 A 
ENDBRANCH  20  26
ENDBRANCH  16  20
ENDBRANCH   1  16
TORSDOF 4
ENDMDL
MODEL 9
REMARK VINA RESULT:      -8.0      2.751      4.083
REMARK  Name = 
REMARK  5 active torsions:
REMARK  status: ('A' for Active; 'I' for Inactive)
REMARK    1  A    between atoms: C_1  and  N_2
REMARK    2  A    between atoms: C_6  and  C_7
REMARK    3  A    between atoms: C_7  and  C_8
REMARK    4  A    between atoms: C_8  and  C_9
REMARK    5  A    between atoms: C_13  and  N_14
REMARK                            x       y       z     vdW  Elec       q    Type
REMARK                         _______ _______ _______ _____ _____    ______ ____
ROOT
ATOM      1  C   UNL     1       4.449   5.098  17.084  0.00  0.00    +0.000 A 
ATOM      2  C   UNL     1       3.672   3.939  16.945  0.00  0.00    +0.000 A 
ATOM      3  C   UNL     1       2.454   3.796  17.608  0.00  0.00    +0.000 A 
ATOM      4  C   UNL     1       1.970   4.821  18.430  0.00  0.00    +0.000 A 
ATOM      5  C   UNL     1       2.679   6.012  18.591  0.00  0.00    +0.000 A 
ATOM      6  C   UNL     1       3.909   6.103  17.908  0.00  0.00    +0.000 A 
ENDROOT
BRANCH   5   7
ATOM      7  N   UNL     1       2.239   7.057  19.375  0.00  0.00    +0.000 N 
ATOM      8  C   UNL     1       1.794   6.954  20.777  0.00  0.00    +0.000 C 
ATOM      9  C   UNL     1       1.261   8.317  21.050  0.00  0.00    +0.000 C 
ATOM     10  C   UNL     1       0.759   9.017  22.062  0.00  0.00    +0.000 C 
ATOM     11  C   UNL     1       0.486  10.344  21.465  0.00  0.00    +0.000 C 
ATOM     12  O   UNL     1       0.005  11.292  22.062  0.00  0.00    +0.000 OA
ATOM     13  C   UNL     1       0.877  10.350  20.049  0.00  0.00    +0.000 C 
ATOM     14  C   UNL     1       1.326   9.113  19.863  0.00  0.00    +0.000 C 
ATOM     15  C   UNL     1       1.900   8.345  18.749  0.00  0.00    +0.000 C 
ENDBRANCH   5   7
BRANCH   1  16
ATOM     16  C   UNL     1       5.880   5.279  16.373  0.00  0.00    +0.000 C 
ATOM     17  C   UNL     1       7.030   5.965  17.174  0.00  0.00    +0.000 C 
ATOM     18  O   UNL     1       7.847   4.775  17.145  0.00  0.00    +0.000 OA
ATOM     19  C   UNL     1       6.809   4.033  16.479  0.00  0.00    +0.000 C 
BRANCH  16  20
ATOM     20  C   UNL     1       5.710   5.799  14.928  0.00  0.00    +0.000 C 
BRANCH  20  26
ATOM     21  C   UNL     1       8.247   5.583  12.985  0.00  0.00    +0.000 C 
ATOM     22  N   UNL     1       7.090   4.728  13.032  0.00  0.00    +0.000 N 
ATOM     23  C   UNL     1       6.875   3.683  12.184  0.00  0.00    +0.000 A 
ATOM     24  N   UNL     1       5.734   3.110  12.474  0.00  0.00    +0.000 NA
ATOM     25  N   UNL     1       5.183   3.797  13.526  0.00  0.00    +0.000 NA
ATOM     26  C   UNL     1       5.996   4.778  13.867  0.00  0.00    +0.000 A 
ENDBRANCH  20  26
ENDBRANCH  16  20
ENDBRANCH   1  16
TORSDOF 4
ENDMDL
