MODEL 1
REMARK VINA RESULT:      -9.5      0.000      0.000
REMARK  Name = 
REMARK  5 active torsions:
REMARK  status: ('A' for Active; 'I' for Inactive)
REMARK    1  A    between atoms: C_2  and  C_3
REMARK    2  A    between atoms: C_3  and  C_4
REMARK    3  A    between atoms: C_4  and  C_5
REMARK    4  A    between atoms: N_15  and  C_16
REMARK    5  A    between atoms: C_16  and  C_17
REMARK                            x       y       z     vdW  Elec       q    Type
REMARK                         _______ _______ _______ _____ _____    ______ ____
ROOT
ATOM      1  O   UNL     1       8.572   7.580  18.874  0.00  0.00    +0.000 OA
ATOM      2  C   UNL     1       8.023   8.177  17.954  0.00  0.00    +0.000 C 
ATOM      3  N   UNL     1       7.227   7.547  17.029  0.00  0.00    +0.000 N 
ATOM      4  H   UNL     1       6.881   8.058  16.218  0.00  0.00    +0.000 HD
ENDROOT
BRANCH   2   5
ATOM      5  C   UNL     1       8.182   9.672  17.745  0.00  0.00    +0.000 C 
BRANCH   5   6
ATOM      6  C   UNL     1       9.115  10.296  18.782  0.00  0.00    +0.000 C 
BRANCH   6   7
ATOM      7  C   UNL     1       9.724  11.591  18.301  0.00  0.00    +0.000 A 
ATOM      8  C   UNL     1      10.981  11.609  17.707  0.00  0.00    +0.000 A 
ATOM      9  C   UNL     1      11.498  12.825  17.272  0.00  0.00    +0.000 A 
ATOM     10  C   UNL     1      10.747  14.000  17.424  0.00  0.00    +0.000 A 
ATOM     11  C   UNL     1      11.223  15.247  16.977  0.00  0.00    +0.000 A 
ATOM     12  C   UNL     1      10.441  16.391  17.125  0.00  0.00    +0.000 A 
ATOM     13  C   UNL     1       9.189  16.292  17.723  0.00  0.00    +0.000 A 
ATOM     14  C   UNL     1       8.728  15.051  18.172  0.00  0.00    +0.000 A 
ATOM     15  C   UNL     1       9.481  13.891  18.031  0.00  0.00    +0.000 A 
ATOM     16  N   UNL     1       8.984  12.714  18.466  0.00  0.00    +0.000 NA
ENDBRANCH   6   7
ENDBRANCH   5   6
ENDBRANCH   2   5
BRANCH   3  17
ATOM     17  C   UNL     1       6.962   6.119  17.058  0.00  0.00    +0.000 C 
BRANCH  17  18
ATOM     18  C   UNL     1       5.461   5.842  16.844  0.00  0.00    +0.000 C 
ATOM     19  O   UNL     1       4.840   6.449  15.969  0.00  0.00    +0.000 OA
ATOM     20  N   UNL     1       4.865   4.881  17.654  0.00  0.00    +0.000 N 
ATOM     21  C   UNL     1       5.584   4.181  18.725  0.00  0.00    +0.000 C 
ATOM     22  C   UNL     1       4.852   2.965  19.294  0.00  0.00    +0.000 C 
ATOM     23  C   UNL     1       3.457   3.363  19.686  0.00  0.00    +0.000 A 
ATOM     24  C   UNL     1       2.841   2.869  20.838  0.00  0.00    +0.000 A 
ATOM     25  C   UNL     1       1.543   3.268  21.157  0.00  0.00    +0.000 A 
ATOM     26  C   UNL     1       0.856   4.148  20.323  0.00  0.00    +0.000 A 
ATOM     27  C   UNL     1       1.460   4.628  19.160  0.00  0.00    +0.000 A 
ATOM     28  C   UNL     1       2.765   4.242  18.835  0.00  0.00    +0.000 A 
ATOM     29  C   UNL     1       3.416   4.687  17.545  0.00  0.00    +0.000 C 
ENDBRANCH  17  18
ENDBRANCH   3  17
TORSDOF 5
ENDMDL
MODEL 2
REMARK VINA RESULT:      -9.5      1.604      2.075
REMARK  Name = 
REMARK  5 active torsions:
REMARK  status: ('A' for Active; 'I' for Inactive)
REMARK    1  A    between atoms: C_2  and  C_3
REMARK    2  A    between atoms: C_3  and  C_4
REMARK    3  A    between atoms: C_4  and  C_5
REMARK    4  A    between atoms: N_15  and  C_16
REMARK    5  A    between atoms: C_16  and  C_17
REMARK                            x       y       z     vdW  Elec       q    Type
REMARK                         _______ _______ _______ _____ _____    ______ ____
ROOT
ATOM      1  O   UNL     1       7.018   6.068  19.011  0.00  0.00    +0.000 OA
ATOM      2  C   UNL     1       7.548   6.807  18.189  0.00  0.00    +0.000 C 
ATOM      3  N   UNL     1       7.269   6.744  16.844  0.00  0.00    +0.000 N 
ATOM      4  H   UNL     1       7.811   7.298  16.182  0.00  0.00    +0.000 HD
ENDROOT
BRANCH   2   5
ATOM      5  C   UNL     1       8.571   7.858  18.578  0.00  0.00    +0.000 C 
BRANCH   5   6
ATOM      6  C   UNL     1       8.189   9.244  18.061  0.00  0.00    +0.000 C 
BRANCH   6   7
ATOM      7  C   UNL     1       9.109  10.323  18.577  0.00  0.00    +0.000 A 
ATOM      8  C   UNL     1       9.354  10.459  19.938  0.00  0.00    +0.000 A 
ATOM      9  C   UNL     1      10.216  11.463  20.367  0.00  0.00    +0.000 A 
ATOM     10  C   UNL     1      10.830  12.306  19.429  0.00  0.00    +0.000 A 
ATOM     11  C   UNL     1      11.726  13.320  19.819  0.00  0.00    +0.000 A 
ATOM     12  C   UNL     1      12.333  14.126  18.858  0.00  0.00    +0.000 A 
ATOM     13  C   UNL     1      12.045  13.926  17.512  0.00  0.00    +0.000 A 
ATOM     14  C   UNL     1      11.146  12.922  17.135  0.00  0.00    +0.000 A 
ATOM     15  C   UNL     1      10.530  12.097  18.069  0.00  0.00    +0.000 A 
ATOM     16  N   UNL     1       9.684  11.132  17.653  0.00  0.00    +0.000 NA
ENDBRANCH   6   7
ENDBRANCH   5   6
ENDBRANCH   2   5
BRANCH   3  17
ATOM     17  C   UNL     1       6.324   5.798  16.278  0.00  0.00    +0.000 C 
BRANCH  17  18
ATOM     18  C   UNL     1       4.892   6.116  16.749  0.00  0.00    +0.000 C 
ATOM     19  O   UNL     1       4.465   7.271  16.691  0.00  0.00    +0.000 OA
ATOM     20  N   UNL     1       4.118   5.056  17.209  0.00  0.00    +0.000 N 
ATOM     21  C   UNL     1       4.627   3.684  17.320  0.00  0.00    +0.000 C 
ATOM     22  C   UNL     1       3.552   2.622  17.556  0.00  0.00    +0.000 C 
ATOM     23  C   UNL     1       2.700   3.029  18.726  0.00  0.00    +0.000 A 
ATOM     24  C   UNL     1       2.232   2.102  19.660  0.00  0.00    +0.000 A 
ATOM     25  C   UNL     1       1.443   2.530  20.728  0.00  0.00    +0.000 A 
ATOM     26  C   UNL     1       1.110   3.877  20.856  0.00  0.00    +0.000 A 
ATOM     27  C   UNL     1       1.559   4.803  19.914  0.00  0.00    +0.000 A 
ATOM     28  C   UNL     1       2.359   4.387  18.845  0.00  0.00    +0.000 A 
ATOM     29  C   UNL     1       2.796   5.356  17.769  0.00  0.00    +0.000 C 
ENDBRANCH  17  18
ENDBRANCH   3  17
TORSDOF 5
ENDMDL
MODEL 3
REMARK VINA RESULT:      -9.4      1.710     11.207
REMARK  Name = 
REMARK  5 active torsions:
REMARK  status: ('A' for Active; 'I' for Inactive)
REMARK    1  A    between atoms: C_2  and  C_3
REMARK    2  A    between atoms: C_3  and  C_4
REMARK    3  A    between atoms: C_4  and  C_5
REMARK    4  A    between atoms: N_15  and  C_16
REMARK    5  A    between atoms: C_16  and  C_17
REMARK                            x       y       z     vdW  Elec       q    Type
REMARK                         _______ _______ _______ _____ _____    ______ ____
ROOT
ATOM      1  O   UNL     1       7.673   7.719  16.981  0.00  0.00    +0.000 OA
ATOM      2  C   UNL     1       8.023   7.533  18.142  0.00  0.00    +0.000 C 
ATOM      3  N   UNL     1       8.609   8.512  18.908  0.00  0.00    +0.000 N 
ATOM      4  H   UNL     1       8.986   8.286  19.827  0.00  0.00    +0.000 HD
ENDROOT
BRANCH   2   5
ATOM      5  C   UNL     1       7.851   6.196  18.839  0.00  0.00    +0.000 C 
BRANCH   5   6
ATOM      6  C   UNL     1       7.253   5.141  17.909  0.00  0.00    +0.000 C 
BRANCH   6   7
ATOM      7  C   UNL     1       5.772   4.958  18.126  0.00  0.00    +0.000 A 
ATOM      8  C   UNL     1       4.848   5.708  17.407  0.00  0.00    +0.000 A 
ATOM      9  C   UNL     1       3.492   5.498  17.635  0.00  0.00    +0.000 A 
ATOM     10  C   UNL     1       3.079   4.533  18.566  0.00  0.00    +0.000 A 
ATOM     11  C   UNL     1       1.718   4.274  18.810  0.00  0.00    +0.000 A 
ATOM     12  C   UNL     1       1.344   3.293  19.727  0.00  0.00    +0.000 A 
ATOM     13  C   UNL     1       2.326   2.577  20.403  0.00  0.00    +0.000 A 
ATOM     14  C   UNL     1       3.677   2.847  20.161  0.00  0.00    +0.000 A 
ATOM     15  C   UNL     1       4.081   3.814  19.247  0.00  0.00    +0.000 A 
ATOM     16  N   UNL     1       5.396   4.025  19.037  0.00  0.00    +0.000 NA
ENDBRANCH   6   7
ENDBRANCH   5   6
ENDBRANCH   2   5
BRANCH   3  17
ATOM     17  C   UNL     1       8.864   9.853  18.414  0.00  0.00    +0.000 C 
BRANCH  17  18
ATOM     18  C   UNL     1       9.540  10.711  19.500  0.00  0.00    +0.000 C 
ATOM     19  O   UNL     1       9.283  10.516  20.690  0.00  0.00    +0.000 OA
ATOM     20  N   UNL     1      10.449  11.677  19.082  0.00  0.00    +0.000 N 
ATOM     21  C   UNL     1      10.735  11.946  17.668  0.00  0.00    +0.000 C 
ATOM     22  C   UNL     1      11.965  12.820  17.421  0.00  0.00    +0.000 C 
ATOM     23  C   UNL     1      11.860  14.071  18.247  0.00  0.00    +0.000 A 
ATOM     24  C   UNL     1      12.266  15.316  17.762  0.00  0.00    +0.000 A 
ATOM     25  C   UNL     1      12.149  16.448  18.569  0.00  0.00    +0.000 A 
ATOM     26  C   UNL     1      11.641  16.336  19.862  0.00  0.00    +0.000 A 
ATOM     27  C   UNL     1      11.253  15.090  20.358  0.00  0.00    +0.000 A 
ATOM     28  C   UNL     1      11.357  13.950  19.554  0.00  0.00    +0.000 A 
ATOM     29  C   UNL     1      11.014  12.579  20.091  0.00  0.00    +0.000 C 
ENDBRANCH  17  18
ENDBRANCH   3  17
TORSDOF 5
ENDMDL
MODEL 4
REMARK VINA RESULT:      -9.3      4.894      8.676
REMARK  Name = 
REMARK  5 active torsions:
REMARK  status: ('A' for Active; 'I' for Inactive)
REMARK    1  A    between atoms: C_2  and  C_3
REMARK    2  A    between atoms: C_3  and  C_4
REMARK    3  A    between atoms: C_4  and  C_5
REMARK    4  A    between atoms: N_15  and  C_16
REMARK    5  A    between atoms: C_16  and  C_17
REMARK                            x       y       z     vdW  Elec       q    Type
REMARK                         _______ _______ _______ _____ _____    ______ ____
ROOT
ATOM      1  O   UNL     1       0.773   4.000  20.453  0.00  0.00    +0.000 OA
ATOM      2  C   UNL     1       1.968   4.156  20.680  0.00  0.00    +0.000 C 
ATOM      3  N   UNL     1       2.534   5.394  20.867  0.00  0.00    +0.000 N 
ATOM      4  H   UNL     1       3.546   5.489  20.942  0.00  0.00    +0.000 HD
ENDROOT
BRANCH   2   5
ATOM      5  C   UNL     1       2.939   2.993  20.765  0.00  0.00    +0.000 C 
BRANCH   5   6
ATOM      6  C   UNL     1       3.319   2.466  19.382  0.00  0.00    +0.000 C 
BRANCH   6   7
ATOM      7  C   UNL     1       4.158   3.449  18.603  0.00  0.00    +0.000 A 
ATOM      8  C   UNL     1       3.867   3.740  17.276  0.00  0.00    +0.000 A 
ATOM      9  C   UNL     1       4.664   4.660  16.601  0.00  0.00    +0.000 A 
ATOM     10  C   UNL     1       5.728   5.285  17.266  0.00  0.00    +0.000 A 
ATOM     11  C   UNL     1       6.545   6.237  16.627  0.00  0.00    +0.000 A 
ATOM     12  C   UNL     1       7.582   6.853  17.326  0.00  0.00    +0.000 A 
ATOM     13  C   UNL     1       7.808   6.516  18.656  0.00  0.00    +0.000 A 
ATOM     14  C   UNL     1       6.998   5.562  19.280  0.00  0.00    +0.000 A 
ATOM     15  C   UNL     1       5.951   4.936  18.612  0.00  0.00    +0.000 A 
ATOM     16  N   UNL     1       5.188   4.035  19.264  0.00  0.00    +0.000 NA
ENDBRANCH   6   7
ENDBRANCH   5   6
ENDBRANCH   2   5
BRANCH   3  17
ATOM     17  C   UNL     1       1.769   6.627  20.815  0.00  0.00    +0.000 C 
BRANCH  17  18
ATOM     18  C   UNL     1       2.141   7.443  19.562  0.00  0.00    +0.000 C 
ATOM     19  O   UNL     1       2.996   7.019  18.781  0.00  0.00    +0.000 OA
ATOM     20  N   UNL     1       1.464   8.640  19.351  0.00  0.00    +0.000 N 
ATOM     21  C   UNL     1       0.474   9.174  20.292  0.00  0.00    +0.000 C 
ATOM     22  C   UNL     1      -0.367  10.329  19.746  0.00  0.00    +0.000 C 
ATOM     23  C   UNL     1       0.545  11.387  19.189  0.00  0.00    +0.000 A 
ATOM     24  C   UNL     1       0.282  12.750  19.348  0.00  0.00    +0.000 A 
ATOM     25  C   UNL     1       1.159  13.692  18.811  0.00  0.00    +0.000 A 
ATOM     26  C   UNL     1       2.287  13.277  18.105  0.00  0.00    +0.000 A 
ATOM     27  C   UNL     1       2.542  11.917  17.927  0.00  0.00    +0.000 A 
ATOM     28  C   UNL     1       1.675  10.962  18.470  0.00  0.00    +0.000 A 
ATOM     29  C   UNL     1       1.886   9.485  18.229  0.00  0.00    +0.000 C 
ENDBRANCH  17  18
ENDBRANCH   3  17
TORSDOF 5
ENDMDL
MODEL 5
REMARK VINA RESULT:      -9.2      1.682      1.819
REMARK  Name = 
REMARK  5 active torsions:
REMARK  status: ('A' for Active; 'I' for Inactive)
REMARK    1  A    between atoms: C_2  and  C_3
REMARK    2  A    between atoms: C_3  and  C_4
REMARK    3  A    between atoms: C_4  and  C_5
REMARK    4  A    between atoms: N_15  and  C_16
REMARK    5  A    between atoms: C_16  and  C_17
REMARK                            x       y       z     vdW  Elec       q    Type
REMARK                         _______ _______ _______ _____ _____    ______ ____
ROOT
ATOM      1  O   UNL     1       8.010   6.939  18.632  0.00  0.00    +0.000 OA
ATOM      2  C   UNL     1       7.728   7.783  17.788  0.00  0.00    +0.000 C 
ATOM      3  N   UNL     1       6.831   7.549  16.773  0.00  0.00    +0.000 N 
ATOM      4  H   UNL     1       6.709   8.236  16.029  0.00  0.00    +0.000 HD
ENDROOT
BRANCH   2   5
ATOM      5  C   UNL     1       8.354   9.166  17.779  0.00  0.00    +0.000 C 
BRANCH   5   6
ATOM      6  C   UNL     1       9.085   9.469  19.086  0.00  0.00    +0.000 C 
BRANCH   6   7
ATOM      7  C   UNL     1       9.654  10.866  19.116  0.00  0.00    +0.000 A 
ATOM      8  C   UNL     1      10.268  11.408  17.992  0.00  0.00    +0.000 A 
ATOM      9  C   UNL     1      10.771  12.703  18.064  0.00  0.00    +0.000 A 
ATOM     10  C   UNL     1      10.641  13.440  19.250  0.00  0.00    +0.000 A 
ATOM     11  C   UNL     1      11.115  14.762  19.357  0.00  0.00    +0.000 A 
ATOM     12  C   UNL     1      10.951  15.472  20.545  0.00  0.00    +0.000 A 
ATOM     13  C   UNL     1      10.319  14.865  21.624  0.00  0.00    +0.000 A 
ATOM     14  C   UNL     1       9.858  13.549  21.512  0.00  0.00    +0.000 A 
ATOM     15  C   UNL     1      10.001  12.817  20.338  0.00  0.00    +0.000 A 
ATOM     16  N   UNL     1       9.524  11.556  20.275  0.00  0.00    +0.000 NA
ENDBRANCH   6   7
ENDBRANCH   5   6
ENDBRANCH   2   5
BRANCH   3  17
ATOM     17  C   UNL     1       6.137   6.285  16.610  0.00  0.00    +0.000 C 
BRANCH  17  18
ATOM     18  C   UNL     1       4.663   6.416  17.041  0.00  0.00    +0.000 C 
ATOM     19  O   UNL     1       4.110   7.518  17.021  0.00  0.00    +0.000 OA
ATOM     20  N   UNL     1       4.001   5.254  17.423  0.00  0.00    +0.000 N 
ATOM     21  C   UNL     1       4.658   3.944  17.488  0.00  0.00    +0.000 C 
ATOM     22  C   UNL     1       3.704   2.758  17.635  0.00  0.00    +0.000 C 
ATOM     23  C   UNL     1       2.774   3.008  18.789  0.00  0.00    +0.000 A 
ATOM     24  C   UNL     1       2.385   1.988  19.661  0.00  0.00    +0.000 A 
ATOM     25  C   UNL     1       1.519   2.271  20.717  0.00  0.00    +0.000 A 
ATOM     26  C   UNL     1       1.032   3.564  20.896  0.00  0.00    +0.000 A 
ATOM     27  C   UNL     1       1.402   4.581  20.015  0.00  0.00    +0.000 A 
ATOM     28  C   UNL     1       2.278   4.312  18.958  0.00  0.00    +0.000 A 
ATOM     29  C   UNL     1       2.636   5.376  17.946  0.00  0.00    +0.000 C 
ENDBRANCH  17  18
ENDBRANCH   3  17
TORSDOF 5
ENDMDL
MODEL 6
REMARK VINA RESULT:      -9.0      1.191      1.708
REMARK  Name = 
REMARK  5 active torsions:
REMARK  status: ('A' for Active; 'I' for Inactive)
REMARK    1  A    between atoms: C_2  and  C_3
REMARK    2  A    between atoms: C_3  and  C_4
REMARK    3  A    between atoms: C_4  and  C_5
REMARK    4  A    between atoms: N_15  and  C_16
REMARK    5  A    between atoms: C_16  and  C_17
REMARK                            x       y       z     vdW  Elec       q    Type
REMARK                         _______ _______ _______ _____ _____    ______ ____
ROOT
ATOM      1  O   UNL     1       8.773   7.557  18.968  0.00  0.00    +0.000 OA
ATOM      2  C   UNL     1       8.095   8.084  18.093  0.00  0.00    +0.000 C 
ATOM      3  N   UNL     1       7.258   7.369  17.269  0.00  0.00    +0.000 N 
ATOM      4  H   UNL     1       6.798   7.828  16.483  0.00  0.00    +0.000 HD
ENDROOT
BRANCH   2   5
ATOM      5  C   UNL     1       8.124   9.578  17.830  0.00  0.00    +0.000 C 
BRANCH   5   6
ATOM      6  C   UNL     1       8.897  10.332  18.911  0.00  0.00    +0.000 C 
BRANCH   6   7
ATOM      7  C   UNL     1       9.555  11.582  18.381  0.00  0.00    +0.000 A 
ATOM      8  C   UNL     1      10.793  11.523  17.751  0.00  0.00    +0.000 A 
ATOM      9  C   UNL     1      11.358  12.700  17.271  0.00  0.00    +0.000 A 
ATOM     10  C   UNL     1      10.670  13.914  17.413  0.00  0.00    +0.000 A 
ATOM     11  C   UNL     1      11.195  15.125  16.921  0.00  0.00    +0.000 A 
ATOM     12  C   UNL     1      10.475  16.310  17.062  0.00  0.00    +0.000 A 
ATOM     13  C   UNL     1       9.238  16.289  17.697  0.00  0.00    +0.000 A 
ATOM     14  C   UNL     1       8.728  15.083  18.190  0.00  0.00    +0.000 A 
ATOM     15  C   UNL     1       9.419  13.884  18.058  0.00  0.00    +0.000 A 
ATOM     16  N   UNL     1       8.876  12.745  18.537  0.00  0.00    +0.000 NA
ENDBRANCH   6   7
ENDBRANCH   5   6
ENDBRANCH   2   5
BRANCH   3  17
ATOM     17  C   UNL     1       7.102   5.929  17.361  0.00  0.00    +0.000 C 
BRANCH  17  18
ATOM     18  C   UNL     1       6.394   5.544  18.675  0.00  0.00    +0.000 C 
ATOM     19  O   UNL     1       7.047   5.415  19.713  0.00  0.00    +0.000 OA
ATOM     20  N   UNL     1       5.014   5.377  18.634  0.00  0.00    +0.000 N 
ATOM     21  C   UNL     1       4.231   5.489  17.398  0.00  0.00    +0.000 C 
ATOM     22  C   UNL     1       2.718   5.570  17.607  0.00  0.00    +0.000 C 
ATOM     23  C   UNL     1       2.275   4.431  18.481  0.00  0.00    +0.000 A 
ATOM     24  C   UNL     1       1.078   3.746  18.256  0.00  0.00    +0.000 A 
ATOM     25  C   UNL     1       0.711   2.696  19.097  0.00  0.00    +0.000 A 
ATOM     26  C   UNL     1       1.529   2.337  20.168  0.00  0.00    +0.000 A 
ATOM     27  C   UNL     1       2.715   3.032  20.408  0.00  0.00    +0.000 A 
ATOM     28  C   UNL     1       3.098   4.081  19.565  0.00  0.00    +0.000 A 
ATOM     29  C   UNL     1       4.339   4.898  19.845  0.00  0.00    +0.000 C 
ENDBRANCH  17  18
ENDBRANCH   3  17
TORSDOF 5
ENDMDL
MODEL 7
REMARK VINA RESULT:      -8.9      2.135      2.799
REMARK  Name = 
REMARK  5 active torsions:
REMARK  status: ('A' for Active; 'I' for Inactive)
REMARK    1  A    between atoms: C_2  and  C_3
REMARK    2  A    between atoms: C_3  and  C_4
REMARK    3  A    between atoms: C_4  and  C_5
REMARK    4  A    between atoms: N_15  and  C_16
REMARK    5  A    between atoms: C_16  and  C_17
REMARK                            x       y       z     vdW  Elec       q    Type
REMARK                         _______ _______ _______ _____ _____    ______ ____
ROOT
ATOM      1  O   UNL     1       6.387   8.028  16.951  0.00  0.00    +0.000 OA
ATOM      2  C   UNL     1       7.460   8.075  17.543  0.00  0.00    +0.000 C 
ATOM      3  N   UNL     1       8.076   6.958  18.055  0.00  0.00    +0.000 N 
ATOM      4  H   UNL     1       8.908   7.053  18.636  0.00  0.00    +0.000 HD
ENDROOT
BRANCH   2   5
ATOM      5  C   UNL     1       8.206   9.376  17.774  0.00  0.00    +0.000 C 
BRANCH   5   6
ATOM      6  C   UNL     1       9.021   9.344  19.066  0.00  0.00    +0.000 C 
BRANCH   6   7
ATOM      7  C   UNL     1       9.532  10.708  19.458  0.00  0.00    +0.000 A 
ATOM      8  C   UNL     1      10.453  11.379  18.662  0.00  0.00    +0.000 A 
ATOM      9  C   UNL     1      10.889  12.640  19.059  0.00  0.00    +0.000 A 
ATOM     10  C   UNL     1      10.387  13.215  20.235  0.00  0.00    +0.000 A 
ATOM     11  C   UNL     1      10.784  14.497  20.660  0.00  0.00    +0.000 A 
ATOM     12  C   UNL     1      10.249  15.047  21.824  0.00  0.00    +0.000 A 
ATOM     13  C   UNL     1       9.325  14.319  22.564  0.00  0.00    +0.000 A 
ATOM     14  C   UNL     1       8.943  13.042  22.139  0.00  0.00    +0.000 A 
ATOM     15  C   UNL     1       9.453  12.470  20.979  0.00  0.00    +0.000 A 
ATOM     16  N   UNL     1       9.039  11.242  20.603  0.00  0.00    +0.000 NA
ENDBRANCH   6   7
ENDBRANCH   5   6
ENDBRANCH   2   5
BRANCH   3  17
ATOM     17  C   UNL     1       7.512   5.625  17.942  0.00  0.00    +0.000 C 
BRANCH  17  18
ATOM     18  C   UNL     1       6.602   5.318  19.147  0.00  0.00    +0.000 C 
ATOM     19  O   UNL     1       7.085   5.224  20.278  0.00  0.00    +0.000 OA
ATOM     20  N   UNL     1       5.240   5.178  18.902  0.00  0.00    +0.000 N 
ATOM     21  C   UNL     1       4.658   5.249  17.557  0.00  0.00    +0.000 C 
ATOM     22  C   UNL     1       3.134   5.372  17.527  0.00  0.00    +0.000 C 
ATOM     23  C   UNL     1       2.531   4.284  18.371  0.00  0.00    +0.000 A 
ATOM     24  C   UNL     1       1.363   3.615  17.995  0.00  0.00    +0.000 A 
ATOM     25  C   UNL     1       0.843   2.614  18.815  0.00  0.00    +0.000 A 
ATOM     26  C   UNL     1       1.477   2.290  20.013  0.00  0.00    +0.000 A 
ATOM     27  C   UNL     1       2.632   2.970  20.402  0.00  0.00    +0.000 A 
ATOM     28  C   UNL     1       3.169   3.969  19.583  0.00  0.00    +0.000 A 
ATOM     29  C   UNL     1       4.375   4.772  20.015  0.00  0.00    +0.000 C 
ENDBRANCH  17  18
ENDBRANCH   3  17
TORSDOF 5
ENDMDL
MODEL 8
REMARK VINA RESULT:      -8.8      1.867      2.586
REMARK  Name = 
REMARK  5 active torsions:
REMARK  status: ('A' for Active; 'I' for Inactive)
REMARK    1  A    between atoms: C_2  and  C_3
REMARK    2  A    between atoms: C_3  and  C_4
REMARK    3  A    between atoms: C_4  and  C_5
REMARK    4  A    between atoms: N_15  and  C_16
REMARK    5  A    between atoms: C_16  and  C_17
REMARK                            x       y       z     vdW  Elec       q    Type
REMARK                         _______ _______ _______ _____ _____    ______ ____
ROOT
ATOM      1  O   UNL     1       7.476   8.850  17.144  0.00  0.00    +0.000 OA
ATOM      2  C   UNL     1       8.182   8.596  18.114  0.00  0.00    +0.000 C 
ATOM      3  N   UNL     1       8.286   7.335  18.649  0.00  0.00    +0.000 N 
ATOM      4  H   UNL     1       8.793   7.188  19.521  0.00  0.00    +0.000 HD
ENDROOT
BRANCH   2   5
ATOM      5  C   UNL     1       9.001   9.659  18.824  0.00  0.00    +0.000 C 
BRANCH   5   6
ATOM      6  C   UNL     1       9.148  10.923  17.979  0.00  0.00    +0.000 C 
BRANCH   6   7
ATOM      7  C   UNL     1       9.653  12.096  18.784  0.00  0.00    +0.000 A 
ATOM      8  C   UNL     1       9.575  12.094  20.171  0.00  0.00    +0.000 A 
ATOM      9  C   UNL     1      10.062  13.194  20.871  0.00  0.00    +0.000 A 
ATOM     10  C   UNL     1      10.632  14.270  20.176  0.00  0.00    +0.000 A 
ATOM     11  C   UNL     1      11.157  15.391  20.846  0.00  0.00    +0.000 A 
ATOM     12  C   UNL     1      11.734  16.433  20.123  0.00  0.00    +0.000 A 
ATOM     13  C   UNL     1      11.784  16.360  18.736  0.00  0.00    +0.000 A 
ATOM     14  C   UNL     1      11.252  15.247  18.077  0.00  0.00    +0.000 A 
ATOM     15  C   UNL     1      10.676  14.188  18.770  0.00  0.00    +0.000 A 
ATOM     16  N   UNL     1      10.192  13.128  18.089  0.00  0.00    +0.000 NA
ENDBRANCH   6   7
ENDBRANCH   5   6
ENDBRANCH   2   5
BRANCH   3  17
ATOM     17  C   UNL     1       7.571   6.189  18.114  0.00  0.00    +0.000 C 
BRANCH  17  18
ATOM     18  C   UNL     1       6.728   5.515  19.213  0.00  0.00    +0.000 C 
ATOM     19  O   UNL     1       7.268   5.109  20.244  0.00  0.00    +0.000 OA
ATOM     20  N   UNL     1       5.358   5.412  18.997  0.00  0.00    +0.000 N 
ATOM     21  C   UNL     1       4.708   5.855  17.758  0.00  0.00    +0.000 C 
ATOM     22  C   UNL     1       3.183   5.934  17.831  0.00  0.00    +0.000 C 
ATOM     23  C   UNL     1       2.641   4.629  18.344  0.00  0.00    +0.000 A 
ATOM     24  C   UNL     1       1.468   4.064  17.839  0.00  0.00    +0.000 A 
ATOM     25  C   UNL     1       1.006   2.851  18.349  0.00  0.00    +0.000 A 
ATOM     26  C   UNL     1       1.705   2.210  19.370  0.00  0.00    +0.000 A 
ATOM     27  C   UNL     1       2.866   2.781  19.892  0.00  0.00    +0.000 A 
ATOM     28  C   UNL     1       3.344   3.992  19.381  0.00  0.00    +0.000 A 
ATOM     29  C   UNL     1       4.557   4.671  19.977  0.00  0.00    +0.000 C 
ENDBRANCH  17  18
ENDBRANCH   3  17
TORSDOF 5
ENDMDL
MODEL 9
REMARK VINA RESULT:      -8.7      1.560      2.236
REMARK  Name = 
REMARK  5 active torsions:
REMARK  status: ('A' for Active; 'I' for Inactive)
REMARK    1  A    between atoms: C_2  and  C_3
REMARK    2  A    between atoms: C_3  and  C_4
REMARK    3  A    between atoms: C_4  and  C_5
REMARK    4  A    between atoms: N_15  and  C_16
REMARK    5  A    between atoms: C_16  and  C_17
REMARK                            x       y       z     vdW  Elec       q    Type
REMARK                         _______ _______ _______ _____ _____    ______ ____
ROOT
ATOM      1  O   UNL     1       6.364   8.093  16.973  0.00  0.00    +0.000 OA
ATOM      2  C   UNL     1       7.492   8.094  17.456  0.00  0.00    +0.000 C 
ATOM      3  N   UNL     1       8.118   6.948  17.883  0.00  0.00    +0.000 N 
ATOM      4  H   UNL     1       9.006   7.004  18.380  0.00  0.00    +0.000 HD
ENDROOT
BRANCH   2   5
ATOM      5  C   UNL     1       8.299   9.366  17.637  0.00  0.00    +0.000 C 
BRANCH   5   6
ATOM      6  C   UNL     1       8.864   9.485  19.052  0.00  0.00    +0.000 C 
BRANCH   6   7
ATOM      7  C   UNL     1       9.483  10.837  19.311  0.00  0.00    +0.000 A 
ATOM      8  C   UNL     1      10.456  10.998  20.291  0.00  0.00    +0.000 A 
ATOM      9  C   UNL     1      11.005  12.261  20.489  0.00  0.00    +0.000 A 
ATOM     10  C   UNL     1      10.583  13.339  19.696  0.00  0.00    +0.000 A 
ATOM     11  C   UNL     1      11.128  14.628  19.848  0.00  0.00    +0.000 A 
ATOM     12  C   UNL     1      10.700  15.672  19.030  0.00  0.00    +0.000 A 
ATOM     13  C   UNL     1       9.728  15.432  18.066  0.00  0.00    +0.000 A 
ATOM     14  C   UNL     1       9.185  14.150  17.927  0.00  0.00    +0.000 A 
ATOM     15  C   UNL     1       9.597  13.087  18.724  0.00  0.00    +0.000 A 
ATOM     16  N   UNL     1       9.054  11.866  18.539  0.00  0.00    +0.000 NA
ENDBRANCH   6   7
ENDBRANCH   5   6
ENDBRANCH   2   5
BRANCH   3  17
ATOM     17  C   UNL     1       7.503   5.635  17.800  0.00  0.00    +0.000 C 
BRANCH  17  18
ATOM     18  C   UNL     1       6.623   5.370  19.037  0.00  0.00    +0.000 C 
ATOM     19  O   UNL     1       7.133   5.312  20.158  0.00  0.00    +0.000 OA
ATOM     20  N   UNL     1       5.254   5.228  18.831  0.00  0.00    +0.000 N 
ATOM     21  C   UNL     1       4.639   5.256  17.499  0.00  0.00    +0.000 C 
ATOM     22  C   UNL     1       3.115   5.383  17.503  0.00  0.00    +0.000 C 
ATOM     23  C   UNL     1       2.531   4.326  18.398  0.00  0.00    +0.000 A 
ATOM     24  C   UNL     1       1.353   3.649  18.074  0.00  0.00    +0.000 A 
ATOM     25  C   UNL     1       0.850   2.676  18.939  0.00  0.00    +0.000 A 
ATOM     26  C   UNL     1       1.514   2.389  20.130  0.00  0.00    +0.000 A 
ATOM     27  C   UNL     1       2.680   3.078  20.468  0.00  0.00    +0.000 A 
ATOM     28  C   UNL     1       3.198   4.048  19.603  0.00  0.00    +0.000 A 
ATOM     29  C   UNL     1       4.417   4.861  19.978  0.00  0.00    +0.000 C 
ENDBRANCH  17  18
ENDBRANCH   3  17
TORSDOF 5
ENDMDL
