MODEL 1
REMARK VINA RESULT:      -8.9      0.000      0.000
REMARK  Name = 
REMARK  5 active torsions:
REMARK  status: ('A' for Active; 'I' for Inactive)
REMARK    1  A    between atoms: C_1  and  C_2
REMARK    2  A    between atoms: N_4  and  C_5
REMARK    3  A    between atoms: C_5  and  C_6
REMARK    4  A    between atoms: C_9  and  C_10
REMARK    5  A    between atoms: C_10  and  C_11
REMARK                            x       y       z     vdW  Elec       q    Type
REMARK                         _______ _______ _______ _____ _____    ______ ____
ROOT
ATOM      1  C   UNL     1       2.582   6.951  19.196  0.00  0.00    +0.000 A 
ATOM      2  N   UNL     1       2.454   7.820  18.180  0.00  0.00    +0.000 NA
ATOM      3  O   UNL     1       1.643   8.827  18.710  0.00  0.00    +0.000 OA
ATOM      4  C   UNL     1       1.382   8.481  20.008  0.00  0.00    +0.000 A 
ATOM      5  N   UNL     1       1.977   7.364  20.363  0.00  0.00    +0.000 NA
ENDROOT
BRANCH   1   6
ATOM      6  C   UNL     1       3.322   5.614  19.075  0.00  0.00    +0.000 C 
ATOM      7  C   UNL     1       2.930   4.695  20.268  0.00  0.00    +0.000 C 
ATOM      8  C   UNL     1       1.471   4.238  20.211  0.00  0.00    +0.000 C 
ATOM      9  C   UNL     1       1.156   3.552  18.888  0.00  0.00    +0.000 C 
ATOM     10  C   UNL     1       1.505   4.428  17.690  0.00  0.00    +0.000 C 
ATOM     11  C   UNL     1       2.956   4.909  17.738  0.00  0.00    +0.000 C 
BRANCH   6  15
ATOM     12  C   UNL     1       7.155   5.532  19.173  0.00  0.00    +0.000 C 
ATOM     13  C   UNL     1       5.762   4.967  19.181  0.00  0.00    +0.000 C 
ATOM     14  O   UNL     1       5.563   3.758  19.249  0.00  0.00    +0.000 OA
ATOM     15  N   UNL     1       4.772   5.921  19.116  0.00  0.00    +0.000 N 
ATOM     16  H   UNL     1       5.042   6.878  18.917  0.00  0.00    +0.000 HD
ENDBRANCH   6  15
ENDBRANCH   1   6
BRANCH   4  17
ATOM     17  C   UNL     1       0.552   9.350  20.970  0.00  0.00    +0.000 C 
ATOM     18  C   UNL     1       1.199   9.528  22.387  0.00  0.00    +0.000 C 
ATOM     19  C   UNL     1      -0.210   9.312  22.979  0.00  0.00    +0.000 C 
ATOM     20  C   UNL     1      -0.567   8.533  21.697  0.00  0.00    +0.000 C 
BRANCH  17  21
ATOM     21  C   UNL     1       0.193  10.717  20.178  0.00  0.00    +0.000 A 
ATOM     22  C   UNL     1       0.967  11.886  20.393  0.00  0.00    +0.000 A 
ATOM     23  C   UNL     1       0.767  13.060  19.662  0.00  0.00    +0.000 A 
ATOM     24  C   UNL     1      -0.234  13.101  18.706  0.00  0.00    +0.000 A 
ATOM     25  F   UNL     1      -0.413  14.214  17.983  0.00  0.00    +0.000 F 
ATOM     26  C   UNL     1      -1.043  12.001  18.482  0.00  0.00    +0.000 A 
ATOM     27  C   UNL     1      -0.821  10.834  19.210  0.00  0.00    +0.000 A 
ATOM     28  F   UNL     1      -1.612   9.787  18.942  0.00  0.00    +0.000 F 
ENDBRANCH  17  21
ENDBRANCH   4  17
TORSDOF 4
ENDMDL
MODEL 2
REMARK VINA RESULT:      -8.4      0.922      1.310
REMARK  Name = 
REMARK  5 active torsions:
REMARK  status: ('A' for Active; 'I' for Inactive)
REMARK    1  A    between atoms: C_1  and  C_2
REMARK    2  A    between atoms: N_4  and  C_5
REMARK    3  A    between atoms: C_5  and  C_6
REMARK    4  A    between atoms: C_9  and  C_10
REMARK    5  A    between atoms: C_10  and  C_11
REMARK                            x       y       z     vdW  Elec       q    Type
REMARK                         _______ _______ _______ _____ _____    ______ ____
ROOT
ATOM      1  C   UNL     1       2.578   6.949  19.190  0.00  0.00    +0.000 A 
ATOM      2  N   UNL     1       2.452   7.783  18.145  0.00  0.00    +0.000 NA
ATOM      3  O   UNL     1       1.644   8.809  18.640  0.00  0.00    +0.000 OA
ATOM      4  C   UNL     1       1.382   8.509  19.949  0.00  0.00    +0.000 A 
ATOM      5  N   UNL     1       1.974   7.403  20.342  0.00  0.00    +0.000 NA
ENDROOT
BRANCH   1   6
ATOM      6  C   UNL     1       3.314   5.606  19.114  0.00  0.00    +0.000 C 
ATOM      7  C   UNL     1       2.884   4.711  20.312  0.00  0.00    +0.000 C 
ATOM      8  C   UNL     1       1.425   4.260  20.222  0.00  0.00    +0.000 C 
ATOM      9  C   UNL     1       1.144   3.551  18.903  0.00  0.00    +0.000 C 
ATOM     10  C   UNL     1       1.532   4.403  17.700  0.00  0.00    +0.000 C 
ATOM     11  C   UNL     1       2.983   4.879  17.781  0.00  0.00    +0.000 C 
BRANCH   6  15
ATOM     12  C   UNL     1       7.146   5.511  19.244  0.00  0.00    +0.000 C 
ATOM     13  C   UNL     1       5.753   4.950  19.198  0.00  0.00    +0.000 C 
ATOM     14  O   UNL     1       5.552   3.739  19.176  0.00  0.00    +0.000 OA
ATOM     15  N   UNL     1       4.764   5.907  19.192  0.00  0.00    +0.000 N 
ATOM     16  H   UNL     1       5.037   6.876  19.063  0.00  0.00    +0.000 HD
ENDBRANCH   6  15
ENDBRANCH   1   6
BRANCH   4  17
ATOM     17  C   UNL     1       0.555   9.413  20.881  0.00  0.00    +0.000 C 
ATOM     18  C   UNL     1       1.158   9.566  22.320  0.00  0.00    +0.000 C 
ATOM     19  C   UNL     1      -0.278   9.409  22.862  0.00  0.00    +0.000 C 
ATOM     20  C   UNL     1      -0.621   8.643  21.568  0.00  0.00    +0.000 C 
BRANCH  17  21
ATOM     21  C   UNL     1       0.280  10.791  20.077  0.00  0.00    +0.000 A 
ATOM     22  C   UNL     1      -0.860  10.911  19.242  0.00  0.00    +0.000 A 
ATOM     23  C   UNL     1      -1.200  12.110  18.608  0.00  0.00    +0.000 A 
ATOM     24  C   UNL     1      -0.390  13.220  18.777  0.00  0.00    +0.000 A 
ATOM     25  F   UNL     1      -0.725  14.378  18.195  0.00  0.00    +0.000 F 
ATOM     26  C   UNL     1       0.756  13.147  19.551  0.00  0.00    +0.000 A 
ATOM     27  C   UNL     1       1.073  11.949  20.187  0.00  0.00    +0.000 A 
ATOM     28  F   UNL     1       2.177  11.932  20.945  0.00  0.00    +0.000 F 
ENDBRANCH  17  21
ENDBRANCH   4  17
TORSDOF 4
ENDMDL
MODEL 3
REMARK VINA RESULT:      -8.2      1.184      1.782
REMARK  Name = 
REMARK  5 active torsions:
REMARK  status: ('A' for Active; 'I' for Inactive)
REMARK    1  A    between atoms: C_1  and  C_2
REMARK    2  A    between atoms: N_4  and  C_5
REMARK    3  A    between atoms: C_5  and  C_6
REMARK    4  A    between atoms: C_9  and  C_10
REMARK    5  A    between atoms: C_10  and  C_11
REMARK                            x       y       z     vdW  Elec       q    Type
REMARK                         _______ _______ _______ _____ _____    ______ ____
ROOT
ATOM      1  C   UNL     1       2.635   7.073  18.983  0.00  0.00    +0.000 A 
ATOM      2  N   UNL     1       2.711   7.925  17.947  0.00  0.00    +0.000 NA
ATOM      3  O   UNL     1       1.832   8.951  18.300  0.00  0.00    +0.000 OA
ATOM      4  C   UNL     1       1.329   8.633  19.532  0.00  0.00    +0.000 A 
ATOM      5  N   UNL     1       1.830   7.516  20.010  0.00  0.00    +0.000 NA
ENDROOT
BRANCH   1   6
ATOM      6  C   UNL     1       3.364   5.725  19.023  0.00  0.00    +0.000 C 
ATOM      7  C   UNL     1       2.923   4.936  20.289  0.00  0.00    +0.000 C 
ATOM      8  C   UNL     1       1.462   4.486  20.231  0.00  0.00    +0.000 C 
ATOM      9  C   UNL     1       1.182   3.672  18.974  0.00  0.00    +0.000 C 
ATOM     10  C   UNL     1       1.579   4.418  17.706  0.00  0.00    +0.000 C 
ATOM     11  C   UNL     1       3.034   4.891  17.753  0.00  0.00    +0.000 C 
BRANCH   6  15
ATOM     12  C   UNL     1       7.193   5.620  19.194  0.00  0.00    +0.000 C 
ATOM     13  C   UNL     1       5.796   5.065  19.194  0.00  0.00    +0.000 C 
ATOM     14  O   UNL     1       5.588   3.860  19.294  0.00  0.00    +0.000 OA
ATOM     15  N   UNL     1       4.814   6.023  19.081  0.00  0.00    +0.000 N 
ATOM     16  H   UNL     1       5.096   6.972  18.857  0.00  0.00    +0.000 HD
ENDBRANCH   6  15
ENDBRANCH   1   6
BRANCH   4  17
ATOM     17  C   UNL     1       0.349   9.531  20.309  0.00  0.00    +0.000 C 
ATOM     18  C   UNL     1       1.045  10.519  21.309  0.00  0.00    +0.000 C 
ATOM     19  C   UNL     1      -0.062  10.160  22.323  0.00  0.00    +0.000 C 
ATOM     20  C   UNL     1      -0.232   8.821  21.577  0.00  0.00    +0.000 C 
BRANCH  17  21
ATOM     21  C   UNL     1      -0.637  10.206  19.217  0.00  0.00    +0.000 A 
ATOM     22  C   UNL     1      -1.684   9.443  18.638  0.00  0.00    +0.000 A 
ATOM     23  C   UNL     1      -2.625  10.004  17.770  0.00  0.00    +0.000 A 
ATOM     24  C   UNL     1      -2.529  11.345  17.440  0.00  0.00    +0.000 A 
ATOM     25  F   UNL     1      -3.444  11.895  16.631  0.00  0.00    +0.000 F 
ATOM     26  C   UNL     1      -1.506  12.126  17.947  0.00  0.00    +0.000 A 
ATOM     27  C   UNL     1      -0.583  11.556  18.822  0.00  0.00    +0.000 A 
ATOM     28  F   UNL     1       0.375  12.355  19.307  0.00  0.00    +0.000 F 
ENDBRANCH  17  21
ENDBRANCH   4  17
TORSDOF 4
ENDMDL
MODEL 4
REMARK VINA RESULT:      -8.2      2.572      4.571
REMARK  Name = 
REMARK  5 active torsions:
REMARK  status: ('A' for Active; 'I' for Inactive)
REMARK    1  A    between atoms: C_1  and  C_2
REMARK    2  A    between atoms: N_4  and  C_5
REMARK    3  A    between atoms: C_5  and  C_6
REMARK    4  A    between atoms: C_9  and  C_10
REMARK    5  A    between atoms: C_10  and  C_11
REMARK                            x       y       z     vdW  Elec       q    Type
REMARK                         _______ _______ _______ _____ _____    ______ ____
ROOT
ATOM      1  C   UNL     1       5.466   5.906  17.935  0.00  0.00    +0.000 A 
ATOM      2  N   UNL     1       5.996   5.435  19.076  0.00  0.00    +0.000 NA
ATOM      3  O   UNL     1       4.887   5.267  19.907  0.00  0.00    +0.000 OA
ATOM      4  C   UNL     1       3.787   5.627  19.178  0.00  0.00    +0.000 A 
ATOM      5  N   UNL     1       4.090   5.979  17.948  0.00  0.00    +0.000 NA
ENDROOT
BRANCH   1   6
ATOM      6  C   UNL     1       6.307   6.337  16.728  0.00  0.00    +0.000 C 
ATOM      7  C   UNL     1       7.487   5.341  16.536  0.00  0.00    +0.000 C 
ATOM      8  C   UNL     1       7.024   3.950  16.099  0.00  0.00    +0.000 C 
ATOM      9  C   UNL     1       6.178   4.019  14.834  0.00  0.00    +0.000 C 
ATOM     10  C   UNL     1       4.996   4.969  14.986  0.00  0.00    +0.000 C 
ATOM     11  C   UNL     1       5.437   6.362  15.440  0.00  0.00    +0.000 C 
BRANCH   6  15
ATOM     12  C   UNL     1       8.204   9.410  18.019  0.00  0.00    +0.000 C 
ATOM     13  C   UNL     1       7.836   7.956  17.921  0.00  0.00    +0.000 C 
ATOM     14  O   UNL     1       8.406   7.106  18.599  0.00  0.00    +0.000 OA
ATOM     15  N   UNL     1       6.823   7.694  17.027  0.00  0.00    +0.000 N 
ATOM     16  H   UNL     1       6.521   8.444  16.413  0.00  0.00    +0.000 HD
ENDBRANCH   6  15
ENDBRANCH   1   6
BRANCH   4  17
ATOM     17  C   UNL     1       2.346   5.546  19.713  0.00  0.00    +0.000 C 
ATOM     18  C   UNL     1       2.183   4.617  20.966  0.00  0.00    +0.000 C 
ATOM     19  C   UNL     1       0.893   4.079  20.311  0.00  0.00    +0.000 C 
ATOM     20  C   UNL     1       1.484   4.489  18.946  0.00  0.00    +0.000 C 
BRANCH  17  21
ATOM     21  C   UNL     1       1.823   7.068  19.886  0.00  0.00    +0.000 A 
ATOM     22  C   UNL     1       1.548   7.582  21.180  0.00  0.00    +0.000 A 
ATOM     23  C   UNL     1       1.195   8.917  21.395  0.00  0.00    +0.000 A 
ATOM     24  C   UNL     1       1.085   9.772  20.311  0.00  0.00    +0.000 A 
ATOM     25  F   UNL     1       0.774  11.059  20.513  0.00  0.00    +0.000 F 
ATOM     26  C   UNL     1       1.306   9.314  19.024  0.00  0.00    +0.000 A 
ATOM     27  C   UNL     1       1.671   7.984  18.828  0.00  0.00    +0.000 A 
ATOM     28  F   UNL     1       1.898   7.592  17.568  0.00  0.00    +0.000 F 
ENDBRANCH  17  21
ENDBRANCH   4  17
TORSDOF 4
ENDMDL
MODEL 5
REMARK VINA RESULT:      -8.1      3.090      5.443
REMARK  Name = 
REMARK  5 active torsions:
REMARK  status: ('A' for Active; 'I' for Inactive)
REMARK    1  A    between atoms: C_1  and  C_2
REMARK    2  A    between atoms: N_4  and  C_5
REMARK    3  A    between atoms: C_5  and  C_6
REMARK    4  A    between atoms: C_9  and  C_10
REMARK    5  A    between atoms: C_10  and  C_11
REMARK                            x       y       z     vdW  Elec       q    Type
REMARK                         _______ _______ _______ _____ _____    ______ ____
ROOT
ATOM      1  C   UNL     1       4.887   4.238  16.891  0.00  0.00    +0.000 A 
ATOM      2  N   UNL     1       4.516   2.947  16.909  0.00  0.00    +0.000 NA
ATOM      3  O   UNL     1       3.499   2.911  17.865  0.00  0.00    +0.000 OA
ATOM      4  C   UNL     1       3.335   4.193  18.315  0.00  0.00    +0.000 A 
ATOM      5  N   UNL     1       4.132   5.047  17.711  0.00  0.00    +0.000 NA
ENDROOT
BRANCH   1   6
ATOM      6  C   UNL     1       6.053   4.769  16.049  0.00  0.00    +0.000 C 
ATOM      7  C   UNL     1       5.916   6.311  15.889  0.00  0.00    +0.000 C 
ATOM      8  C   UNL     1       6.126   7.065  17.204  0.00  0.00    +0.000 C 
ATOM      9  C   UNL     1       7.468   6.714  17.836  0.00  0.00    +0.000 C 
ATOM     10  C   UNL     1       7.635   5.212  18.031  0.00  0.00    +0.000 C 
ATOM     11  C   UNL     1       7.411   4.439  16.730  0.00  0.00    +0.000 C 
BRANCH   6  15
ATOM     12  C   UNL     1       6.483   3.596  12.423  0.00  0.00    +0.000 C 
ATOM     13  C   UNL     1       6.735   4.444  13.638  0.00  0.00    +0.000 C 
ATOM     14  O   UNL     1       7.557   5.355  13.622  0.00  0.00    +0.000 OA
ATOM     15  N   UNL     1       5.964   4.105  14.727  0.00  0.00    +0.000 N 
ATOM     16  H   UNL     1       5.423   3.247  14.681  0.00  0.00    +0.000 HD
ENDBRANCH   6  15
ENDBRANCH   1   6
BRANCH   4  17
ATOM     17  C   UNL     1       2.275   4.602  19.354  0.00  0.00    +0.000 C 
ATOM     18  C   UNL     1       2.533   4.024  20.789  0.00  0.00    +0.000 C 
ATOM     19  C   UNL     1       1.021   3.719  20.861  0.00  0.00    +0.000 C 
ATOM     20  C   UNL     1       1.017   3.673  19.319  0.00  0.00    +0.000 C 
BRANCH  17  21
ATOM     21  C   UNL     1       2.117   6.210  19.256  0.00  0.00    +0.000 A 
ATOM     22  C   UNL     1       2.275   6.865  18.007  0.00  0.00    +0.000 A 
ATOM     23  C   UNL     1       2.047   8.234  17.846  0.00  0.00    +0.000 A 
ATOM     24  C   UNL     1       1.675   8.993  18.943  0.00  0.00    +0.000 A 
ATOM     25  F   UNL     1       1.429  10.300  18.790  0.00  0.00    +0.000 F 
ATOM     26  C   UNL     1       1.542   8.412  20.192  0.00  0.00    +0.000 A 
ATOM     27  C   UNL     1       1.759   7.043  20.333  0.00  0.00    +0.000 A 
ATOM     28  F   UNL     1       1.596   6.520  21.555  0.00  0.00    +0.000 F 
ENDBRANCH  17  21
ENDBRANCH   4  17
TORSDOF 4
ENDMDL
MODEL 6
REMARK VINA RESULT:      -7.9      2.623      4.535
REMARK  Name = 
REMARK  5 active torsions:
REMARK  status: ('A' for Active; 'I' for Inactive)
REMARK    1  A    between atoms: C_1  and  C_2
REMARK    2  A    between atoms: N_4  and  C_5
REMARK    3  A    between atoms: C_5  and  C_6
REMARK    4  A    between atoms: C_9  and  C_10
REMARK    5  A    between atoms: C_10  and  C_11
REMARK                            x       y       z     vdW  Elec       q    Type
REMARK                         _______ _______ _______ _____ _____    ______ ____
ROOT
ATOM      1  C   UNL     1       5.514   5.848  17.771  0.00  0.00    +0.000 A 
ATOM      2  N   UNL     1       5.980   5.192  18.846  0.00  0.00    +0.000 NA
ATOM      3  O   UNL     1       4.866   5.100  19.683  0.00  0.00    +0.000 OA
ATOM      4  C   UNL     1       3.824   5.686  19.018  0.00  0.00    +0.000 A 
ATOM      5  N   UNL     1       4.163   6.116  17.823  0.00  0.00    +0.000 NA
ENDROOT
BRANCH   1   6
ATOM      6  C   UNL     1       6.398   6.276  16.594  0.00  0.00    +0.000 C 
ATOM      7  C   UNL     1       7.557   5.253  16.418  0.00  0.00    +0.000 C 
ATOM      8  C   UNL     1       7.071   3.881  15.946  0.00  0.00    +0.000 C 
ATOM      9  C   UNL     1       6.261   3.991  14.660  0.00  0.00    +0.000 C 
ATOM     10  C   UNL     1       5.100   4.969  14.796  0.00  0.00    +0.000 C 
ATOM     11  C   UNL     1       5.565   6.343  15.284  0.00  0.00    +0.000 C 
BRANCH   6  15
ATOM     12  C   UNL     1       8.288   9.286  18.036  0.00  0.00    +0.000 C 
ATOM     13  C   UNL     1       7.869   7.847  17.917  0.00  0.00    +0.000 C 
ATOM     14  O   UNL     1       8.330   6.985  18.659  0.00  0.00    +0.000 OA
ATOM     15  N   UNL     1       6.940   7.614  16.929  0.00  0.00    +0.000 N 
ATOM     16  H   UNL     1       6.735   8.367  16.279  0.00  0.00    +0.000 HD
ENDBRANCH   6  15
ENDBRANCH   1   6
BRANCH   4  17
ATOM     17  C   UNL     1       2.391   5.758  19.576  0.00  0.00    +0.000 C 
ATOM     18  C   UNL     1       2.220   5.083  20.982  0.00  0.00    +0.000 C 
ATOM     19  C   UNL     1       0.901   4.480  20.454  0.00  0.00    +0.000 C 
ATOM     20  C   UNL     1       1.480   4.609  19.030  0.00  0.00    +0.000 C 
BRANCH  17  21
ATOM     21  C   UNL     1       1.922   7.304  19.470  0.00  0.00    +0.000 A 
ATOM     22  C   UNL     1       1.922   7.961  18.213  0.00  0.00    +0.000 A 
ATOM     23  C   UNL     1       1.430   9.259  18.048  0.00  0.00    +0.000 A 
ATOM     24  C   UNL     1       0.943   9.944  19.148  0.00  0.00    +0.000 A 
ATOM     25  F   UNL     1       0.445  11.178  18.992  0.00  0.00    +0.000 F 
ATOM     26  C   UNL     1       0.953   9.364  20.404  0.00  0.00    +0.000 A 
ATOM     27  C   UNL     1       1.434   8.065  20.549  0.00  0.00    +0.000 A 
ATOM     28  F   UNL     1       1.402   7.534  21.779  0.00  0.00    +0.000 F 
ENDBRANCH  17  21
ENDBRANCH   4  17
TORSDOF 4
ENDMDL
MODEL 7
REMARK VINA RESULT:      -7.9      2.853      5.411
REMARK  Name = 
REMARK  5 active torsions:
REMARK  status: ('A' for Active; 'I' for Inactive)
REMARK    1  A    between atoms: C_1  and  C_2
REMARK    2  A    between atoms: N_4  and  C_5
REMARK    3  A    between atoms: C_5  and  C_6
REMARK    4  A    between atoms: C_9  and  C_10
REMARK    5  A    between atoms: C_10  and  C_11
REMARK                            x       y       z     vdW  Elec       q    Type
REMARK                         _______ _______ _______ _____ _____    ______ ____
ROOT
ATOM      1  C   UNL     1       5.327   4.488  17.973  0.00  0.00    +0.000 A 
ATOM      2  N   UNL     1       5.625   3.706  19.024  0.00  0.00    +0.000 NA
ATOM      3  O   UNL     1       4.421   3.628  19.726  0.00  0.00    +0.000 OA
ATOM      4  C   UNL     1       3.502   4.350  19.016  0.00  0.00    +0.000 A 
ATOM      5  N   UNL     1       4.001   4.855  17.909  0.00  0.00    +0.000 NA
ENDROOT
BRANCH   1   6
ATOM      6  C   UNL     1       6.364   4.946  16.941  0.00  0.00    +0.000 C 
ATOM      7  C   UNL     1       6.207   6.474  16.692  0.00  0.00    +0.000 C 
ATOM      8  C   UNL     1       6.599   7.317  17.907  0.00  0.00    +0.000 C 
ATOM      9  C   UNL     1       8.016   6.998  18.370  0.00  0.00    +0.000 C 
ATOM     10  C   UNL     1       8.208   5.511  18.647  0.00  0.00    +0.000 C 
ATOM     11  C   UNL     1       7.804   4.651  17.448  0.00  0.00    +0.000 C 
BRANCH   6  15
ATOM     12  C   UNL     1       6.280   3.519  13.382  0.00  0.00    +0.000 C 
ATOM     13  C   UNL     1       6.698   4.449  14.487  0.00  0.00    +0.000 C 
ATOM     14  O   UNL     1       7.506   5.352  14.289  0.00  0.00    +0.000 OA
ATOM     15  N   UNL     1       6.091   4.192  15.695  0.00  0.00    +0.000 N 
ATOM     16  H   UNL     1       5.553   3.336  15.787  0.00  0.00    +0.000 HD
ENDBRANCH   6  15
ENDBRANCH   1   6
BRANCH   4  17
ATOM     17  C   UNL     1       2.024   4.485  19.425  0.00  0.00    +0.000 C 
ATOM     18  C   UNL     1       1.596   3.529  20.593  0.00  0.00    +0.000 C 
ATOM     19  C   UNL     1       0.301   3.255  19.799  0.00  0.00    +0.000 C 
ATOM     20  C   UNL     1       1.074   3.634  18.519  0.00  0.00    +0.000 C 
BRANCH  17  21
ATOM     21  C   UNL     1       1.744   6.062  19.662  0.00  0.00    +0.000 A 
ATOM     22  C   UNL     1       1.404   6.537  20.955  0.00  0.00    +0.000 A 
ATOM     23  C   UNL     1       1.254   7.898  21.237  0.00  0.00    +0.000 A 
ATOM     24  C   UNL     1       1.419   8.823  20.219  0.00  0.00    +0.000 A 
ATOM     25  F   UNL     1       1.304  10.130  20.488  0.00  0.00    +0.000 F 
ATOM     26  C   UNL     1       1.714   8.412  18.931  0.00  0.00    +0.000 A 
ATOM     27  C   UNL     1       1.874   7.053  18.670  0.00  0.00    +0.000 A 
ATOM     28  F   UNL     1       2.183   6.703  17.415  0.00  0.00    +0.000 F 
ENDBRANCH  17  21
ENDBRANCH   4  17
TORSDOF 4
ENDMDL
MODEL 8
REMARK VINA RESULT:      -7.8      3.782      7.092
REMARK  Name = 
REMARK  5 active torsions:
REMARK  status: ('A' for Active; 'I' for Inactive)
REMARK    1  A    between atoms: C_1  and  C_2
REMARK    2  A    between atoms: N_4  and  C_5
REMARK    3  A    between atoms: C_5  and  C_6
REMARK    4  A    between atoms: C_9  and  C_10
REMARK    5  A    between atoms: C_10  and  C_11
REMARK                            x       y       z     vdW  Elec       q    Type
REMARK                         _______ _______ _______ _____ _____    ______ ____
ROOT
ATOM      1  C   UNL     1       3.730   4.847  19.436  0.00  0.00    +0.000 A 
ATOM      2  N   UNL     1       4.700   4.247  20.144  0.00  0.00    +0.000 NA
ATOM      3  O   UNL     1       5.829   4.381  19.334  0.00  0.00    +0.000 OA
ATOM      4  C   UNL     1       5.438   5.077  18.223  0.00  0.00    +0.000 A 
ATOM      5  N   UNL     1       4.171   5.425  18.265  0.00  0.00    +0.000 NA
ENDROOT
BRANCH   1   6
ATOM      6  C   UNL     1       2.261   4.882  19.875  0.00  0.00    +0.000 C 
ATOM      7  C   UNL     1       1.345   4.893  18.617  0.00  0.00    +0.000 C 
ATOM      8  C   UNL     1       1.394   3.580  17.834  0.00  0.00    +0.000 C 
ATOM      9  C   UNL     1       1.058   2.390  18.725  0.00  0.00    +0.000 C 
ATOM     10  C   UNL     1       1.948   2.328  19.961  0.00  0.00    +0.000 C 
ATOM     11  C   UNL     1       1.925   3.640  20.747  0.00  0.00    +0.000 C 
BRANCH   6  15
ATOM     12  C   UNL     1       1.726   8.475  21.103  0.00  0.00    +0.000 C 
ATOM     13  C   UNL     1       1.939   7.378  20.099  0.00  0.00    +0.000 C 
ATOM     14  O   UNL     1       1.988   7.614  18.895  0.00  0.00    +0.000 OA
ATOM     15  N   UNL     1       2.077   6.127  20.657  0.00  0.00    +0.000 N 
ATOM     16  H   UNL     1       1.875   6.020  21.646  0.00  0.00    +0.000 HD
ENDBRANCH   6  15
ENDBRANCH   1   6
BRANCH   4  17
ATOM     17  C   UNL     1       6.397   5.480  17.089  0.00  0.00    +0.000 C 
ATOM     18  C   UNL     1       5.703   5.633  15.691  0.00  0.00    +0.000 C 
ATOM     19  C   UNL     1       6.916   4.894  15.087  0.00  0.00    +0.000 C 
ATOM     20  C   UNL     1       7.139   4.249  16.470  0.00  0.00    +0.000 C 
BRANCH  17  21
ATOM     21  C   UNL     1       7.229   6.767  17.612  0.00  0.00    +0.000 A 
ATOM     22  C   UNL     1       7.007   8.041  17.029  0.00  0.00    +0.000 A 
ATOM     23  C   UNL     1       7.620   9.201  17.511  0.00  0.00    +0.000 A 
ATOM     24  C   UNL     1       8.494   9.111  18.581  0.00  0.00    +0.000 A 
ATOM     25  F   UNL     1       9.063  10.223  19.065  0.00  0.00    +0.000 F 
ATOM     26  C   UNL     1       8.775   7.888  19.164  0.00  0.00    +0.000 A 
ATOM     27  C   UNL     1       8.145   6.743  18.680  0.00  0.00    +0.000 A 
ATOM     28  F   UNL     1       8.429   5.585  19.290  0.00  0.00    +0.000 F 
ENDBRANCH  17  21
ENDBRANCH   4  17
TORSDOF 4
ENDMDL
MODEL 9
REMARK VINA RESULT:      -7.8      1.035      1.156
REMARK  Name = 
REMARK  5 active torsions:
REMARK  status: ('A' for Active; 'I' for Inactive)
REMARK    1  A    between atoms: C_1  and  C_2
REMARK    2  A    between atoms: N_4  and  C_5
REMARK    3  A    between atoms: C_5  and  C_6
REMARK    4  A    between atoms: C_9  and  C_10
REMARK    5  A    between atoms: C_10  and  C_11
REMARK                            x       y       z     vdW  Elec       q    Type
REMARK                         _______ _______ _______ _____ _____    ______ ____
ROOT
ATOM      1  C   UNL     1       2.535   7.075  18.748  0.00  0.00    +0.000 A 
ATOM      2  N   UNL     1       2.500   8.081  17.859  0.00  0.00    +0.000 NA
ATOM      3  O   UNL     1       1.759   9.069  18.511  0.00  0.00    +0.000 OA
ATOM      4  C   UNL     1       1.440   8.574  19.745  0.00  0.00    +0.000 A 
ATOM      5  N   UNL     1       1.936   7.374  19.953  0.00  0.00    +0.000 NA
ENDROOT
BRANCH   1   6
ATOM      6  C   UNL     1       3.169   5.711  18.455  0.00  0.00    +0.000 C 
ATOM      7  C   UNL     1       3.743   5.112  19.772  0.00  0.00    +0.000 C 
ATOM      8  C   UNL     1       2.652   4.728  20.774  0.00  0.00    +0.000 C 
ATOM      9  C   UNL     1       1.641   3.772  20.153  0.00  0.00    +0.000 C 
ATOM     10  C   UNL     1       1.037   4.329  18.870  0.00  0.00    +0.000 C 
ATOM     11  C   UNL     1       2.114   4.736  17.862  0.00  0.00    +0.000 C 
BRANCH   6  15
ATOM     12  C   UNL     1       5.982   5.442  15.862  0.00  0.00    +0.000 C 
ATOM     13  C   UNL     1       4.947   4.944  16.832  0.00  0.00    +0.000 C 
ATOM     14  O   UNL     1       4.764   3.744  17.010  0.00  0.00    +0.000 OA
ATOM     15  N   UNL     1       4.260   5.946  17.479  0.00  0.00    +0.000 N 
ATOM     16  H   UNL     1       4.385   6.899  17.154  0.00  0.00    +0.000 HD
ENDBRANCH   6  15
ENDBRANCH   1   6
BRANCH   4  17
ATOM     17  C   UNL     1       0.658   9.370  20.806  0.00  0.00    +0.000 C 
ATOM     18  C   UNL     1       1.382   9.464  22.194  0.00  0.00    +0.000 C 
ATOM     19  C   UNL     1       0.010   9.194  22.848  0.00  0.00    +0.000 C 
ATOM     20  C   UNL     1      -0.411   8.495  21.540  0.00  0.00    +0.000 C 
BRANCH  17  21
ATOM     21  C   UNL     1       0.245  10.780  20.125  0.00  0.00    +0.000 A 
ATOM     22  C   UNL     1       0.999  11.950  20.401  0.00  0.00    +0.000 A 
ATOM     23  C   UNL     1       0.750  13.167  19.762  0.00  0.00    +0.000 A 
ATOM     24  C   UNL     1      -0.282  13.251  18.841  0.00  0.00    +0.000 A 
ATOM     25  F   UNL     1      -0.508  14.408  18.205  0.00  0.00    +0.000 F 
ATOM     26  C   UNL     1      -1.072  12.150  18.563  0.00  0.00    +0.000 A 
ATOM     27  C   UNL     1      -0.802  10.941  19.198  0.00  0.00    +0.000 A 
ATOM     28  F   UNL     1      -1.577   9.896  18.880  0.00  0.00    +0.000 F 
ENDBRANCH  17  21
ENDBRANCH   4  17
TORSDOF 4
ENDMDL
