MODEL 1
REMARK VINA RESULT:      -8.9      0.000      0.000
REMARK  Name = 
REMARK  2 active torsions:
REMARK  status: ('A' for Active; 'I' for Inactive)
REMARK    1  A    between atoms: C_1  and  N_2
REMARK    2  A    between atoms: C_10  and  C_11
REMARK                            x       y       z     vdW  Elec       q    Type
REMARK                         _______ _______ _______ _____ _____    ______ ____
ROOT
ATOM      1  C   UNL     1       1.637   7.254  20.375  0.00  0.00    +0.000 C 
ATOM      2  O   UNL     1       1.133   6.322  21.016  0.00  0.00    +0.000 OA
ATOM      3  N   UNL     1       1.158   8.617  20.588  0.00  0.00    +0.000 N 
ATOM      4  C   UNL     1       0.100   8.720  21.609  0.00  0.00    +0.000 C 
ATOM      5  C   UNL     1      -0.399  10.069  22.169  0.00  0.00    +0.000 C 
ATOM      6  C   UNL     1       0.232  11.431  21.895  0.00  0.00    +0.000 C 
ATOM      7  N   UNL     1       0.910  11.705  20.655  0.00  0.00    +0.000 N 
ATOM      8  C   UNL     1       1.028  10.875  19.550  0.00  0.00    +0.000 A 
ATOM      9  C   UNL     1       1.334  11.707  18.491  0.00  0.00    +0.000 A 
ATOM     10  C   UNL     1       1.907  12.868  19.026  0.00  0.00    +0.000 A 
ATOM     11  C   UNL     1       2.718  13.866  18.466  0.00  0.00    +0.000 A 
ATOM     12  C   UNL     1       3.092  14.957  19.242  0.00  0.00    +0.000 A 
ATOM     13  C   UNL     1       2.585  15.097  20.531  0.00  0.00    +0.000 A 
ATOM     14  C   UNL     1       1.786  14.096  21.121  0.00  0.00    +0.000 A 
ATOM     15  C   UNL     1       1.524  12.931  20.367  0.00  0.00    +0.000 A 
ATOM     16  C   UNL     1       0.882   9.402  19.404  0.00  0.00    +0.000 C 
ENDROOT
BRANCH   1  26
ATOM     17  C   UNL     1       5.654   5.222  15.196  0.00  0.00    +0.000 C 
ATOM     18  N   UNL     1       5.816   5.872  16.490  0.00  0.00    +0.000 N 
ATOM     19  C   UNL     1       7.188   6.123  16.975  0.00  0.00    +0.000 C 
ATOM     20  C   UNL     1       7.733   5.016  17.870  0.00  0.00    +0.000 C 
ATOM     21  C   UNL     1       6.906   4.931  19.135  0.00  0.00    +0.000 C 
ATOM     22  O   UNL     1       7.340   5.301  20.211  0.00  0.00    +0.000 OA
ATOM     23  N   UNL     1       5.615   4.487  18.918  0.00  0.00    +0.000 N 
ATOM     24  C   UNL     1       4.702   5.550  18.655  0.00  0.00    +0.000 A 
ATOM     25  C   UNL     1       3.735   5.884  19.651  0.00  0.00    +0.000 A 
ATOM     26  C   UNL     1       2.757   6.845  19.395  0.00  0.00    +0.000 A 
ATOM     27  C   UNL     1       2.756   7.378  18.072  0.00  0.00    +0.000 A 
ATOM     28  C   UNL     1       3.725   7.026  17.078  0.00  0.00    +0.000 A 
ATOM     29  C   UNL     1       4.753   6.129  17.360  0.00  0.00    +0.000 A 
ATOM     30  H   UNL     1       5.634   3.943  18.059  0.00  0.00    +0.000 HD
ENDBRANCH   1  26
TORSDOF 1
ENDMDL
MODEL 2
REMARK VINA RESULT:      -8.3      2.038      8.222
REMARK  Name = 
REMARK  2 active torsions:
REMARK  status: ('A' for Active; 'I' for Inactive)
REMARK    1  A    between atoms: C_1  and  N_2
REMARK    2  A    between atoms: C_10  and  C_11
REMARK                            x       y       z     vdW  Elec       q    Type
REMARK                         _______ _______ _______ _____ _____    ______ ____
ROOT
ATOM      1  C   UNL     1       1.829   6.189  20.107  0.00  0.00    +0.000 C 
ATOM      2  O   UNL     1       1.055   5.766  20.976  0.00  0.00    +0.000 OA
ATOM      3  N   UNL     1       2.785   5.276  19.487  0.00  0.00    +0.000 N 
ATOM      4  C   UNL     1       2.686   3.891  19.980  0.00  0.00    +0.000 C 
ATOM      5  C   UNL     1       3.426   2.709  19.319  0.00  0.00    +0.000 C 
ATOM      6  C   UNL     1       4.190   2.768  17.999  0.00  0.00    +0.000 C 
ATOM      7  N   UNL     1       4.837   3.977  17.564  0.00  0.00    +0.000 N 
ATOM      8  C   UNL     1       4.941   5.179  18.248  0.00  0.00    +0.000 A 
ATOM      9  C   UNL     1       6.000   5.849  17.666  0.00  0.00    +0.000 A 
ATOM     10  C   UNL     1       6.156   5.334  16.372  0.00  0.00    +0.000 A 
ATOM     11  C   UNL     1       6.785   5.839  15.224  0.00  0.00    +0.000 A 
ATOM     12  C   UNL     1       6.835   5.059  14.075  0.00  0.00    +0.000 A 
ATOM     13  C   UNL     1       6.347   3.755  14.100  0.00  0.00    +0.000 A 
ATOM     14  C   UNL     1       5.693   3.236  15.235  0.00  0.00    +0.000 A 
ATOM     15  C   UNL     1       5.531   4.086  16.351  0.00  0.00    +0.000 A 
ATOM     16  C   UNL     1       4.150   5.742  19.375  0.00  0.00    +0.000 C 
ENDROOT
BRANCH   1  26
ATOM     17  C   UNL     1       2.356  12.748  18.161  0.00  0.00    +0.000 C 
ATOM     18  N   UNL     1       1.303  11.835  18.583  0.00  0.00    +0.000 N 
ATOM     19  C   UNL     1      -0.054  12.382  18.782  0.00  0.00    +0.000 C 
ATOM     20  C   UNL     1      -0.341  12.802  20.219  0.00  0.00    +0.000 C 
ATOM     21  C   UNL     1      -0.299  11.587  21.122  0.00  0.00    +0.000 C 
ATOM     22  O   UNL     1      -1.311  11.114  21.607  0.00  0.00    +0.000 OA
ATOM     23  N   UNL     1       0.965  11.042  21.251  0.00  0.00    +0.000 N 
ATOM     24  C   UNL     1       1.239  10.047  20.267  0.00  0.00    +0.000 A 
ATOM     25  C   UNL     1       1.308   8.681  20.675  0.00  0.00    +0.000 A 
ATOM     26  C   UNL     1       1.677   7.688  19.770  0.00  0.00    +0.000 A 
ATOM     27  C   UNL     1       2.051   8.152  18.473  0.00  0.00    +0.000 A 
ATOM     28  C   UNL     1       1.989   9.527  18.079  0.00  0.00    +0.000 A 
ATOM     29  C   UNL     1       1.539  10.509  18.959  0.00  0.00    +0.000 A 
ATOM     30  H   UNL     1       1.626  11.789  21.055  0.00  0.00    +0.000 HD
ENDBRANCH   1  26
TORSDOF 1
ENDMDL
MODEL 3
REMARK VINA RESULT:      -8.0      2.061      2.753
REMARK  Name = 
REMARK  2 active torsions:
REMARK  status: ('A' for Active; 'I' for Inactive)
REMARK    1  A    between atoms: C_1  and  N_2
REMARK    2  A    between atoms: C_10  and  C_11
REMARK                            x       y       z     vdW  Elec       q    Type
REMARK                         _______ _______ _______ _____ _____    ______ ____
ROOT
ATOM      1  C   UNL     1       0.187   8.607  21.460  0.00  0.00    +0.000 C 
ATOM      2  O   UNL     1      -0.621   8.128  22.266  0.00  0.00    +0.000 OA
ATOM      3  N   UNL     1       0.235  10.053  21.262  0.00  0.00    +0.000 N 
ATOM      4  C   UNL     1      -0.713  10.799  22.108  0.00  0.00    +0.000 C 
ATOM      5  C   UNL     1      -0.689  12.336  22.244  0.00  0.00    +0.000 C 
ATOM      6  C   UNL     1       0.395  13.258  21.691  0.00  0.00    +0.000 C 
ATOM      7  N   UNL     1       1.125  12.921  20.498  0.00  0.00    +0.000 N 
ATOM      8  C   UNL     1       0.933  11.829  19.665  0.00  0.00    +0.000 A 
ATOM      9  C   UNL     1       1.520  12.172  18.462  0.00  0.00    +0.000 A 
ATOM     10  C   UNL     1       2.476  13.160  18.733  0.00  0.00    +0.000 A 
ATOM     11  C   UNL     1       3.594  13.614  18.017  0.00  0.00    +0.000 A 
ATOM     12  C   UNL     1       4.339  14.676  18.517  0.00  0.00    +0.000 A 
ATOM     13  C   UNL     1       3.917  15.338  19.667  0.00  0.00    +0.000 A 
ATOM     14  C   UNL     1       2.810  14.885  20.412  0.00  0.00    +0.000 A 
ATOM     15  C   UNL     1       2.142  13.724  19.965  0.00  0.00    +0.000 A 
ATOM     16  C   UNL     1       0.263  10.522  19.893  0.00  0.00    +0.000 C 
ENDROOT
BRANCH   1  26
ATOM     17  C   UNL     1       3.815   4.650  17.187  0.00  0.00    +0.000 C 
ATOM     18  N   UNL     1       3.724   4.878  18.622  0.00  0.00    +0.000 N 
ATOM     19  C   UNL     1       4.511   4.005  19.517  0.00  0.00    +0.000 C 
ATOM     20  C   UNL     1       3.737   2.795  20.027  0.00  0.00    +0.000 C 
ATOM     21  C   UNL     1       2.581   3.256  20.888  0.00  0.00    +0.000 C 
ATOM     22  O   UNL     1       2.584   3.112  22.098  0.00  0.00    +0.000 OA
ATOM     23  N   UNL     1       1.598   3.920  20.179  0.00  0.00    +0.000 N 
ATOM     24  C   UNL     1       1.822   5.327  20.110  0.00  0.00    +0.000 A 
ATOM     25  C   UNL     1       0.967   6.193  20.858  0.00  0.00    +0.000 A 
ATOM     26  C   UNL     1       1.082   7.577  20.738  0.00  0.00    +0.000 A 
ATOM     27  C   UNL     1       2.031   8.031  19.776  0.00  0.00    +0.000 A 
ATOM     28  C   UNL     1       2.874   7.152  19.024  0.00  0.00    +0.000 A 
ATOM     29  C   UNL     1       2.819   5.771  19.204  0.00  0.00    +0.000 A 
ATOM     30  H   UNL     1       1.667   3.600  19.216  0.00  0.00    +0.000 HD
ENDBRANCH   1  26
TORSDOF 1
ENDMDL
MODEL 4
REMARK VINA RESULT:      -7.9      6.268      9.452
REMARK  Name = 
REMARK  2 active torsions:
REMARK  status: ('A' for Active; 'I' for Inactive)
REMARK    1  A    between atoms: C_1  and  N_2
REMARK    2  A    between atoms: C_10  and  C_11
REMARK                            x       y       z     vdW  Elec       q    Type
REMARK                         _______ _______ _______ _____ _____    ______ ____
ROOT
ATOM      1  C   UNL     1      -0.770  12.057  20.455  0.00  0.00    +0.000 C 
ATOM      2  O   UNL     1      -0.395  11.043  21.059  0.00  0.00    +0.000 OA
ATOM      3  N   UNL     1       0.184  13.130  20.187  0.00  0.00    +0.000 N 
ATOM      4  C   UNL     1       1.546  12.846  20.669  0.00  0.00    +0.000 C 
ATOM      5  C   UNL     1       2.766  13.718  20.305  0.00  0.00    +0.000 C 
ATOM      6  C   UNL     1       2.772  14.850  19.281  0.00  0.00    +0.000 C 
ATOM      7  N   UNL     1       1.592  15.633  19.026  0.00  0.00    +0.000 N 
ATOM      8  C   UNL     1       0.367  15.557  19.670  0.00  0.00    +0.000 A 
ATOM      9  C   UNL     1      -0.261  16.762  19.419  0.00  0.00    +0.000 A 
ATOM     10  C   UNL     1       0.307  17.291  18.252  0.00  0.00    +0.000 A 
ATOM     11  C   UNL     1      -0.142  18.255  17.336  0.00  0.00    +0.000 A 
ATOM     12  C   UNL     1       0.684  18.630  16.283  0.00  0.00    +0.000 A 
ATOM     13  C   UNL     1       1.977  18.121  16.199  0.00  0.00    +0.000 A 
ATOM     14  C   UNL     1       2.439  17.137  17.095  0.00  0.00    +0.000 A 
ATOM     15  C   UNL     1       1.543  16.667  18.081  0.00  0.00    +0.000 A 
ATOM     16  C   UNL     1      -0.254  14.478  20.483  0.00  0.00    +0.000 C 
ENDROOT
BRANCH   1  26
ATOM     17  C   UNL     1      -6.942  12.538  17.497  0.00  0.00    +0.000 C 
ATOM     18  N   UNL     1      -6.365  11.917  18.681  0.00  0.00    +0.000 N 
ATOM     19  C   UNL     1      -7.279  11.267  19.642  0.00  0.00    +0.000 C 
ATOM     20  C   UNL     1      -7.722  12.179  20.780  0.00  0.00    +0.000 C 
ATOM     21  C   UNL     1      -6.522  12.564  21.619  0.00  0.00    +0.000 C 
ATOM     22  O   UNL     1      -6.351  12.115  22.738  0.00  0.00    +0.000 OA
ATOM     23  N   UNL     1      -5.627  13.383  20.954  0.00  0.00    +0.000 N 
ATOM     24  C   UNL     1      -4.625  12.650  20.253  0.00  0.00    +0.000 A 
ATOM     25  C   UNL     1      -3.287  12.673  20.750  0.00  0.00    +0.000 A 
ATOM     26  C   UNL     1      -2.257  12.059  20.040  0.00  0.00    +0.000 A 
ATOM     27  C   UNL     1      -2.629  11.505  18.779  0.00  0.00    +0.000 A 
ATOM     28  C   UNL     1      -3.973  11.500  18.285  0.00  0.00    +0.000 A 
ATOM     29  C   UNL     1      -5.018  12.038  19.034  0.00  0.00    +0.000 A 
ATOM     30  H   UNL     1      -6.154  13.861  20.228  0.00  0.00    +0.000 HD
ENDBRANCH   1  26
TORSDOF 1
ENDMDL
MODEL 5
REMARK VINA RESULT:      -7.8      5.143      8.974
REMARK  Name = 
REMARK  2 active torsions:
REMARK  status: ('A' for Active; 'I' for Inactive)
REMARK    1  A    between atoms: C_1  and  N_2
REMARK    2  A    between atoms: C_10  and  C_11
REMARK                            x       y       z     vdW  Elec       q    Type
REMARK                         _______ _______ _______ _____ _____    ______ ____
ROOT
ATOM      1  C   UNL     1       4.054  15.980  19.032  0.00  0.00    +0.000 C 
ATOM      2  O   UNL     1       3.568  17.112  19.156  0.00  0.00    +0.000 OA
ATOM      3  N   UNL     1       5.485  15.835  18.779  0.00  0.00    +0.000 N 
ATOM      4  C   UNL     1       6.210  17.116  18.726  0.00  0.00    +0.000 C 
ATOM      5  C   UNL     1       7.751  17.209  18.700  0.00  0.00    +0.000 C 
ATOM      6  C   UNL     1       8.713  16.042  18.905  0.00  0.00    +0.000 C 
ATOM      7  N   UNL     1       8.357  14.703  18.517  0.00  0.00    +0.000 N 
ATOM      8  C   UNL     1       7.205  14.284  17.868  0.00  0.00    +0.000 A 
ATOM      9  C   UNL     1       7.515  13.057  17.316  0.00  0.00    +0.000 A 
ATOM     10  C   UNL     1       8.585  12.528  18.050  0.00  0.00    +0.000 A 
ATOM     11  C   UNL     1       9.073  11.221  18.200  0.00  0.00    +0.000 A 
ATOM     12  C   UNL     1      10.215  11.004  18.962  0.00  0.00    +0.000 A 
ATOM     13  C   UNL     1      10.914  12.087  19.489  0.00  0.00    +0.000 A 
ATOM     14  C   UNL     1      10.429  13.405  19.368  0.00  0.00    +0.000 A 
ATOM     15  C   UNL     1       9.198  13.597  18.705  0.00  0.00    +0.000 A 
ATOM     16  C   UNL     1       5.869  14.921  17.725  0.00  0.00    +0.000 C 
ENDROOT
BRANCH   1  26
ATOM     17  C   UNL     1      -0.429  10.828  18.367  0.00  0.00    +0.000 C 
ATOM     18  N   UNL     1       0.385  11.414  19.424  0.00  0.00    +0.000 N 
ATOM     19  C   UNL     1       0.206  10.909  20.801  0.00  0.00    +0.000 C 
ATOM     20  C   UNL     1      -0.795  11.711  21.623  0.00  0.00    +0.000 C 
ATOM     21  C   UNL     1      -0.281  13.123  21.814  0.00  0.00    +0.000 C 
ATOM     22  O   UNL     1       0.131  13.515  22.891  0.00  0.00    +0.000 OA
ATOM     23  N   UNL     1      -0.247  13.858  20.644  0.00  0.00    +0.000 N 
ATOM     24  C   UNL     1       0.993  13.735  19.950  0.00  0.00    +0.000 A 
ATOM     25  C   UNL     1       1.876  14.856  19.924  0.00  0.00    +0.000 A 
ATOM     26  C   UNL     1       3.049  14.817  19.171  0.00  0.00    +0.000 A 
ATOM     27  C   UNL     1       3.235  13.637  18.392  0.00  0.00    +0.000 A 
ATOM     28  C   UNL     1       2.335  12.524  18.417  0.00  0.00    +0.000 A 
ATOM     29  C   UNL     1       1.206  12.528  19.234  0.00  0.00    +0.000 A 
ATOM     30  H   UNL     1      -0.935  13.444  20.020  0.00  0.00    +0.000 HD
ENDBRANCH   1  26
TORSDOF 1
ENDMDL
MODEL 6
REMARK VINA RESULT:      -7.8      5.446      7.651
REMARK  Name = 
REMARK  2 active torsions:
REMARK  status: ('A' for Active; 'I' for Inactive)
REMARK    1  A    between atoms: C_1  and  N_2
REMARK    2  A    between atoms: C_10  and  C_11
REMARK                            x       y       z     vdW  Elec       q    Type
REMARK                         _______ _______ _______ _____ _____    ______ ____
ROOT
ATOM      1  C   UNL     1       5.242  16.319  18.787  0.00  0.00    +0.000 C 
ATOM      2  O   UNL     1       5.564  17.505  18.642  0.00  0.00    +0.000 OA
ATOM      3  N   UNL     1       3.841  15.975  19.010  0.00  0.00    +0.000 N 
ATOM      4  C   UNL     1       2.938  17.139  19.009  0.00  0.00    +0.000 C 
ATOM      5  C   UNL     1       1.400  17.010  18.996  0.00  0.00    +0.000 C 
ATOM      6  C   UNL     1       0.621  15.711  18.802  0.00  0.00    +0.000 C 
ATOM      7  N   UNL     1       1.155  14.447  19.237  0.00  0.00    +0.000 N 
ATOM      8  C   UNL     1       2.337  14.216  19.924  0.00  0.00    +0.000 A 
ATOM      9  C   UNL     1       2.191  12.971  20.505  0.00  0.00    +0.000 A 
ATOM     10  C   UNL     1       1.229  12.275  19.761  0.00  0.00    +0.000 A 
ATOM     11  C   UNL     1       0.937  10.908  19.637  0.00  0.00    +0.000 A 
ATOM     12  C   UNL     1      -0.140  10.509  18.855  0.00  0.00    +0.000 A 
ATOM     13  C   UNL     1      -0.972  11.466  18.281  0.00  0.00    +0.000 A 
ATOM     14  C   UNL     1      -0.686  12.843  18.375  0.00  0.00    +0.000 A 
ATOM     15  C   UNL     1       0.487  13.228  19.061  0.00  0.00    +0.000 A 
ATOM     16  C   UNL     1       3.563  15.042  20.081  0.00  0.00    +0.000 C 
ENDROOT
BRANCH   1  26
ATOM     17  C   UNL     1       9.498  10.968  18.203  0.00  0.00    +0.000 C 
ATOM     18  N   UNL     1       9.599  12.421  18.243  0.00  0.00    +0.000 N 
ATOM     19  C   UNL     1      10.946  13.025  18.275  0.00  0.00    +0.000 C 
ATOM     20  C   UNL     1      11.455  13.312  19.683  0.00  0.00    +0.000 C 
ATOM     21  C   UNL     1      10.572  14.351  20.340  0.00  0.00    +0.000 C 
ATOM     22  O   UNL     1      10.955  15.492  20.529  0.00  0.00    +0.000 OA
ATOM     23  N   UNL     1       9.294  13.897  20.607  0.00  0.00    +0.000 N 
ATOM     24  C   UNL     1       8.390  14.129  19.529  0.00  0.00    +0.000 A 
ATOM     25  C   UNL     1       7.377  15.122  19.688  0.00  0.00    +0.000 A 
ATOM     26  C   UNL     1       6.408  15.310  18.705  0.00  0.00    +0.000 A 
ATOM     27  C   UNL     1       6.464  14.397  17.610  0.00  0.00    +0.000 A 
ATOM     28  C   UNL     1       7.478  13.396  17.468  0.00  0.00    +0.000 A 
ATOM     29  C   UNL     1       8.497  13.264  18.409  0.00  0.00    +0.000 A 
ATOM     30  H   UNL     1       9.355  12.884  20.681  0.00  0.00    +0.000 HD
ENDBRANCH   1  26
TORSDOF 1
ENDMDL
MODEL 7
REMARK VINA RESULT:      -7.7      5.898     10.180
REMARK  Name = 
REMARK  2 active torsions:
REMARK  status: ('A' for Active; 'I' for Inactive)
REMARK    1  A    between atoms: C_1  and  N_2
REMARK    2  A    between atoms: C_10  and  C_11
REMARK                            x       y       z     vdW  Elec       q    Type
REMARK                         _______ _______ _______ _____ _____    ______ ____
ROOT
ATOM      1  C   UNL     1       5.585  16.950  19.544  0.00  0.00    +0.000 C 
ATOM      2  O   UNL     1       5.374  18.160  19.700  0.00  0.00    +0.000 OA
ATOM      3  N   UNL     1       6.906  16.498  19.115  0.00  0.00    +0.000 N 
ATOM      4  C   UNL     1       7.877  17.592  18.938  0.00  0.00    +0.000 C 
ATOM      5  C   UNL     1       9.385  17.348  18.713  0.00  0.00    +0.000 C 
ATOM      6  C   UNL     1      10.091  16.000  18.824  0.00  0.00    +0.000 C 
ATOM      7  N   UNL     1       9.408  14.771  18.519  0.00  0.00    +0.000 N 
ATOM      8  C   UNL     1       8.118  14.614  18.033  0.00  0.00    +0.000 A 
ATOM      9  C   UNL     1       8.082  13.350  17.477  0.00  0.00    +0.000 A 
ATOM     10  C   UNL     1       9.098  12.600  18.082  0.00  0.00    +0.000 A 
ATOM     11  C   UNL     1       9.309  11.218  18.202  0.00  0.00    +0.000 A 
ATOM     12  C   UNL     1      10.466  10.756  18.818  0.00  0.00    +0.000 A 
ATOM     13  C   UNL     1      11.444  11.660  19.224  0.00  0.00    +0.000 A 
ATOM     14  C   UNL     1      11.244  13.051  19.132  0.00  0.00    +0.000 A 
ATOM     15  C   UNL     1      10.007  13.509  18.627  0.00  0.00    +0.000 A 
ATOM     16  C   UNL     1       6.944  15.526  18.044  0.00  0.00    +0.000 C 
ENDROOT
BRANCH   1  26
ATOM     17  C   UNL     1       1.092  11.924  20.822  0.00  0.00    +0.000 C 
ATOM     18  N   UNL     1       1.119  13.379  20.874  0.00  0.00    +0.000 N 
ATOM     19  C   UNL     1      -0.141  14.088  21.177  0.00  0.00    +0.000 C 
ATOM     20  C   UNL     1      -0.921  14.508  19.936  0.00  0.00    +0.000 C 
ATOM     21  C   UNL     1      -0.114  15.516  19.145  0.00  0.00    +0.000 C 
ATOM     22  O   UNL     1      -0.423  16.693  19.103  0.00  0.00    +0.000 OA
ATOM     23  N   UNL     1       1.026  14.981  18.575  0.00  0.00    +0.000 N 
ATOM     24  C   UNL     1       2.164  15.069  19.430  0.00  0.00    +0.000 A 
ATOM     25  C   UNL     1       3.203  15.988  19.093  0.00  0.00    +0.000 A 
ATOM     26  C   UNL     1       4.379  16.033  19.840  0.00  0.00    +0.000 A 
ATOM     27  C   UNL     1       4.484  15.056  20.874  0.00  0.00    +0.000 A 
ATOM     28  C   UNL     1       3.439  14.131  21.195  0.00  0.00    +0.000 A 
ATOM     29  C   UNL     1       2.229  14.143  20.503  0.00  0.00    +0.000 A 
ATOM     30  H   UNL     1       0.859  13.984  18.469  0.00  0.00    +0.000 HD
ENDBRANCH   1  26
TORSDOF 1
ENDMDL
MODEL 8
REMARK VINA RESULT:      -7.7      3.180      5.087
REMARK  Name = 
REMARK  2 active torsions:
REMARK  status: ('A' for Active; 'I' for Inactive)
REMARK    1  A    between atoms: C_1  and  N_2
REMARK    2  A    between atoms: C_10  and  C_11
REMARK                            x       y       z     vdW  Elec       q    Type
REMARK                         _______ _______ _______ _____ _____    ______ ____
ROOT
ATOM      1  C   UNL     1       1.828  10.003  18.431  0.00  0.00    +0.000 C 
ATOM      2  O   UNL     1       2.530  10.158  17.423  0.00  0.00    +0.000 OA
ATOM      3  N   UNL     1       1.097  11.141  18.982  0.00  0.00    +0.000 N 
ATOM      4  C   UNL     1       1.276  12.387  18.216  0.00  0.00    +0.000 C 
ATOM      5  C   UNL     1       0.433  13.656  18.466  0.00  0.00    +0.000 C 
ATOM      6  C   UNL     1      -0.786  13.744  19.380  0.00  0.00    +0.000 C 
ATOM      7  N   UNL     1      -0.908  12.911  20.547  0.00  0.00    +0.000 N 
ATOM      8  C   UNL     1       0.022  12.013  21.050  0.00  0.00    +0.000 A 
ATOM      9  C   UNL     1      -0.328  11.818  22.372  0.00  0.00    +0.000 A 
ATOM     10  C   UNL     1      -1.687  12.136  22.494  0.00  0.00    +0.000 A 
ATOM     11  C   UNL     1      -2.654  11.799  23.453  0.00  0.00    +0.000 A 
ATOM     12  C   UNL     1      -3.936  12.324  23.343  0.00  0.00    +0.000 A 
ATOM     13  C   UNL     1      -4.224  13.247  22.341  0.00  0.00    +0.000 A 
ATOM     14  C   UNL     1      -3.274  13.583  21.355  0.00  0.00    +0.000 A 
ATOM     15  C   UNL     1      -2.017  12.941  21.402  0.00  0.00    +0.000 A 
ATOM     16  C   UNL     1       1.184  11.338  20.414  0.00  0.00    +0.000 C 
ENDROOT
BRANCH   1  26
ATOM     17  C   UNL     1       2.469   4.112  21.891  0.00  0.00    +0.000 C 
ATOM     18  N   UNL     1       1.651   4.637  20.806  0.00  0.00    +0.000 N 
ATOM     19  C   UNL     1       0.738   3.707  20.111  0.00  0.00    +0.000 C 
ATOM     20  C   UNL     1       1.343   3.073  18.864  0.00  0.00    +0.000 C 
ATOM     21  C   UNL     1       1.627   4.146  17.834  0.00  0.00    +0.000 C 
ATOM     22  O   UNL     1       0.959   4.257  16.822  0.00  0.00    +0.000 OA
ATOM     23  N   UNL     1       2.637   5.013  18.209  0.00  0.00    +0.000 N 
ATOM     24  C   UNL     1       2.154   6.143  18.933  0.00  0.00    +0.000 A 
ATOM     25  C   UNL     1       2.169   7.421  18.296  0.00  0.00    +0.000 A 
ATOM     26  C   UNL     1       1.806   8.568  19.000  0.00  0.00    +0.000 A 
ATOM     27  C   UNL     1       1.514   8.370  20.382  0.00  0.00    +0.000 A 
ATOM     28  C   UNL     1       1.514   7.084  21.012  0.00  0.00    +0.000 A 
ATOM     29  C   UNL     1       1.795   5.927  20.288  0.00  0.00    +0.000 A 
ATOM     30  H   UNL     1       3.220   4.511  18.873  0.00  0.00    +0.000 HD
ENDBRANCH   1  26
TORSDOF 1
ENDMDL
MODEL 9
REMARK VINA RESULT:      -7.6      5.272      7.673
REMARK  Name = 
REMARK  2 active torsions:
REMARK  status: ('A' for Active; 'I' for Inactive)
REMARK    1  A    between atoms: C_1  and  N_2
REMARK    2  A    between atoms: C_10  and  C_11
REMARK                            x       y       z     vdW  Elec       q    Type
REMARK                         _______ _______ _______ _____ _____    ______ ____
ROOT
ATOM      1  C   UNL     1       4.305  16.575  19.651  0.00  0.00    +0.000 C 
ATOM      2  O   UNL     1       4.461  17.800  19.562  0.00  0.00    +0.000 OA
ATOM      3  N   UNL     1       2.955  16.020  19.655  0.00  0.00    +0.000 N 
ATOM      4  C   UNL     1       1.896  17.035  19.521  0.00  0.00    +0.000 C 
ATOM      5  C   UNL     1       0.415  16.678  19.272  0.00  0.00    +0.000 C 
ATOM      6  C   UNL     1      -0.120  15.284  18.955  0.00  0.00    +0.000 C 
ATOM      7  N   UNL     1       0.528  14.103  19.461  0.00  0.00    +0.000 N 
ATOM      8  C   UNL     1       1.614  14.032  20.321  0.00  0.00    +0.000 A 
ATOM      9  C   UNL     1       1.573  12.763  20.867  0.00  0.00    +0.000 A 
ATOM     10  C   UNL     1       0.851  11.952  19.981  0.00  0.00    +0.000 A 
ATOM     11  C   UNL     1       0.792  10.561  19.809  0.00  0.00    +0.000 A 
ATOM     12  C   UNL     1      -0.082  10.027  18.869  0.00  0.00    +0.000 A 
ATOM     13  C   UNL     1      -0.953  10.865  18.178  0.00  0.00    +0.000 A 
ATOM     14  C   UNL     1      -0.896  12.265  18.320  0.00  0.00    +0.000 A 
ATOM     15  C   UNL     1       0.088  12.802  19.180  0.00  0.00    +0.000 A 
ATOM     16  C   UNL     1       2.663  15.027  20.667  0.00  0.00    +0.000 C 
ENDROOT
BRANCH   1  26
ATOM     17  C   UNL     1      10.513  13.891  20.805  0.00  0.00    +0.000 C 
ATOM     18  N   UNL     1       9.238  13.450  20.255  0.00  0.00    +0.000 N 
ATOM     19  C   UNL     1       9.167  12.102  19.656  0.00  0.00    +0.000 C 
ATOM     20  C   UNL     1       9.410  12.087  18.151  0.00  0.00    +0.000 C 
ATOM     21  C   UNL     1       8.310  12.858  17.451  0.00  0.00    +0.000 C 
ATOM     22  O   UNL     1       7.451  12.297  16.795  0.00  0.00    +0.000 OA
ATOM     23  N   UNL     1       8.339  14.215  17.712  0.00  0.00    +0.000 N 
ATOM     24  C   UNL     1       7.564  14.574  18.854  0.00  0.00    +0.000 A 
ATOM     25  C   UNL     1       6.345  15.291  18.654  0.00  0.00    +0.000 A 
ATOM     26  C   UNL     1       5.609  15.754  19.744  0.00  0.00    +0.000 A 
ATOM     27  C   UNL     1       6.204  15.533  21.021  0.00  0.00    +0.000 A 
ATOM     28  C   UNL     1       7.434  14.824  21.207  0.00  0.00    +0.000 A 
ATOM     29  C   UNL     1       8.127  14.287  20.124  0.00  0.00    +0.000 A 
ATOM     30  H   UNL     1       9.297  14.442  17.968  0.00  0.00    +0.000 HD
ENDBRANCH   1  26
TORSDOF 1
ENDMDL
