MODEL 1
REMARK VINA RESULT:      -8.7      0.000      0.000
REMARK  Name = 
REMARK  8 active torsions:
REMARK  status: ('A' for Active; 'I' for Inactive)
REMARK    1  A    between atoms: C_1  and  C_2
REMARK    2  A    between atoms: C_2  and  C_3
REMARK    3  A    between atoms: C_2  and  C_10
REMARK    4  A    between atoms: C_3  and  C_4
REMARK    5  A    between atoms: N_8  and  C_9
REMARK    6  A    between atoms: C_14  and  C_15
REMARK    7  A    between atoms: C_15  and  C_17
REMARK    8  A    between atoms: C_21  and  C_22
REMARK                            x       y       z     vdW  Elec       q    Type
REMARK                         _______ _______ _______ _____ _____    ______ ____
ROOT
ATOM      1  C   UNL     1       4.521   4.723  17.259  0.00  0.00    +0.000 A 
ATOM      2  C   UNL     1       3.724   3.635  16.873  0.00  0.00    +0.000 A 
ATOM      3  C   UNL     1       2.420   3.496  17.351  0.00  0.00    +0.000 A 
ATOM      4  C   UNL     1       1.898   4.433  18.242  0.00  0.00    +0.000 A 
ATOM      5  C   UNL     1       2.699   5.486  18.688  0.00  0.00    +0.000 A 
ATOM      6  C   UNL     1       3.993   5.644  18.178  0.00  0.00    +0.000 A 
ENDROOT
BRANCH   1   8
ATOM      7  C   UNL     1       7.019   4.624  17.765  0.00  0.00    +0.000 C 
ATOM      8  C   UNL     1       5.935   4.853  16.698  0.00  0.00    +0.000 C 
BRANCH   8   9
ATOM      9  C   UNL     1       6.104   3.910  15.486  0.00  0.00    +0.000 C 
BRANCH   9  10
ATOM     10  C   UNL     1       6.863   4.549  14.373  0.00  0.00    +0.000 A 
ATOM     11  N   UNL     1       7.785   5.485  14.493  0.00  0.00    +0.000 NA
ATOM     12  N   UNL     1       8.283   5.759  13.241  0.00  0.00    +0.000 NA
ATOM     13  C   UNL     1       7.648   4.995  12.384  0.00  0.00    +0.000 A 
ATOM     14  N   UNL     1       6.734   4.235  13.044  0.00  0.00    +0.000 N 
ATOM     15  C   UNL     1       5.827   3.293  12.450  0.00  0.00    +0.000 C 
ENDBRANCH   9  10
ENDBRANCH   8   9
ENDBRANCH   1   8
BRANCH   5  16
ATOM     16  C   UNL     1       2.230   6.467  19.704  0.00  0.00    +0.000 C 
ATOM     17  O   UNL     1       2.085   6.115  20.869  0.00  0.00    +0.000 OA
BRANCH  16  18
ATOM     18  C   UNL     1       1.906   7.861  19.331  0.00  0.00    +0.000 A 
ATOM     19  C   UNL     1       2.290   8.333  18.083  0.00  0.00    +0.000 A 
ATOM     20  N   UNL     1       1.992   9.575  17.629  0.00  0.00    +0.000 NA
ATOM     21  C   UNL     1       1.290  10.383  18.455  0.00  0.00    +0.000 A 
ATOM     22  C   UNL     1       0.887  10.023  19.733  0.00  0.00    +0.000 A 
ATOM     23  C   UNL     1       1.233   8.742  20.183  0.00  0.00    +0.000 A 
BRANCH  22  24
ATOM     24  C   UNL     1       0.089  10.956  20.586  0.00  0.00    +0.000 C 
ATOM     25  F   UNL     1      -0.826  11.687  19.895  0.00  0.00    +0.000 F 
ATOM     26  F   UNL     1      -0.610  10.294  21.550  0.00  0.00    +0.000 F 
ATOM     27  F   UNL     1       0.871  11.854  21.246  0.00  0.00    +0.000 F 
ENDBRANCH  22  24
ENDBRANCH  16  18
ENDBRANCH   5  16
TORSDOF 6
ENDMDL
MODEL 2
REMARK VINA RESULT:      -8.6      5.481      8.445
REMARK  Name = 
REMARK  8 active torsions:
REMARK  status: ('A' for Active; 'I' for Inactive)
REMARK    1  A    between atoms: C_1  and  C_2
REMARK    2  A    between atoms: C_2  and  C_3
REMARK    3  A    between atoms: C_2  and  C_10
REMARK    4  A    between atoms: C_3  and  C_4
REMARK    5  A    between atoms: N_8  and  C_9
REMARK    6  A    between atoms: C_14  and  C_15
REMARK    7  A    between atoms: C_15  and  C_17
REMARK    8  A    between atoms: C_21  and  C_22
REMARK                            x       y       z     vdW  Elec       q    Type
REMARK                         _______ _______ _______ _____ _____    ______ ____
ROOT
ATOM      1  C   UNL     1       2.612   6.542  19.287  0.00  0.00    +0.000 A 
ATOM      2  C   UNL     1       2.635   7.780  18.628  0.00  0.00    +0.000 A 
ATOM      3  C   UNL     1       3.305   7.934  17.413  0.00  0.00    +0.000 A 
ATOM      4  C   UNL     1       3.981   6.856  16.846  0.00  0.00    +0.000 A 
ATOM      5  C   UNL     1       4.024   5.632  17.519  0.00  0.00    +0.000 A 
ATOM      6  C   UNL     1       3.320   5.471  18.719  0.00  0.00    +0.000 A 
ENDROOT
BRANCH   1   8
ATOM      7  C   UNL     1       1.126   7.702  21.003  0.00  0.00    +0.000 C 
ATOM      8  C   UNL     1       1.851   6.406  20.603  0.00  0.00    +0.000 C 
BRANCH   8   9
ATOM      9  C   UNL     1       0.887   5.200  20.527  0.00  0.00    +0.000 C 
BRANCH   9  10
ATOM     10  C   UNL     1       1.552   3.920  20.903  0.00  0.00    +0.000 A 
ATOM     11  N   UNL     1       2.247   3.695  22.001  0.00  0.00    +0.000 NA
ATOM     12  N   UNL     1       2.639   2.376  21.998  0.00  0.00    +0.000 NA
ATOM     13  C   UNL     1       2.185   1.829  20.895  0.00  0.00    +0.000 A 
ATOM     14  N   UNL     1       1.516   2.763  20.167  0.00  0.00    +0.000 N 
ATOM     15  C   UNL     1       0.898   2.558  18.887  0.00  0.00    +0.000 C 
ENDBRANCH   9  10
ENDBRANCH   8   9
ENDBRANCH   1   8
BRANCH   5  16
ATOM     16  C   UNL     1       4.802   4.471  17.010  0.00  0.00    +0.000 C 
ATOM     17  O   UNL     1       4.750   3.398  17.599  0.00  0.00    +0.000 OA
BRANCH  16  18
ATOM     18  C   UNL     1       5.664   4.590  15.814  0.00  0.00    +0.000 A 
ATOM     19  C   UNL     1       6.822   5.353  15.890  0.00  0.00    +0.000 A 
ATOM     20  N   UNL     1       7.704   5.478  14.869  0.00  0.00    +0.000 NA
ATOM     21  C   UNL     1       7.417   4.824  13.721  0.00  0.00    +0.000 A 
ATOM     22  C   UNL     1       6.272   4.064  13.528  0.00  0.00    +0.000 A 
ATOM     23  C   UNL     1       5.368   3.975  14.595  0.00  0.00    +0.000 A 
BRANCH  22  24
ATOM     24  C   UNL     1       6.028   3.343  12.241  0.00  0.00    +0.000 C 
ATOM     25  F   UNL     1       5.083   3.924  11.455  0.00  0.00    +0.000 F 
ATOM     26  F   UNL     1       7.154   3.267  11.478  0.00  0.00    +0.000 F 
ATOM     27  F   UNL     1       5.623   2.058  12.434  0.00  0.00    +0.000 F 
ENDBRANCH  22  24
ENDBRANCH  16  18
ENDBRANCH   5  16
TORSDOF 6
ENDMDL
MODEL 3
REMARK VINA RESULT:      -8.6      3.198      4.539
REMARK  Name = 
REMARK  8 active torsions:
REMARK  status: ('A' for Active; 'I' for Inactive)
REMARK    1  A    between atoms: C_1  and  C_2
REMARK    2  A    between atoms: C_2  and  C_3
REMARK    3  A    between atoms: C_2  and  C_10
REMARK    4  A    between atoms: C_3  and  C_4
REMARK    5  A    between atoms: N_8  and  C_9
REMARK    6  A    between atoms: C_14  and  C_15
REMARK    7  A    between atoms: C_15  and  C_17
REMARK    8  A    between atoms: C_21  and  C_22
REMARK                            x       y       z     vdW  Elec       q    Type
REMARK                         _______ _______ _______ _____ _____    ______ ____
ROOT
ATOM      1  C   UNL     1       2.602   5.909  18.963  0.00  0.00    +0.000 A 
ATOM      2  C   UNL     1       2.199   5.799  20.303  0.00  0.00    +0.000 A 
ATOM      3  C   UNL     1       1.559   6.858  20.948  0.00  0.00    +0.000 A 
ATOM      4  C   UNL     1       1.330   8.055  20.271  0.00  0.00    +0.000 A 
ATOM      5  C   UNL     1       1.782   8.206  18.958  0.00  0.00    +0.000 A 
ATOM      6  C   UNL     1       2.390   7.129  18.301  0.00  0.00    +0.000 A 
ENDROOT
BRANCH   1   8
ATOM      7  C   UNL     1       2.306   3.894  17.429  0.00  0.00    +0.000 C 
ATOM      8  C   UNL     1       3.280   4.722  18.284  0.00  0.00    +0.000 C 
BRANCH   8   9
ATOM      9  C   UNL     1       4.497   5.212  17.469  0.00  0.00    +0.000 C 
BRANCH   9  10
ATOM     10  C   UNL     1       5.720   5.359  18.310  0.00  0.00    +0.000 A 
ATOM     11  N   UNL     1       5.841   5.015  19.578  0.00  0.00    +0.000 NA
ATOM     12  N   UNL     1       7.139   5.256  19.965  0.00  0.00    +0.000 NA
ATOM     13  C   UNL     1       7.777   5.751  18.931  0.00  0.00    +0.000 A 
ATOM     14  N   UNL     1       6.923   5.854  17.878  0.00  0.00    +0.000 N 
ATOM     15  C   UNL     1       7.240   6.376  16.577  0.00  0.00    +0.000 C 
ENDBRANCH   9  10
ENDBRANCH   8   9
ENDBRANCH   1   8
BRANCH   5  16
ATOM     16  C   UNL     1       1.647   9.486  18.212  0.00  0.00    +0.000 C 
ATOM     17  O   UNL     1       2.605   9.934  17.594  0.00  0.00    +0.000 OA
BRANCH  16  18
ATOM     18  C   UNL     1       0.380  10.249  18.223  0.00  0.00    +0.000 A 
ATOM     19  C   UNL     1       0.373  11.539  18.736  0.00  0.00    +0.000 A 
ATOM     20  N   UNL     1      -0.723  12.336  18.740  0.00  0.00    +0.000 NA
ATOM     21  C   UNL     1      -1.860  11.826  18.216  0.00  0.00    +0.000 A 
ATOM     22  C   UNL     1      -1.970  10.540  17.708  0.00  0.00    +0.000 A 
ATOM     23  C   UNL     1      -0.826   9.732  17.742  0.00  0.00    +0.000 A 
BRANCH  22  24
ATOM     24  C   UNL     1      -3.253  10.046  17.119  0.00  0.00    +0.000 C 
ATOM     25  F   UNL     1      -3.855   9.070  17.849  0.00  0.00    +0.000 F 
ATOM     26  F   UNL     1      -4.173  11.043  16.994  0.00  0.00    +0.000 F 
ATOM     27  F   UNL     1      -3.087   9.536  15.868  0.00  0.00    +0.000 F 
ENDBRANCH  22  24
ENDBRANCH  16  18
ENDBRANCH   5  16
TORSDOF 6
ENDMDL
MODEL 4
REMARK VINA RESULT:      -8.5      4.700      8.863
REMARK  Name = 
REMARK  8 active torsions:
REMARK  status: ('A' for Active; 'I' for Inactive)
REMARK    1  A    between atoms: C_1  and  C_2
REMARK    2  A    between atoms: C_2  and  C_3
REMARK    3  A    between atoms: C_2  and  C_10
REMARK    4  A    between atoms: C_3  and  C_4
REMARK    5  A    between atoms: N_8  and  C_9
REMARK    6  A    between atoms: C_14  and  C_15
REMARK    7  A    between atoms: C_15  and  C_17
REMARK    8  A    between atoms: C_21  and  C_22
REMARK                            x       y       z     vdW  Elec       q    Type
REMARK                         _______ _______ _______ _____ _____    ______ ____
ROOT
ATOM      1  C   UNL     1       0.147   9.969  19.538  0.00  0.00    +0.000 A 
ATOM      2  C   UNL     1       0.006   9.665  20.900  0.00  0.00    +0.000 A 
ATOM      3  C   UNL     1       0.778   8.666  21.495  0.00  0.00    +0.000 A 
ATOM      4  C   UNL     1       1.690   7.938  20.732  0.00  0.00    +0.000 A 
ATOM      5  C   UNL     1       1.797   8.183  19.361  0.00  0.00    +0.000 A 
ATOM      6  C   UNL     1       1.049   9.211  18.775  0.00  0.00    +0.000 A 
ENDROOT
BRANCH   1   8
ATOM      7  C   UNL     1       0.114  12.360  18.651  0.00  0.00    +0.000 C 
ATOM      8  C   UNL     1      -0.698  11.084  18.927  0.00  0.00    +0.000 C 
BRANCH   8   9
ATOM      9  C   UNL     1      -1.412  10.562  17.659  0.00  0.00    +0.000 C 
BRANCH   9  10
ATOM     10  C   UNL     1      -2.819  11.045  17.563  0.00  0.00    +0.000 A 
ATOM     11  N   UNL     1      -3.538  11.556  18.544  0.00  0.00    +0.000 NA
ATOM     12  N   UNL     1      -4.757  11.933  18.031  0.00  0.00    +0.000 NA
ATOM     13  C   UNL     1      -4.761  11.634  16.753  0.00  0.00    +0.000 A 
ATOM     14  N   UNL     1      -3.576  11.057  16.419  0.00  0.00    +0.000 N 
ATOM     15  C   UNL     1      -3.207  10.567  15.120  0.00  0.00    +0.000 C 
ENDBRANCH   9  10
ENDBRANCH   8   9
ENDBRANCH   1   8
BRANCH   5  16
ATOM     16  C   UNL     1       2.687   7.382  18.477  0.00  0.00    +0.000 C 
ATOM     17  O   UNL     1       3.152   7.887  17.462  0.00  0.00    +0.000 OA
BRANCH  16  18
ATOM     18  C   UNL     1       3.004   5.970  18.785  0.00  0.00    +0.000 A 
ATOM     19  C   UNL     1       4.332   5.592  18.926  0.00  0.00    +0.000 A 
ATOM     20  N   UNL     1       4.721   4.337  19.260  0.00  0.00    +0.000 NA
ATOM     21  C   UNL     1       3.747   3.420  19.455  0.00  0.00    +0.000 A 
ATOM     22  C   UNL     1       2.393   3.684  19.306  0.00  0.00    +0.000 A 
ATOM     23  C   UNL     1       2.025   4.984  18.935  0.00  0.00    +0.000 A 
BRANCH  22  24
ATOM     24  C   UNL     1       1.364   2.629  19.563  0.00  0.00    +0.000 C 
ATOM     25  F   UNL     1       1.814   1.362  19.362  0.00  0.00    +0.000 F 
ATOM     26  F   UNL     1       0.905   2.666  20.845  0.00  0.00    +0.000 F 
ATOM     27  F   UNL     1       0.266   2.771  18.771  0.00  0.00    +0.000 F 
ENDBRANCH  22  24
ENDBRANCH  16  18
ENDBRANCH   5  16
TORSDOF 6
ENDMDL
MODEL 5
REMARK VINA RESULT:      -8.5      3.043      4.516
REMARK  Name = 
REMARK  8 active torsions:
REMARK  status: ('A' for Active; 'I' for Inactive)
REMARK    1  A    between atoms: C_1  and  C_2
REMARK    2  A    between atoms: C_2  and  C_3
REMARK    3  A    between atoms: C_2  and  C_10
REMARK    4  A    between atoms: C_3  and  C_4
REMARK    5  A    between atoms: N_8  and  C_9
REMARK    6  A    between atoms: C_14  and  C_15
REMARK    7  A    between atoms: C_15  and  C_17
REMARK    8  A    between atoms: C_21  and  C_22
REMARK                            x       y       z     vdW  Elec       q    Type
REMARK                         _______ _______ _______ _____ _____    ______ ____
ROOT
ATOM      1  C   UNL     1       2.779   6.673  19.361  0.00  0.00    +0.000 A 
ATOM      2  C   UNL     1       3.063   7.085  18.050  0.00  0.00    +0.000 A 
ATOM      3  C   UNL     1       2.568   8.294  17.555  0.00  0.00    +0.000 A 
ATOM      4  C   UNL     1       1.763   9.100  18.358  0.00  0.00    +0.000 A 
ATOM      5  C   UNL     1       1.417   8.676  19.643  0.00  0.00    +0.000 A 
ATOM      6  C   UNL     1       1.946   7.482  20.149  0.00  0.00    +0.000 A 
ENDROOT
BRANCH   1   8
ATOM      7  C   UNL     1       2.326   4.523  20.655  0.00  0.00    +0.000 C 
ATOM      8  C   UNL     1       3.356   5.356  19.873  0.00  0.00    +0.000 C 
BRANCH   8   9
ATOM      9  C   UNL     1       3.973   4.564  18.698  0.00  0.00    +0.000 C 
BRANCH   9  10
ATOM     10  C   UNL     1       5.451   4.739  18.612  0.00  0.00    +0.000 A 
ATOM     11  N   UNL     1       6.253   5.099  19.596  0.00  0.00    +0.000 NA
ATOM     12  N   UNL     1       7.545   5.084  19.123  0.00  0.00    +0.000 NA
ATOM     13  C   UNL     1       7.502   4.726  17.862  0.00  0.00    +0.000 A 
ATOM     14  N   UNL     1       6.210   4.519  17.492  0.00  0.00    +0.000 N 
ATOM     15  C   UNL     1       5.752   4.143  16.183  0.00  0.00    +0.000 C 
ENDBRANCH   9  10
ENDBRANCH   8   9
ENDBRANCH   1   8
BRANCH   5  16
ATOM     16  C   UNL     1       0.492   9.449  20.514  0.00  0.00    +0.000 C 
ATOM     17  O   UNL     1       0.543   9.310  21.731  0.00  0.00    +0.000 OA
BRANCH  16  18
ATOM     18  C   UNL     1      -0.514  10.368  19.940  0.00  0.00    +0.000 A 
ATOM     19  C   UNL     1      -0.730  11.598  20.546  0.00  0.00    +0.000 A 
ATOM     20  N   UNL     1      -1.588  12.529  20.065  0.00  0.00    +0.000 NA
ATOM     21  C   UNL     1      -2.267  12.220  18.936  0.00  0.00    +0.000 A 
ATOM     22  C   UNL     1      -2.151  11.008  18.271  0.00  0.00    +0.000 A 
ATOM     23  C   UNL     1      -1.275  10.056  18.809  0.00  0.00    +0.000 A 
BRANCH  22  24
ATOM     24  C   UNL     1      -2.912  10.739  17.012  0.00  0.00    +0.000 C 
ATOM     25  F   UNL     1      -3.040   9.418  16.717  0.00  0.00    +0.000 F 
ATOM     26  F   UNL     1      -4.179  11.237  17.066  0.00  0.00    +0.000 F 
ATOM     27  F   UNL     1      -2.333  11.316  15.923  0.00  0.00    +0.000 F 
ENDBRANCH  22  24
ENDBRANCH  16  18
ENDBRANCH   5  16
TORSDOF 6
ENDMDL
MODEL 6
REMARK VINA RESULT:      -8.4      3.260      4.635
REMARK  Name = 
REMARK  8 active torsions:
REMARK  status: ('A' for Active; 'I' for Inactive)
REMARK    1  A    between atoms: C_1  and  C_2
REMARK    2  A    between atoms: C_2  and  C_3
REMARK    3  A    between atoms: C_2  and  C_10
REMARK    4  A    between atoms: C_3  and  C_4
REMARK    5  A    between atoms: N_8  and  C_9
REMARK    6  A    between atoms: C_14  and  C_15
REMARK    7  A    between atoms: C_15  and  C_17
REMARK    8  A    between atoms: C_21  and  C_22
REMARK                            x       y       z     vdW  Elec       q    Type
REMARK                         _______ _______ _______ _____ _____    ______ ____
ROOT
ATOM      1  C   UNL     1       2.786   7.009  18.414  0.00  0.00    +0.000 A 
ATOM      2  C   UNL     1       2.541   6.503  19.700  0.00  0.00    +0.000 A 
ATOM      3  C   UNL     1       1.779   7.224  20.621  0.00  0.00    +0.000 A 
ATOM      4  C   UNL     1       1.267   8.474  20.279  0.00  0.00    +0.000 A 
ATOM      5  C   UNL     1       1.555   9.023  19.027  0.00  0.00    +0.000 A 
ATOM      6  C   UNL     1       2.288   8.281  18.092  0.00  0.00    +0.000 A 
ENDROOT
BRANCH   1   8
ATOM      7  C   UNL     1       4.736   6.993  16.771  0.00  0.00    +0.000 C 
ATOM      8  C   UNL     1       3.605   6.182  17.427  0.00  0.00    +0.000 C 
BRANCH   8   9
ATOM      9  C   UNL     1       4.132   4.908  18.124  0.00  0.00    +0.000 C 
BRANCH   9  10
ATOM     10  C   UNL     1       5.621   4.874  18.192  0.00  0.00    +0.000 A 
ATOM     11  N   UNL     1       6.364   5.254  19.213  0.00  0.00    +0.000 NA
ATOM     12  N   UNL     1       7.681   5.006  18.900  0.00  0.00    +0.000 NA
ATOM     13  C   UNL     1       7.713   4.492  17.694  0.00  0.00    +0.000 A 
ATOM     14  N   UNL     1       6.448   4.409  17.202  0.00  0.00    +0.000 N 
ATOM     15  C   UNL     1       6.073   3.925  15.902  0.00  0.00    +0.000 C 
ENDBRANCH   9  10
ENDBRANCH   8   9
ENDBRANCH   1   8
BRANCH   5  16
ATOM     16  C   UNL     1       1.112  10.388  18.635  0.00  0.00    +0.000 C 
ATOM     17  O   UNL     1       1.946  11.259  18.415  0.00  0.00    +0.000 OA
BRANCH  16  18
ATOM     18  C   UNL     1      -0.323  10.728  18.532  0.00  0.00    +0.000 A 
ATOM     19  C   UNL     1      -0.920  11.457  19.552  0.00  0.00    +0.000 A 
ATOM     20  N   UNL     1      -2.212  11.864  19.524  0.00  0.00    +0.000 NA
ATOM     21  C   UNL     1      -2.943  11.524  18.439  0.00  0.00    +0.000 A 
ATOM     22  C   UNL     1      -2.455  10.771  17.381  0.00  0.00    +0.000 A 
ATOM     23  C   UNL     1      -1.123  10.344  17.452  0.00  0.00    +0.000 A 
BRANCH  22  24
ATOM     24  C   UNL     1      -3.311  10.452  16.196  0.00  0.00    +0.000 C 
ATOM     25  F   UNL     1      -3.131   9.196  15.709  0.00  0.00    +0.000 F 
ATOM     26  F   UNL     1      -4.638  10.557  16.484  0.00  0.00    +0.000 F 
ATOM     27  F   UNL     1      -3.089  11.298  15.153  0.00  0.00    +0.000 F 
ENDBRANCH  22  24
ENDBRANCH  16  18
ENDBRANCH   5  16
TORSDOF 6
ENDMDL
MODEL 7
REMARK VINA RESULT:      -8.3      3.677      4.970
REMARK  Name = 
REMARK  8 active torsions:
REMARK  status: ('A' for Active; 'I' for Inactive)
REMARK    1  A    between atoms: C_1  and  C_2
REMARK    2  A    between atoms: C_2  and  C_3
REMARK    3  A    between atoms: C_2  and  C_10
REMARK    4  A    between atoms: C_3  and  C_4
REMARK    5  A    between atoms: N_8  and  C_9
REMARK    6  A    between atoms: C_14  and  C_15
REMARK    7  A    between atoms: C_15  and  C_17
REMARK    8  A    between atoms: C_21  and  C_22
REMARK                            x       y       z     vdW  Elec       q    Type
REMARK                         _______ _______ _______ _____ _____    ______ ____
ROOT
ATOM      1  C   UNL     1       3.329   6.750  18.158  0.00  0.00    +0.000 A 
ATOM      2  C   UNL     1       2.974   6.245  19.418  0.00  0.00    +0.000 A 
ATOM      3  C   UNL     1       2.114   6.954  20.258  0.00  0.00    +0.000 A 
ATOM      4  C   UNL     1       1.611   8.192  19.861  0.00  0.00    +0.000 A 
ATOM      5  C   UNL     1       2.004   8.741  18.638  0.00  0.00    +0.000 A 
ATOM      6  C   UNL     1       2.837   8.010  17.782  0.00  0.00    +0.000 A 
ENDROOT
BRANCH   1   8
ATOM      7  C   UNL     1       5.421   6.769  16.701  0.00  0.00    +0.000 C 
ATOM      8  C   UNL     1       4.254   5.936  17.258  0.00  0.00    +0.000 C 
BRANCH   8   9
ATOM      9  C   UNL     1       4.744   4.680  18.013  0.00  0.00    +0.000 C 
BRANCH   9  10
ATOM     10  C   UNL     1       3.728   3.589  18.015  0.00  0.00    +0.000 A 
ATOM     11  N   UNL     1       2.784   3.400  17.114  0.00  0.00    +0.000 NA
ATOM     12  N   UNL     1       2.098   2.254  17.445  0.00  0.00    +0.000 NA
ATOM     13  C   UNL     1       2.630   1.776  18.545  0.00  0.00    +0.000 A 
ATOM     14  N   UNL     1       3.642   2.590  18.950  0.00  0.00    +0.000 N 
ATOM     15  C   UNL     1       4.449   2.418  20.126  0.00  0.00    +0.000 C 
ENDBRANCH   9  10
ENDBRANCH   8   9
ENDBRANCH   1   8
BRANCH   5  16
ATOM     16  C   UNL     1       1.572  10.094  18.198  0.00  0.00    +0.000 C 
ATOM     17  O   UNL     1       2.373  10.838  17.643  0.00  0.00    +0.000 OA
BRANCH  16  18
ATOM     18  C   UNL     1       0.195  10.576  18.441  0.00  0.00    +0.000 A 
ATOM     19  C   UNL     1      -0.001  11.667  19.277  0.00  0.00    +0.000 A 
ATOM     20  N   UNL     1      -1.216  12.216  19.518  0.00  0.00    +0.000 NA
ATOM     21  C   UNL     1      -2.282  11.651  18.906  0.00  0.00    +0.000 A 
ATOM     22  C   UNL     1      -2.201  10.540  18.079  0.00  0.00    +0.000 A 
ATOM     23  C   UNL     1      -0.933   9.981  17.870  0.00  0.00    +0.000 A 
BRANCH  22  24
ATOM     24  C   UNL     1      -3.416   9.981  17.411  0.00  0.00    +0.000 C 
ATOM     25  F   UNL     1      -4.479  10.829  17.404  0.00  0.00    +0.000 F 
ATOM     26  F   UNL     1      -3.181   9.663  16.108  0.00  0.00    +0.000 F 
ATOM     27  F   UNL     1      -3.851   8.833  18.001  0.00  0.00    +0.000 F 
ENDBRANCH  22  24
ENDBRANCH  16  18
ENDBRANCH   5  16
TORSDOF 6
ENDMDL
MODEL 8
REMARK VINA RESULT:      -8.3      4.274      9.373
REMARK  Name = 
REMARK  8 active torsions:
REMARK  status: ('A' for Active; 'I' for Inactive)
REMARK    1  A    between atoms: C_1  and  C_2
REMARK    2  A    between atoms: C_2  and  C_3
REMARK    3  A    between atoms: C_2  and  C_10
REMARK    4  A    between atoms: C_3  and  C_4
REMARK    5  A    between atoms: N_8  and  C_9
REMARK    6  A    between atoms: C_14  and  C_15
REMARK    7  A    between atoms: C_15  and  C_17
REMARK    8  A    between atoms: C_21  and  C_22
REMARK                            x       y       z     vdW  Elec       q    Type
REMARK                         _______ _______ _______ _____ _____    ______ ____
ROOT
ATOM      1  C   UNL     1       0.905   9.150  20.265  0.00  0.00    +0.000 A 
ATOM      2  C   UNL     1       1.181   9.833  19.071  0.00  0.00    +0.000 A 
ATOM      3  C   UNL     1       1.912   9.224  18.049  0.00  0.00    +0.000 A 
ATOM      4  C   UNL     1       2.397   7.928  18.213  0.00  0.00    +0.000 A 
ATOM      5  C   UNL     1       2.188   7.256  19.420  0.00  0.00    +0.000 A 
ATOM      6  C   UNL     1       1.423   7.855  20.428  0.00  0.00    +0.000 A 
ENDROOT
BRANCH   1   8
ATOM      7  C   UNL     1       0.516   9.431  22.770  0.00  0.00    +0.000 C 
ATOM      8  C   UNL     1       0.084   9.840  21.351  0.00  0.00    +0.000 C 
BRANCH   8   9
ATOM      9  C   UNL     1       0.132  11.371  21.147  0.00  0.00    +0.000 C 
BRANCH   9  10
ATOM     10  C   UNL     1      -1.213  11.944  20.851  0.00  0.00    +0.000 A 
ATOM     11  N   UNL     1      -1.824  11.936  19.683  0.00  0.00    +0.000 NA
ATOM     12  N   UNL     1      -3.065  12.507  19.845  0.00  0.00    +0.000 NA
ATOM     13  C   UNL     1      -3.180  12.861  21.103  0.00  0.00    +0.000 A 
ATOM     14  N   UNL     1      -2.036  12.547  21.768  0.00  0.00    +0.000 N 
ATOM     15  C   UNL     1      -1.764  12.801  23.155  0.00  0.00    +0.000 C 
ENDBRANCH   9  10
ENDBRANCH   8   9
ENDBRANCH   1   8
BRANCH   5  16
ATOM     16  C   UNL     1       2.755   5.908  19.688  0.00  0.00    +0.000 C 
ATOM     17  O   UNL     1       2.428   5.300  20.701  0.00  0.00    +0.000 OA
BRANCH  16  18
ATOM     18  C   UNL     1       3.733   5.289  18.766  0.00  0.00    +0.000 A 
ATOM     19  C   UNL     1       3.279   4.416  17.787  0.00  0.00    +0.000 A 
ATOM     20  N   UNL     1       4.087   3.843  16.863  0.00  0.00    +0.000 NA
ATOM     21  C   UNL     1       5.404   4.147  16.920  0.00  0.00    +0.000 A 
ATOM     22  C   UNL     1       5.966   4.980  17.877  0.00  0.00    +0.000 A 
ATOM     23  C   UNL     1       5.107   5.536  18.834  0.00  0.00    +0.000 A 
BRANCH  22  24
ATOM     24  C   UNL     1       7.427   5.296  17.868  0.00  0.00    +0.000 C 
ATOM     25  F   UNL     1       7.913   5.688  19.076  0.00  0.00    +0.000 F 
ATOM     26  F   UNL     1       8.178   4.223  17.492  0.00  0.00    +0.000 F 
ATOM     27  F   UNL     1       7.738   6.291  16.993  0.00  0.00    +0.000 F 
ENDBRANCH  22  24
ENDBRANCH  16  18
ENDBRANCH   5  16
TORSDOF 6
ENDMDL
MODEL 9
REMARK VINA RESULT:      -8.2      4.157      5.695
REMARK  Name = 
REMARK  8 active torsions:
REMARK  status: ('A' for Active; 'I' for Inactive)
REMARK    1  A    between atoms: C_1  and  C_2
REMARK    2  A    between atoms: C_2  and  C_3
REMARK    3  A    between atoms: C_2  and  C_10
REMARK    4  A    between atoms: C_3  and  C_4
REMARK    5  A    between atoms: N_8  and  C_9
REMARK    6  A    between atoms: C_14  and  C_15
REMARK    7  A    between atoms: C_15  and  C_17
REMARK    8  A    between atoms: C_21  and  C_22
REMARK                            x       y       z     vdW  Elec       q    Type
REMARK                         _______ _______ _______ _____ _____    ______ ____
ROOT
ATOM      1  C   UNL     1       2.362   7.238  19.114  0.00  0.00    +0.000 A 
ATOM      2  C   UNL     1       2.070   6.916  20.448  0.00  0.00    +0.000 A 
ATOM      3  C   UNL     1       1.301   7.770  21.240  0.00  0.00    +0.000 A 
ATOM      4  C   UNL     1       0.827   8.971  20.716  0.00  0.00    +0.000 A 
ATOM      5  C   UNL     1       1.161   9.339  19.411  0.00  0.00    +0.000 A 
ATOM      6  C   UNL     1       1.901   8.463  18.607  0.00  0.00    +0.000 A 
ENDROOT
BRANCH   1   8
ATOM      7  C   UNL     1       4.222   6.985  17.388  0.00  0.00    +0.000 C 
ATOM      8  C   UNL     1       3.188   6.268  18.272  0.00  0.00    +0.000 C 
BRANCH   8   9
ATOM      9  C   UNL     1       3.840   5.208  19.188  0.00  0.00    +0.000 C 
BRANCH   9  10
ATOM     10  C   UNL     1       3.467   3.818  18.798  0.00  0.00    +0.000 A 
ATOM     11  N   UNL     1       4.053   3.083  17.874  0.00  0.00    +0.000 NA
ATOM     12  N   UNL     1       3.452   1.845  17.865  0.00  0.00    +0.000 NA
ATOM     13  C   UNL     1       2.507   1.856  18.775  0.00  0.00    +0.000 A 
ATOM     14  N   UNL     1       2.466   3.077  19.372  0.00  0.00    +0.000 N 
ATOM     15  C   UNL     1       1.549   3.489  20.398  0.00  0.00    +0.000 C 
ENDBRANCH   9  10
ENDBRANCH   8   9
ENDBRANCH   1   8
BRANCH   5  16
ATOM     16  C   UNL     1       0.760  10.646  18.825  0.00  0.00    +0.000 C 
ATOM     17  O   UNL     1       1.616  11.482  18.558  0.00  0.00    +0.000 OA
BRANCH  16  18
ATOM     18  C   UNL     1      -0.662  10.973  18.581  0.00  0.00    +0.000 A 
ATOM     19  C   UNL     1      -1.340  11.766  19.497  0.00  0.00    +0.000 A 
ATOM     20  N   UNL     1      -2.624  12.164  19.335  0.00  0.00    +0.000 NA
ATOM     21  C   UNL     1      -3.263  11.752  18.217  0.00  0.00    +0.000 A 
ATOM     22  C   UNL     1      -2.690  10.931  17.256  0.00  0.00    +0.000 A 
ATOM     23  C   UNL     1      -1.369  10.516  17.465  0.00  0.00    +0.000 A 
BRANCH  22  24
ATOM     24  C   UNL     1      -3.445  10.532  16.028  0.00  0.00    +0.000 C 
ATOM     25  F   UNL     1      -3.435   9.194  15.786  0.00  0.00    +0.000 F 
ATOM     26  F   UNL     1      -4.757  10.892  16.097  0.00  0.00    +0.000 F 
ATOM     27  F   UNL     1      -2.957  11.124  14.903  0.00  0.00    +0.000 F 
ENDBRANCH  22  24
ENDBRANCH  16  18
ENDBRANCH   5  16
TORSDOF 6
ENDMDL
