MODEL 1
REMARK VINA RESULT:      -8.6      0.000      0.000
REMARK  Name = 
REMARK  3 active torsions:
REMARK  status: ('A' for Active; 'I' for Inactive)
REMARK    1  A    between atoms: C_2  and  C_17
REMARK    2  A    between atoms: N_3  and  C_4
REMARK    3  A    between atoms: C_4  and  C_5
REMARK                            x       y       z     vdW  Elec       q    Type
REMARK                         _______ _______ _______ _____ _____    ______ ____
ROOT
ATOM      1  O   UNL     1       2.238   4.826  20.584  0.00  0.00    +0.000 OA
ATOM      2  C   UNL     1       2.833   5.646  19.894  0.00  0.00    +0.000 C 
ATOM      3  N   UNL     1       2.573   6.991  19.948  0.00  0.00    +0.000 N 
ATOM      4  H   UNL     1       2.986   7.649  19.295  0.00  0.00    +0.000 HD
ENDROOT
BRANCH   2   5
ATOM      5  C   UNL     1       3.851   5.204  18.904  0.00  0.00    +0.000 A 
ATOM      6  C   UNL     1       3.392   4.581  17.736  0.00  0.00    +0.000 A 
ATOM      7  C   UNL     1       4.280   4.124  16.757  0.00  0.00    +0.000 A 
ATOM      8  C   UNL     1       5.642   4.305  17.010  0.00  0.00    +0.000 A 
ATOM      9  N   UNL     1       6.754   3.965  16.283  0.00  0.00    +0.000 N 
ATOM     10  N   UNL     1       7.917   4.304  16.869  0.00  0.00    +0.000 NA
ATOM     11  C   UNL     1       7.533   4.881  18.011  0.00  0.00    +0.000 A 
ATOM     12  C   UNL     1       6.129   4.916  18.160  0.00  0.00    +0.000 A 
ATOM     13  C   UNL     1       5.226   5.379  19.133  0.00  0.00    +0.000 A 
ATOM     14  H   UNL     1       6.786   3.496  15.385  0.00  0.00    +0.000 HD
ENDBRANCH   2   5
BRANCH   3  15
ATOM     15  C   UNL     1       1.507   7.499  20.791  0.00  0.00    +0.000 C 
BRANCH  15  16
ATOM     16  C   UNL     1       0.994   8.831  20.229  0.00  0.00    +0.000 C 
ATOM     17  O   UNL     1       1.502   9.237  19.176  0.00  0.00    +0.000 OA
ATOM     18  N   UNL     1       0.034   9.525  20.981  0.00  0.00    +0.000 N 
ATOM     19  C   UNL     1      -0.518   9.003  22.240  0.00  0.00    +0.000 C 
ATOM     20  C   UNL     1      -0.462  10.042  23.346  0.00  0.00    +0.000 C 
ATOM     21  C   UNL     1      -1.302  11.243  22.956  0.00  0.00    +0.000 C 
ATOM     22  C   UNL     1      -1.138  11.634  21.509  0.00  0.00    +0.000 A 
ATOM     23  C   UNL     1      -1.661  12.880  21.112  0.00  0.00    +0.000 A 
ATOM     24  C   UNL     1      -1.564  13.306  19.792  0.00  0.00    +0.000 A 
ATOM     25  C   UNL     1      -0.960  12.482  18.853  0.00  0.00    +0.000 A 
ATOM     26  C   UNL     1      -0.440  11.242  19.233  0.00  0.00    +0.000 A 
ATOM     27  C   UNL     1      -0.506  10.797  20.562  0.00  0.00    +0.000 A 
ENDBRANCH  15  16
ENDBRANCH   3  15
TORSDOF 3
ENDMDL
MODEL 2
REMARK VINA RESULT:      -8.5      0.842      1.394
REMARK  Name = 
REMARK  3 active torsions:
REMARK  status: ('A' for Active; 'I' for Inactive)
REMARK    1  A    between atoms: C_2  and  C_17
REMARK    2  A    between atoms: N_3  and  C_4
REMARK    3  A    between atoms: C_4  and  C_5
REMARK                            x       y       z     vdW  Elec       q    Type
REMARK                         _______ _______ _______ _____ _____    ______ ____
ROOT
ATOM      1  O   UNL     1       1.995   4.877  19.043  0.00  0.00    +0.000 OA
ATOM      2  C   UNL     1       2.952   5.633  19.165  0.00  0.00    +0.000 C 
ATOM      3  N   UNL     1       2.905   6.775  19.922  0.00  0.00    +0.000 N 
ATOM      4  H   UNL     1       3.661   7.453  19.926  0.00  0.00    +0.000 HD
ENDROOT
BRANCH   2   5
ATOM      5  C   UNL     1       4.222   5.368  18.438  0.00  0.00    +0.000 A 
ATOM      6  C   UNL     1       5.379   5.168  19.204  0.00  0.00    +0.000 A 
ATOM      7  C   UNL     1       6.617   4.924  18.603  0.00  0.00    +0.000 A 
ATOM      8  C   UNL     1       6.645   4.905  17.206  0.00  0.00    +0.000 A 
ATOM      9  N   UNL     1       7.675   4.715  16.322  0.00  0.00    +0.000 N 
ATOM     10  N   UNL     1       7.305   4.775  15.029  0.00  0.00    +0.000 NA
ATOM     11  C   UNL     1       5.993   5.012  15.092  0.00  0.00    +0.000 A 
ATOM     12  C   UNL     1       5.517   5.103  16.419  0.00  0.00    +0.000 A 
ATOM     13  C   UNL     1       4.276   5.339  17.034  0.00  0.00    +0.000 A 
ATOM     14  H   UNL     1       8.651   4.546  16.536  0.00  0.00    +0.000 HD
ENDBRANCH   2   5
BRANCH   3  15
ATOM     15  C   UNL     1       1.669   7.181  20.562  0.00  0.00    +0.000 C 
BRANCH  15  16
ATOM     16  C   UNL     1       1.220   8.538  20.006  0.00  0.00    +0.000 C 
ATOM     17  O   UNL     1       1.767   8.937  18.971  0.00  0.00    +0.000 OA
ATOM     18  N   UNL     1       0.269   9.259  20.745  0.00  0.00    +0.000 N 
ATOM     19  C   UNL     1      -0.332   8.743  21.983  0.00  0.00    +0.000 C 
ATOM     20  C   UNL     1      -0.264   9.765  23.104  0.00  0.00    +0.000 C 
ATOM     21  C   UNL     1      -1.049  11.002  22.710  0.00  0.00    +0.000 C 
ATOM     22  C   UNL     1      -0.835  11.404  21.272  0.00  0.00    +0.000 A 
ATOM     23  C   UNL     1      -1.301  12.673  20.880  0.00  0.00    +0.000 A 
ATOM     24  C   UNL     1      -1.157  13.112  19.568  0.00  0.00    +0.000 A 
ATOM     25  C   UNL     1      -0.562  12.278  18.633  0.00  0.00    +0.000 A 
ATOM     26  C   UNL     1      -0.099  11.014  19.009  0.00  0.00    +0.000 A 
ATOM     27  C   UNL     1      -0.213  10.555  20.330  0.00  0.00    +0.000 A 
ENDBRANCH  15  16
ENDBRANCH   3  15
TORSDOF 3
ENDMDL
MODEL 3
REMARK VINA RESULT:      -8.4      2.598      8.696
REMARK  Name = 
REMARK  3 active torsions:
REMARK  status: ('A' for Active; 'I' for Inactive)
REMARK    1  A    between atoms: C_2  and  C_17
REMARK    2  A    between atoms: N_3  and  C_4
REMARK    3  A    between atoms: C_4  and  C_5
REMARK                            x       y       z     vdW  Elec       q    Type
REMARK                         _______ _______ _______ _____ _____    ______ ____
ROOT
ATOM      1  O   UNL     1       1.314  10.849  19.867  0.00  0.00    +0.000 OA
ATOM      2  C   UNL     1       0.346  10.117  19.694  0.00  0.00    +0.000 C 
ATOM      3  N   UNL     1       0.338   8.797  20.064  0.00  0.00    +0.000 N 
ATOM      4  H   UNL     1      -0.420   8.170  19.815  0.00  0.00    +0.000 HD
ENDROOT
BRANCH   2   5
ATOM      5  C   UNL     1      -0.873  10.625  19.011  0.00  0.00    +0.000 A 
ATOM      6  C   UNL     1      -1.657  11.564  19.695  0.00  0.00    +0.000 A 
ATOM      7  C   UNL     1      -2.825  12.086  19.133  0.00  0.00    +0.000 A 
ATOM      8  C   UNL     1      -3.179  11.614  17.866  0.00  0.00    +0.000 A 
ATOM      9  N   UNL     1      -4.248  11.899  17.057  0.00  0.00    +0.000 N 
ATOM     10  N   UNL     1      -4.248  11.226  15.892  0.00  0.00    +0.000 NA
ATOM     11  C   UNL     1      -3.140  10.484  15.961  0.00  0.00    +0.000 A 
ATOM     12  C   UNL     1      -2.426  10.680  17.164  0.00  0.00    +0.000 A 
ATOM     13  C   UNL     1      -1.248  10.169  17.736  0.00  0.00    +0.000 A 
ATOM     14  H   UNL     1      -5.013  12.537  17.245  0.00  0.00    +0.000 HD
ENDBRANCH   2   5
BRANCH   3  15
ATOM     15  C   UNL     1       1.529   8.183  20.619  0.00  0.00    +0.000 C 
BRANCH  15  16
ATOM     16  C   UNL     1       2.284   7.430  19.517  0.00  0.00    +0.000 C 
ATOM     17  O   UNL     1       2.708   8.094  18.563  0.00  0.00    +0.000 OA
ATOM     18  N   UNL     1       2.384   6.035  19.636  0.00  0.00    +0.000 N 
ATOM     19  C   UNL     1       1.841   5.295  20.785  0.00  0.00    +0.000 C 
ATOM     20  C   UNL     1       0.989   4.121  20.339  0.00  0.00    +0.000 C 
ATOM     21  C   UNL     1       1.842   3.148  19.546  0.00  0.00    +0.000 C 
ATOM     22  C   UNL     1       2.788   3.834  18.593  0.00  0.00    +0.000 A 
ATOM     23  C   UNL     1       3.430   3.031  17.630  0.00  0.00    +0.000 A 
ATOM     24  C   UNL     1       4.329   3.585  16.726  0.00  0.00    +0.000 A 
ATOM     25  C   UNL     1       4.608   4.942  16.787  0.00  0.00    +0.000 A 
ATOM     26  C   UNL     1       3.981   5.749  17.740  0.00  0.00    +0.000 A 
ATOM     27  C   UNL     1       3.054   5.220  18.651  0.00  0.00    +0.000 A 
ENDBRANCH  15  16
ENDBRANCH   3  15
TORSDOF 3
ENDMDL
MODEL 4
REMARK VINA RESULT:      -8.4      2.646      8.906
REMARK  Name = 
REMARK  3 active torsions:
REMARK  status: ('A' for Active; 'I' for Inactive)
REMARK    1  A    between atoms: C_2  and  C_17
REMARK    2  A    between atoms: N_3  and  C_4
REMARK    3  A    between atoms: C_4  and  C_5
REMARK                            x       y       z     vdW  Elec       q    Type
REMARK                         _______ _______ _______ _____ _____    ______ ____
ROOT
ATOM      1  O   UNL     1       1.674   9.881  17.882  0.00  0.00    +0.000 OA
ATOM      2  C   UNL     1       0.787   9.787  18.724  0.00  0.00    +0.000 C 
ATOM      3  N   UNL     1       0.943   9.086  19.892  0.00  0.00    +0.000 N 
ATOM      4  H   UNL     1       0.171   8.917  20.528  0.00  0.00    +0.000 HD
ENDROOT
BRANCH   2   5
ATOM      5  C   UNL     1      -0.547  10.399  18.488  0.00  0.00    +0.000 A 
ATOM      6  C   UNL     1      -1.008  11.334  19.425  0.00  0.00    +0.000 A 
ATOM      7  C   UNL     1      -2.255  11.950  19.288  0.00  0.00    +0.000 A 
ATOM      8  C   UNL     1      -3.023  11.575  18.182  0.00  0.00    +0.000 A 
ATOM      9  N   UNL     1      -4.270  11.965  17.769  0.00  0.00    +0.000 N 
ATOM     10  N   UNL     1      -4.685  11.366  16.637  0.00  0.00    +0.000 NA
ATOM     11  C   UNL     1      -3.665  10.565  16.317  0.00  0.00    +0.000 A 
ATOM     12  C   UNL     1      -2.597  10.649  17.237  0.00  0.00    +0.000 A 
ATOM     13  C   UNL     1      -1.337  10.043  17.381  0.00  0.00    +0.000 A 
ATOM     14  H   UNL     1      -4.891  12.630  18.217  0.00  0.00    +0.000 HD
ENDBRANCH   2   5
BRANCH   3  15
ATOM     15  C   UNL     1       2.166   8.350  20.148  0.00  0.00    +0.000 C 
BRANCH  15  16
ATOM     16  C   UNL     1       1.900   6.845  20.019  0.00  0.00    +0.000 C 
ATOM     17  O   UNL     1       1.265   6.299  20.930  0.00  0.00    +0.000 OA
ATOM     18  N   UNL     1       2.450   6.182  18.911  0.00  0.00    +0.000 N 
ATOM     19  C   UNL     1       3.216   6.880  17.868  0.00  0.00    +0.000 C 
ATOM     20  C   UNL     1       4.535   6.183  17.585  0.00  0.00    +0.000 C 
ATOM     21  C   UNL     1       4.268   4.779  17.078  0.00  0.00    +0.000 C 
ATOM     22  C   UNL     1       3.161   4.080  17.826  0.00  0.00    +0.000 A 
ATOM     23  C   UNL     1       3.010   2.696  17.615  0.00  0.00    +0.000 A 
ATOM     24  C   UNL     1       2.004   1.983  18.255  0.00  0.00    +0.000 A 
ATOM     25  C   UNL     1       1.125   2.650  19.097  0.00  0.00    +0.000 A 
ATOM     26  C   UNL     1       1.262   4.024  19.312  0.00  0.00    +0.000 A 
ATOM     27  C   UNL     1       2.282   4.764  18.695  0.00  0.00    +0.000 A 
ENDBRANCH  15  16
ENDBRANCH   3  15
TORSDOF 3
ENDMDL
MODEL 5
REMARK VINA RESULT:      -8.2      2.828      8.967
REMARK  Name = 
REMARK  3 active torsions:
REMARK  status: ('A' for Active; 'I' for Inactive)
REMARK    1  A    between atoms: C_2  and  C_17
REMARK    2  A    between atoms: N_3  and  C_4
REMARK    3  A    between atoms: C_4  and  C_5
REMARK                            x       y       z     vdW  Elec       q    Type
REMARK                         _______ _______ _______ _____ _____    ______ ____
ROOT
ATOM      1  O   UNL     1       0.948  10.340  20.245  0.00  0.00    +0.000 OA
ATOM      2  C   UNL     1       0.462   9.968  19.182  0.00  0.00    +0.000 C 
ATOM      3  N   UNL     1       1.080   9.060  18.360  0.00  0.00    +0.000 N 
ATOM      4  H   UNL     1       0.730   8.844  17.433  0.00  0.00    +0.000 HD
ENDROOT
BRANCH   2   5
ATOM      5  C   UNL     1      -0.823  10.537  18.699  0.00  0.00    +0.000 A 
ATOM      6  C   UNL     1      -1.469  11.472  19.520  0.00  0.00    +0.000 A 
ATOM      7  C   UNL     1      -2.687  12.049  19.149  0.00  0.00    +0.000 A 
ATOM      8  C   UNL     1      -3.234  11.636  17.931  0.00  0.00    +0.000 A 
ATOM      9  N   UNL     1      -4.397  11.983  17.294  0.00  0.00    +0.000 N 
ATOM     10  N   UNL     1      -4.586  11.355  16.118  0.00  0.00    +0.000 NA
ATOM     11  C   UNL     1      -3.505  10.580  16.002  0.00  0.00    +0.000 A 
ATOM     12  C   UNL     1      -2.621  10.708  17.097  0.00  0.00    +0.000 A 
ATOM     13  C   UNL     1      -1.392  10.141  17.476  0.00  0.00    +0.000 A 
ATOM     14  H   UNL     1      -5.104  12.635  17.611  0.00  0.00    +0.000 HD
ENDBRANCH   2   5
BRANCH   3  15
ATOM     15  C   UNL     1       2.397   8.550  18.690  0.00  0.00    +0.000 C 
BRANCH  15  16
ATOM     16  C   UNL     1       2.262   7.285  19.546  0.00  0.00    +0.000 C 
ATOM     17  O   UNL     1       1.669   7.390  20.627  0.00  0.00    +0.000 OA
ATOM     18  N   UNL     1       2.874   6.114  19.074  0.00  0.00    +0.000 N 
ATOM     19  C   UNL     1       3.586   6.052  17.788  0.00  0.00    +0.000 C 
ATOM     20  C   UNL     1       4.961   5.430  17.942  0.00  0.00    +0.000 C 
ATOM     21  C   UNL     1       4.820   4.004  18.441  0.00  0.00    +0.000 C 
ATOM     22  C   UNL     1       3.771   3.855  19.514  0.00  0.00    +0.000 A 
ATOM     23  C   UNL     1       3.742   2.641  20.225  0.00  0.00    +0.000 A 
ATOM     24  C   UNL     1       2.795   2.419  21.219  0.00  0.00    +0.000 A 
ATOM     25  C   UNL     1       1.857   3.403  21.498  0.00  0.00    +0.000 A 
ATOM     26  C   UNL     1       1.874   4.611  20.796  0.00  0.00    +0.000 A 
ATOM     27  C   UNL     1       2.831   4.869  19.803  0.00  0.00    +0.000 A 
ENDBRANCH  15  16
ENDBRANCH   3  15
TORSDOF 3
ENDMDL
MODEL 6
REMARK VINA RESULT:      -8.2      2.985      9.118
REMARK  Name = 
REMARK  3 active torsions:
REMARK  status: ('A' for Active; 'I' for Inactive)
REMARK    1  A    between atoms: C_2  and  C_17
REMARK    2  A    between atoms: N_3  and  C_4
REMARK    3  A    between atoms: C_4  and  C_5
REMARK                            x       y       z     vdW  Elec       q    Type
REMARK                         _______ _______ _______ _____ _____    ______ ____
ROOT
ATOM      1  O   UNL     1       0.062  11.082  19.930  0.00  0.00    +0.000 OA
ATOM      2  C   UNL     1      -0.344  10.284  19.093  0.00  0.00    +0.000 C 
ATOM      3  N   UNL     1       0.360   9.163  18.733  0.00  0.00    +0.000 N 
ATOM      4  H   UNL     1       0.075   8.570  17.960  0.00  0.00    +0.000 HD
ENDROOT
BRANCH   2   5
ATOM      5  C   UNL     1      -1.622  10.526  18.374  0.00  0.00    +0.000 A 
ATOM      6  C   UNL     1      -1.787   9.921  17.120  0.00  0.00    +0.000 A 
ATOM      7  C   UNL     1      -2.952  10.105  16.370  0.00  0.00    +0.000 A 
ATOM      8  C   UNL     1      -3.933  10.931  16.924  0.00  0.00    +0.000 A 
ATOM      9  N   UNL     1      -5.159  11.326  16.454  0.00  0.00    +0.000 N 
ATOM     10  N   UNL     1      -5.826  12.148  17.286  0.00  0.00    +0.000 NA
ATOM     11  C   UNL     1      -4.995  12.282  18.323  0.00  0.00    +0.000 A 
ATOM     12  C   UNL     1      -3.799  11.549  18.162  0.00  0.00    +0.000 A 
ATOM     13  C   UNL     1      -2.626  11.350  18.911  0.00  0.00    +0.000 A 
ATOM     14  H   UNL     1      -5.594  11.075  15.574  0.00  0.00    +0.000 HD
ENDBRANCH   2   5
BRANCH   3  15
ATOM     15  C   UNL     1       1.677   8.914  19.288  0.00  0.00    +0.000 C 
BRANCH  15  16
ATOM     16  C   UNL     1       2.549   8.199  18.248  0.00  0.00    +0.000 C 
ATOM     17  O   UNL     1       2.826   8.821  17.215  0.00  0.00    +0.000 OA
ATOM     18  N   UNL     1       2.916   6.871  18.512  0.00  0.00    +0.000 N 
ATOM     19  C   UNL     1       2.537   6.174  19.751  0.00  0.00    +0.000 C 
ATOM     20  C   UNL     1       1.921   4.818  19.461  0.00  0.00    +0.000 C 
ATOM     21  C   UNL     1       2.934   3.942  18.749  0.00  0.00    +0.000 C 
ATOM     22  C   UNL     1       3.720   4.683  17.697  0.00  0.00    +0.000 A 
ATOM     23  C   UNL     1       4.492   3.914  16.805  0.00  0.00    +0.000 A 
ATOM     24  C   UNL     1       5.258   4.523  15.818  0.00  0.00    +0.000 A 
ATOM     25  C   UNL     1       5.273   5.908  15.724  0.00  0.00    +0.000 A 
ATOM     26  C   UNL     1       4.514   6.682  16.606  0.00  0.00    +0.000 A 
ATOM     27  C   UNL     1       3.717   6.092  17.599  0.00  0.00    +0.000 A 
ENDBRANCH  15  16
ENDBRANCH   3  15
TORSDOF 3
ENDMDL
MODEL 7
REMARK VINA RESULT:      -8.2      3.057      9.078
REMARK  Name = 
REMARK  3 active torsions:
REMARK  status: ('A' for Active; 'I' for Inactive)
REMARK    1  A    between atoms: C_2  and  C_17
REMARK    2  A    between atoms: N_3  and  C_4
REMARK    3  A    between atoms: C_4  and  C_5
REMARK                            x       y       z     vdW  Elec       q    Type
REMARK                         _______ _______ _______ _____ _____    ______ ____
ROOT
ATOM      1  O   UNL     1      -0.435  10.671  20.444  0.00  0.00    +0.000 OA
ATOM      2  C   UNL     1      -0.542  10.277  19.288  0.00  0.00    +0.000 C 
ATOM      3  N   UNL     1       0.465   9.618  18.631  0.00  0.00    +0.000 N 
ATOM      4  H   UNL     1       0.412   9.397  17.642  0.00  0.00    +0.000 HD
ENDROOT
BRANCH   2   5
ATOM      5  C   UNL     1      -1.779  10.549  18.509  0.00  0.00    +0.000 A 
ATOM      6  C   UNL     1      -1.874   9.991  17.226  0.00  0.00    +0.000 A 
ATOM      7  C   UNL     1      -2.995  10.204  16.420  0.00  0.00    +0.000 A 
ATOM      8  C   UNL     1      -4.006  11.011  16.950  0.00  0.00    +0.000 A 
ATOM      9  N   UNL     1      -5.204  11.425  16.427  0.00  0.00    +0.000 N 
ATOM     10  N   UNL     1      -5.916  12.216  17.251  0.00  0.00    +0.000 NA
ATOM     11  C   UNL     1      -5.144  12.311  18.336  0.00  0.00    +0.000 A 
ATOM     12  C   UNL     1      -3.941  11.582  18.215  0.00  0.00    +0.000 A 
ATOM     13  C   UNL     1      -2.811  11.353  19.020  0.00  0.00    +0.000 A 
ATOM     14  H   UNL     1      -5.590  11.208  15.516  0.00  0.00    +0.000 HD
ENDBRANCH   2   5
BRANCH   3  15
ATOM     15  C   UNL     1       1.753   9.423  19.270  0.00  0.00    +0.000 C 
BRANCH  15  16
ATOM     16  C   UNL     1       1.811   8.027  19.900  0.00  0.00    +0.000 C 
ATOM     17  O   UNL     1       1.391   7.907  21.058  0.00  0.00    +0.000 OA
ATOM     18  N   UNL     1       2.395   6.998  19.145  0.00  0.00    +0.000 N 
ATOM     19  C   UNL     1       2.899   7.204  17.779  0.00  0.00    +0.000 C 
ATOM     20  C   UNL     1       4.308   6.665  17.617  0.00  0.00    +0.000 C 
ATOM     21  C   UNL     1       4.312   5.169  17.873  0.00  0.00    +0.000 C 
ATOM     22  C   UNL     1       3.452   4.768  19.044  0.00  0.00    +0.000 A 
ATOM     23  C   UNL     1       3.589   3.453  19.527  0.00  0.00    +0.000 A 
ATOM     24  C   UNL     1       2.821   3.001  20.594  0.00  0.00    +0.000 A 
ATOM     25  C   UNL     1       1.894   3.854  21.176  0.00  0.00    +0.000 A 
ATOM     26  C   UNL     1       1.745   5.160  20.703  0.00  0.00    +0.000 A 
ATOM     27  C   UNL     1       2.523   5.649  19.642  0.00  0.00    +0.000 A 
ENDBRANCH  15  16
ENDBRANCH   3  15
TORSDOF 3
ENDMDL
MODEL 8
REMARK VINA RESULT:      -8.1      3.039      8.897
REMARK  Name = 
REMARK  3 active torsions:
REMARK  status: ('A' for Active; 'I' for Inactive)
REMARK    1  A    between atoms: C_2  and  C_17
REMARK    2  A    between atoms: N_3  and  C_4
REMARK    3  A    between atoms: C_4  and  C_5
REMARK                            x       y       z     vdW  Elec       q    Type
REMARK                         _______ _______ _______ _____ _____    ______ ____
ROOT
ATOM      1  O   UNL     1       0.130  10.746  19.818  0.00  0.00    +0.000 OA
ATOM      2  C   UNL     1      -0.173  10.330  18.705  0.00  0.00    +0.000 C 
ATOM      3  N   UNL     1       0.720   9.698  17.879  0.00  0.00    +0.000 N 
ATOM      4  H   UNL     1       0.495   9.460  16.919  0.00  0.00    +0.000 HD
ENDROOT
BRANCH   2   5
ATOM      5  C   UNL     1      -1.542  10.545  18.166  0.00  0.00    +0.000 A 
ATOM      6  C   UNL     1      -1.866   9.923  16.952  0.00  0.00    +0.000 A 
ATOM      7  C   UNL     1      -3.125  10.080  16.366  0.00  0.00    +0.000 A 
ATOM      8  C   UNL     1      -4.036  10.898  17.042  0.00  0.00    +0.000 A 
ATOM      9  N   UNL     1      -5.321  11.268  16.740  0.00  0.00    +0.000 N 
ATOM     10  N   UNL     1      -5.882  12.088  17.648  0.00  0.00    +0.000 NA
ATOM     11  C   UNL     1      -4.919  12.248  18.560  0.00  0.00    +0.000 A 
ATOM     12  C   UNL     1      -3.744  11.531  18.244  0.00  0.00    +0.000 A 
ATOM     13  C   UNL     1      -2.477  11.359  18.828  0.00  0.00    +0.000 A 
ATOM     14  H   UNL     1      -5.868  11.000  15.930  0.00  0.00    +0.000 HD
ENDBRANCH   2   5
BRANCH   3  15
ATOM     15  C   UNL     1       2.110   9.560  18.270  0.00  0.00    +0.000 C 
BRANCH  15  16
ATOM     16  C   UNL     1       2.629   8.179  17.851  0.00  0.00    +0.000 C 
ATOM     17  O   UNL     1       2.986   8.038  16.675  0.00  0.00    +0.000 OA
ATOM     18  N   UNL     1       2.602   7.157  18.813  0.00  0.00    +0.000 N 
ATOM     19  C   UNL     1       2.146   7.377  20.194  0.00  0.00    +0.000 C 
ATOM     20  C   UNL     1       1.127   6.335  20.616  0.00  0.00    +0.000 C 
ATOM     21  C   UNL     1       1.762   4.958  20.572  0.00  0.00    +0.000 C 
ATOM     22  C   UNL     1       2.636   4.749  19.361  0.00  0.00    +0.000 A 
ATOM     23  C   UNL     1       3.057   3.434  19.087  0.00  0.00    +0.000 A 
ATOM     24  C   UNL     1       3.878   3.161  17.998  0.00  0.00    +0.000 A 
ATOM     25  C   UNL     1       4.300   4.203  17.185  0.00  0.00    +0.000 A 
ATOM     26  C   UNL     1       3.891   5.512  17.449  0.00  0.00    +0.000 A 
ATOM     27  C   UNL     1       3.047   5.813  18.528  0.00  0.00    +0.000 A 
ENDBRANCH  15  16
ENDBRANCH   3  15
TORSDOF 3
ENDMDL
MODEL 9
REMARK VINA RESULT:      -8.1      2.759      8.854
REMARK  Name = 
REMARK  3 active torsions:
REMARK  status: ('A' for Active; 'I' for Inactive)
REMARK    1  A    between atoms: C_2  and  C_17
REMARK    2  A    between atoms: N_3  and  C_4
REMARK    3  A    between atoms: C_4  and  C_5
REMARK                            x       y       z     vdW  Elec       q    Type
REMARK                         _______ _______ _______ _____ _____    ______ ____
ROOT
ATOM      1  O   UNL     1       0.061   9.901  21.029  0.00  0.00    +0.000 OA
ATOM      2  C   UNL     1       0.051   9.653  19.828  0.00  0.00    +0.000 C 
ATOM      3  N   UNL     1       0.980   8.841  19.229  0.00  0.00    +0.000 N 
ATOM      4  H   UNL     1       1.035   8.732  18.222  0.00  0.00    +0.000 HD
ENDROOT
BRANCH   2   5
ATOM      5  C   UNL     1      -0.961  10.277  18.936  0.00  0.00    +0.000 A 
ATOM      6  C   UNL     1      -1.726  11.330  19.458  0.00  0.00    +0.000 A 
ATOM      7  C   UNL     1      -2.707  11.966  18.693  0.00  0.00    +0.000 A 
ATOM      8  C   UNL     1      -2.898  11.492  17.393  0.00  0.00    +0.000 A 
ATOM      9  N   UNL     1      -3.770  11.873  16.406  0.00  0.00    +0.000 N 
ATOM     10  N   UNL     1      -3.655  11.161  15.269  0.00  0.00    +0.000 NA
ATOM     11  C   UNL     1      -2.676  10.294  15.542  0.00  0.00    +0.000 A 
ATOM     12  C   UNL     1      -2.159  10.449  16.847  0.00  0.00    +0.000 A 
ATOM     13  C   UNL     1      -1.168   9.822  17.623  0.00  0.00    +0.000 A 
ATOM     14  H   UNL     1      -4.469  12.605  16.447  0.00  0.00    +0.000 HD
ENDBRANCH   2   5
BRANCH   3  15
ATOM     15  C   UNL     1       2.080   8.292  20.000  0.00  0.00    +0.000 C 
BRANCH  15  16
ATOM     16  C   UNL     1       2.053   6.761  19.919  0.00  0.00    +0.000 C 
ATOM     17  O   UNL     1       1.502   6.152  20.844  0.00  0.00    +0.000 OA
ATOM     18  N   UNL     1       2.711   6.157  18.837  0.00  0.00    +0.000 N 
ATOM     19  C   UNL     1       3.370   6.933  17.775  0.00  0.00    +0.000 C 
ATOM     20  C   UNL     1       4.785   6.443  17.523  0.00  0.00    +0.000 C 
ATOM     21  C   UNL     1       4.746   4.998  17.061  0.00  0.00    +0.000 C 
ATOM     22  C   UNL     1       3.754   4.159  17.826  0.00  0.00    +0.000 A 
ATOM     23  C   UNL     1       3.824   2.763  17.660  0.00  0.00    +0.000 A 
ATOM     24  C   UNL     1       2.934   1.922  18.318  0.00  0.00    +0.000 A 
ATOM     25  C   UNL     1       1.954   2.469  19.133  0.00  0.00    +0.000 A 
ATOM     26  C   UNL     1       1.871   3.854  19.303  0.00  0.00    +0.000 A 
ATOM     27  C   UNL     1       2.770   4.725  18.667  0.00  0.00    +0.000 A 
ENDBRANCH  15  16
ENDBRANCH   3  15
TORSDOF 3
ENDMDL
