MODEL 1
REMARK VINA RESULT:      -7.8      0.000      0.000
REMARK  Name = 
REMARK  3 active torsions:
REMARK  status: ('A' for Active; 'I' for Inactive)
REMARK    1  A    between atoms: C_4  and  C_5
REMARK    2  A    between atoms: C_11  and  C_12
REMARK    3  A    between atoms: C_21  and  C_22
REMARK                            x       y       z     vdW  Elec       q    Type
REMARK                         _______ _______ _______ _____ _____    ______ ____
ROOT
ATOM      1  O   UNL     1      -3.642  10.544  17.651  0.00  0.00    +0.000 OA
ATOM      2  C   UNL     1      -2.638  10.980  18.200  0.00  0.00    +0.000 C 
ATOM      3  N   UNL     1      -1.548  10.202  18.456  0.00  0.00    +0.000 N 
ATOM      4  C   UNL     1      -0.356  10.660  18.972  0.00  0.00    +0.000 C 
ATOM      5  C   UNL     1      -0.275  11.925  19.442  0.00  0.00    +0.000 C 
ATOM      6  C   UNL     1      -1.575  12.708  19.576  0.00  0.00    +0.000 C 
ATOM      7  N   UNL     1      -2.527  12.284  18.567  0.00  0.00    +0.000 N 
ATOM      8  H   UNL     1      -1.622   9.238  18.153  0.00  0.00    +0.000 HD
ATOM      9  H   UNL     1      -3.390  12.803  18.480  0.00  0.00    +0.000 HD
ENDROOT
BRANCH   5  10
ATOM     10  C   UNL     1       0.992  12.506  19.747  0.00  0.00    +0.000 A 
ATOM     11  N   UNL     1       1.597  12.775  20.887  0.00  0.00    +0.000 NA
ATOM     12  C   UNL     1       2.701  13.534  20.555  0.00  0.00    +0.000 A 
ATOM     13  C   UNL     1       3.686  14.111  21.372  0.00  0.00    +0.000 A 
ATOM     14  C   UNL     1       4.676  14.909  20.778  0.00  0.00    +0.000 A 
ATOM     15  C   UNL     1       4.692  15.121  19.396  0.00  0.00    +0.000 A 
ATOM     16  C   UNL     1       3.736  14.529  18.563  0.00  0.00    +0.000 A 
ATOM     17  C   UNL     1       2.761  13.744  19.181  0.00  0.00    +0.000 A 
ATOM     18  N   UNL     1       1.699  13.035  18.690  0.00  0.00    +0.000 N 
ATOM     19  H   UNL     1       1.440  12.963  17.717  0.00  0.00    +0.000 HD
ENDBRANCH   5  10
BRANCH   4  20
ATOM     20  C   UNL     1       0.712   9.651  19.005  0.00  0.00    +0.000 A 
ATOM     21  C   UNL     1       0.920   8.928  20.189  0.00  0.00    +0.000 A 
ATOM     22  C   UNL     1       1.814   7.859  20.215  0.00  0.00    +0.000 A 
ATOM     23  C   UNL     1       2.512   7.513  19.060  0.00  0.00    +0.000 A 
ATOM     24  C   UNL     1       2.320   8.236  17.882  0.00  0.00    +0.000 A 
ATOM     25  C   UNL     1       1.419   9.302  17.850  0.00  0.00    +0.000 A 
ENDBRANCH   4  20
BRANCH   6  26
ATOM     26  C   UNL     1      -2.199  12.616  20.966  0.00  0.00    +0.000 A 
ATOM     27  C   UNL     1      -3.441  13.214  21.226  0.00  0.00    +0.000 A 
ATOM     28  C   UNL     1      -4.026  13.119  22.492  0.00  0.00    +0.000 A 
ATOM     29  C   UNL     1      -3.383  12.423  23.515  0.00  0.00    +0.000 A 
ATOM     30  C   UNL     1      -2.154  11.821  23.275  0.00  0.00    +0.000 A 
ATOM     31  C   UNL     1      -1.569  11.915  22.013  0.00  0.00    +0.000 A 
ENDBRANCH   6  26
TORSDOF 3
ENDMDL
MODEL 2
REMARK VINA RESULT:      -7.6      0.632      1.112
REMARK  Name = 
REMARK  3 active torsions:
REMARK  status: ('A' for Active; 'I' for Inactive)
REMARK    1  A    between atoms: C_4  and  C_5
REMARK    2  A    between atoms: C_11  and  C_12
REMARK    3  A    between atoms: C_21  and  C_22
REMARK                            x       y       z     vdW  Elec       q    Type
REMARK                         _______ _______ _______ _____ _____    ______ ____
ROOT
ATOM      1  O   UNL     1      -3.410  10.135  16.876  0.00  0.00    +0.000 OA
ATOM      2  C   UNL     1      -2.472  10.645  17.475  0.00  0.00    +0.000 C 
ATOM      3  N   UNL     1      -1.407   9.921  17.921  0.00  0.00    +0.000 N 
ATOM      4  C   UNL     1      -0.278  10.454  18.503  0.00  0.00    +0.000 C 
ATOM      5  C   UNL     1      -0.258  11.763  18.844  0.00  0.00    +0.000 C 
ATOM      6  C   UNL     1      -1.573  12.528  18.763  0.00  0.00    +0.000 C 
ATOM      7  N   UNL     1      -2.412  11.983  17.713  0.00  0.00    +0.000 N 
ATOM      8  H   UNL     1      -1.440   8.929  17.715  0.00  0.00    +0.000 HD
ATOM      9  H   UNL     1      -3.267  12.472  17.485  0.00  0.00    +0.000 HD
ENDROOT
BRANCH   5  10
ATOM     10  C   UNL     1       0.964  12.398  19.213  0.00  0.00    +0.000 A 
ATOM     11  N   UNL     1       1.500  12.687  20.382  0.00  0.00    +0.000 NA
ATOM     12  C   UNL     1       2.583  13.496  20.108  0.00  0.00    +0.000 A 
ATOM     13  C   UNL     1       3.501  14.112  20.974  0.00  0.00    +0.000 A 
ATOM     14  C   UNL     1       4.481  14.958  20.432  0.00  0.00    +0.000 A 
ATOM     15  C   UNL     1       4.555  15.179  19.054  0.00  0.00    +0.000 A 
ATOM     16  C   UNL     1       3.669  14.550  18.172  0.00  0.00    +0.000 A 
ATOM     17  C   UNL     1       2.701  13.717  18.739  0.00  0.00    +0.000 A 
ATOM     18  N   UNL     1       1.697  12.965  18.194  0.00  0.00    +0.000 N 
ATOM     19  H   UNL     1       1.489  12.887  17.210  0.00  0.00    +0.000 HD
ENDBRANCH   5  10
BRANCH   4  20
ATOM     20  C   UNL     1       0.790   9.476  18.750  0.00  0.00    +0.000 A 
ATOM     21  C   UNL     1       0.890   8.893  20.022  0.00  0.00    +0.000 A 
ATOM     22  C   UNL     1       1.787   7.851  20.252  0.00  0.00    +0.000 A 
ATOM     23  C   UNL     1       2.596   7.393  19.214  0.00  0.00    +0.000 A 
ATOM     24  C   UNL     1       2.512   7.978  17.949  0.00  0.00    +0.000 A 
ATOM     25  C   UNL     1       1.608   9.016  17.714  0.00  0.00    +0.000 A 
ENDBRANCH   4  20
BRANCH   6  26
ATOM     26  C   UNL     1      -2.336  12.567  20.084  0.00  0.00    +0.000 A 
ATOM     27  C   UNL     1      -1.674  12.299  21.293  0.00  0.00    +0.000 A 
ATOM     28  C   UNL     1      -2.363  12.349  22.508  0.00  0.00    +0.000 A 
ATOM     29  C   UNL     1      -3.720  12.671  22.537  0.00  0.00    +0.000 A 
ATOM     30  C   UNL     1      -4.390  12.943  21.350  0.00  0.00    +0.000 A 
ATOM     31  C   UNL     1      -3.705  12.893  20.138  0.00  0.00    +0.000 A 
ENDBRANCH   6  26
TORSDOF 3
ENDMDL
MODEL 3
REMARK VINA RESULT:      -7.2      2.865      6.318
REMARK  Name = 
REMARK  3 active torsions:
REMARK  status: ('A' for Active; 'I' for Inactive)
REMARK    1  A    between atoms: C_4  and  C_5
REMARK    2  A    between atoms: C_11  and  C_12
REMARK    3  A    between atoms: C_21  and  C_22
REMARK                            x       y       z     vdW  Elec       q    Type
REMARK                         _______ _______ _______ _____ _____    ______ ____
ROOT
ATOM      1  O   UNL     1       0.634  15.903  23.168  0.00  0.00    +0.000 OA
ATOM      2  C   UNL     1       0.258  15.199  22.239  0.00  0.00    +0.000 C 
ATOM      3  N   UNL     1       0.318  13.838  22.281  0.00  0.00    +0.000 N 
ATOM      4  C   UNL     1      -0.187  12.995  21.316  0.00  0.00    +0.000 C 
ATOM      5  C   UNL     1      -0.616  13.509  20.141  0.00  0.00    +0.000 C 
ATOM      6  C   UNL     1      -0.314  14.976  19.865  0.00  0.00    +0.000 C 
ATOM      7  N   UNL     1      -0.276  15.727  21.106  0.00  0.00    +0.000 N 
ATOM      8  H   UNL     1       0.688  13.446  23.140  0.00  0.00    +0.000 HD
ATOM      9  H   UNL     1      -0.192  16.732  21.051  0.00  0.00    +0.000 HD
ENDROOT
BRANCH   5  10
ATOM     10  C   UNL     1      -1.366  12.708  19.229  0.00  0.00    +0.000 A 
ATOM     11  N   UNL     1      -1.052  12.124  18.090  0.00  0.00    +0.000 NA
ATOM     12  C   UNL     1      -2.243  11.677  17.557  0.00  0.00    +0.000 A 
ATOM     13  C   UNL     1      -2.505  11.005  16.352  0.00  0.00    +0.000 A 
ATOM     14  C   UNL     1      -3.837  10.725  16.009  0.00  0.00    +0.000 A 
ATOM     15  C   UNL     1      -4.888  11.097  16.852  0.00  0.00    +0.000 A 
ATOM     16  C   UNL     1      -4.645  11.740  18.071  0.00  0.00    +0.000 A 
ATOM     17  C   UNL     1      -3.311  12.010  18.385  0.00  0.00    +0.000 A 
ATOM     18  N   UNL     1      -2.720  12.612  19.462  0.00  0.00    +0.000 N 
ATOM     19  H   UNL     1      -3.203  12.980  20.268  0.00  0.00    +0.000 HD
ENDBRANCH   5  10
BRANCH   4  20
ATOM     20  C   UNL     1      -0.137  11.571  21.675  0.00  0.00    +0.000 A 
ATOM     21  C   UNL     1       0.763  10.736  20.995  0.00  0.00    +0.000 A 
ATOM     22  C   UNL     1       0.952   9.418  21.409  0.00  0.00    +0.000 A 
ATOM     23  C   UNL     1       0.237   8.925  22.498  0.00  0.00    +0.000 A 
ATOM     24  C   UNL     1      -0.670   9.746  23.170  0.00  0.00    +0.000 A 
ATOM     25  C   UNL     1      -0.855  11.069  22.764  0.00  0.00    +0.000 A 
ENDBRANCH   4  20
BRANCH   6  26
ATOM     26  C   UNL     1       0.974  15.193  19.076  0.00  0.00    +0.000 A 
ATOM     27  C   UNL     1       1.317  16.473  18.615  0.00  0.00    +0.000 A 
ATOM     28  C   UNL     1       2.503  16.682  17.906  0.00  0.00    +0.000 A 
ATOM     29  C   UNL     1       3.367  15.618  17.649  0.00  0.00    +0.000 A 
ATOM     30  C   UNL     1       3.046  14.343  18.101  0.00  0.00    +0.000 A 
ATOM     31  C   UNL     1       1.864  14.134  18.808  0.00  0.00    +0.000 A 
ENDBRANCH   6  26
TORSDOF 3
ENDMDL
MODEL 4
REMARK VINA RESULT:      -7.0      3.516      6.907
REMARK  Name = 
REMARK  3 active torsions:
REMARK  status: ('A' for Active; 'I' for Inactive)
REMARK    1  A    between atoms: C_4  and  C_5
REMARK    2  A    between atoms: C_11  and  C_12
REMARK    3  A    between atoms: C_21  and  C_22
REMARK                            x       y       z     vdW  Elec       q    Type
REMARK                         _______ _______ _______ _____ _____    ______ ____
ROOT
ATOM      1  O   UNL     1      -0.108  15.801  24.154  0.00  0.00    +0.000 OA
ATOM      2  C   UNL     1      -0.810  15.211  23.342  0.00  0.00    +0.000 C 
ATOM      3  N   UNL     1      -0.559  13.930  22.952  0.00  0.00    +0.000 N 
ATOM      4  C   UNL     1      -1.370  13.182  22.128  0.00  0.00    +0.000 C 
ATOM      5  C   UNL     1      -2.403  13.779  21.490  0.00  0.00    +0.000 C 
ATOM      6  C   UNL     1      -2.480  15.299  21.549  0.00  0.00    +0.000 C 
ATOM      7  N   UNL     1      -1.912  15.786  22.792  0.00  0.00    +0.000 N 
ATOM      8  H   UNL     1       0.245  13.493  23.387  0.00  0.00    +0.000 HD
ATOM      9  H   UNL     1      -2.000  16.771  23.001  0.00  0.00    +0.000 HD
ENDROOT
BRANCH   5  10
ATOM     10  C   UNL     1      -3.401  12.998  20.836  0.00  0.00    +0.000 A 
ATOM     11  N   UNL     1      -3.512  12.544  19.603  0.00  0.00    +0.000 NA
ATOM     12  C   UNL     1      -4.793  12.043  19.501  0.00  0.00    +0.000 A 
ATOM     13  C   UNL     1      -5.457  11.458  18.411  0.00  0.00    +0.000 A 
ATOM     14  C   UNL     1      -6.804  11.093  18.555  0.00  0.00    +0.000 A 
ATOM     15  C   UNL     1      -7.477  11.298  19.763  0.00  0.00    +0.000 A 
ATOM     16  C   UNL     1      -6.824  11.851  20.870  0.00  0.00    +0.000 A 
ATOM     17  C   UNL     1      -5.485  12.208  20.697  0.00  0.00    +0.000 A 
ATOM     18  N   UNL     1      -4.562  12.764  21.540  0.00  0.00    +0.000 N 
ATOM     19  H   UNL     1      -4.723  13.017  22.504  0.00  0.00    +0.000 HD
ENDBRANCH   5  10
BRANCH   4  20
ATOM     20  C   UNL     1      -0.958  11.779  21.989  0.00  0.00    +0.000 A 
ATOM     21  C   UNL     1      -0.269  11.390  20.830  0.00  0.00    +0.000 A 
ATOM     22  C   UNL     1       0.274  10.111  20.728  0.00  0.00    +0.000 A 
ATOM     23  C   UNL     1       0.123   9.209  21.780  0.00  0.00    +0.000 A 
ATOM     24  C   UNL     1      -0.573   9.585  22.930  0.00  0.00    +0.000 A 
ATOM     25  C   UNL     1      -1.111  10.869  23.039  0.00  0.00    +0.000 A 
ENDBRANCH   4  20
BRANCH   6  26
ATOM     26  C   UNL     1      -1.818  15.987  20.359  0.00  0.00    +0.000 A 
ATOM     27  C   UNL     1      -0.761  15.364  19.677  0.00  0.00    +0.000 A 
ATOM     28  C   UNL     1      -0.161  15.982  18.576  0.00  0.00    +0.000 A 
ATOM     29  C   UNL     1      -0.608  17.227  18.136  0.00  0.00    +0.000 A 
ATOM     30  C   UNL     1      -1.656  17.857  18.796  0.00  0.00    +0.000 A 
ATOM     31  C   UNL     1      -2.255  17.243  19.894  0.00  0.00    +0.000 A 
ENDBRANCH   6  26
TORSDOF 3
ENDMDL
MODEL 5
REMARK VINA RESULT:      -6.9      1.920      5.433
REMARK  Name = 
REMARK  3 active torsions:
REMARK  status: ('A' for Active; 'I' for Inactive)
REMARK    1  A    between atoms: C_4  and  C_5
REMARK    2  A    between atoms: C_11  and  C_12
REMARK    3  A    between atoms: C_21  and  C_22
REMARK                            x       y       z     vdW  Elec       q    Type
REMARK                         _______ _______ _______ _____ _____    ______ ____
ROOT
ATOM      1  O   UNL     1      -2.887  14.154  21.191  0.00  0.00    +0.000 OA
ATOM      2  C   UNL     1      -2.151  13.304  20.704  0.00  0.00    +0.000 C 
ATOM      3  N   UNL     1      -0.904  13.596  20.238  0.00  0.00    +0.000 N 
ATOM      4  C   UNL     1       0.005  12.668  19.780  0.00  0.00    +0.000 C 
ATOM      5  C   UNL     1      -0.388  11.388  19.590  0.00  0.00    +0.000 C 
ATOM      6  C   UNL     1      -1.879  11.090  19.685  0.00  0.00    +0.000 C 
ATOM      7  N   UNL     1      -2.517  11.997  20.621  0.00  0.00    +0.000 N 
ATOM      8  H   UNL     1      -0.622  14.565  20.329  0.00  0.00    +0.000 HD
ATOM      9  H   UNL     1      -3.486  11.834  20.856  0.00  0.00    +0.000 HD
ENDROOT
BRANCH   5  10
ATOM     10  C   UNL     1       0.573  10.360  19.360  0.00  0.00    +0.000 A 
ATOM     11  N   UNL     1       1.295  10.033  18.307  0.00  0.00    +0.000 NA
ATOM     12  C   UNL     1       1.877   8.820  18.612  0.00  0.00    +0.000 A 
ATOM     13  C   UNL     1       2.725   8.002  17.849  0.00  0.00    +0.000 A 
ATOM     14  C   UNL     1       3.124   6.763  18.376  0.00  0.00    +0.000 A 
ATOM     15  C   UNL     1       2.694   6.350  19.640  0.00  0.00    +0.000 A 
ATOM     16  C   UNL     1       1.874   7.166  20.427  0.00  0.00    +0.000 A 
ATOM     17  C   UNL     1       1.490   8.391  19.877  0.00  0.00    +0.000 A 
ATOM     18  N   UNL     1       0.710   9.411  20.350  0.00  0.00    +0.000 N 
ATOM     19  H   UNL     1       0.258   9.436  21.252  0.00  0.00    +0.000 HD
ENDBRANCH   5  10
BRANCH   4  20
ATOM     20  C   UNL     1       1.333  13.222  19.484  0.00  0.00    +0.000 A 
ATOM     21  C   UNL     1       1.624  13.605  18.166  0.00  0.00    +0.000 A 
ATOM     22  C   UNL     1       2.811  14.276  17.872  0.00  0.00    +0.000 A 
ATOM     23  C   UNL     1       3.716  14.558  18.893  0.00  0.00    +0.000 A 
ATOM     24  C   UNL     1       3.439  14.168  20.204  0.00  0.00    +0.000 A 
ATOM     25  C   UNL     1       2.248  13.504  20.502  0.00  0.00    +0.000 A 
ENDBRANCH   4  20
BRANCH   6  26
ATOM     26  C   UNL     1      -2.594  11.131  18.338  0.00  0.00    +0.000 A 
ATOM     27  C   UNL     1      -3.929  11.555  18.256  0.00  0.00    +0.000 A 
ATOM     28  C   UNL     1      -4.585  11.609  17.022  0.00  0.00    +0.000 A 
ATOM     29  C   UNL     1      -3.918  11.247  15.853  0.00  0.00    +0.000 A 
ATOM     30  C   UNL     1      -2.594  10.828  15.914  0.00  0.00    +0.000 A 
ATOM     31  C   UNL     1      -1.939  10.773  17.143  0.00  0.00    +0.000 A 
ENDBRANCH   6  26
TORSDOF 3
ENDMDL
MODEL 6
REMARK VINA RESULT:      -6.8      2.819      6.812
REMARK  Name = 
REMARK  3 active torsions:
REMARK  status: ('A' for Active; 'I' for Inactive)
REMARK    1  A    between atoms: C_4  and  C_5
REMARK    2  A    between atoms: C_11  and  C_12
REMARK    3  A    between atoms: C_21  and  C_22
REMARK                            x       y       z     vdW  Elec       q    Type
REMARK                         _______ _______ _______ _____ _____    ______ ____
ROOT
ATOM      1  O   UNL     1       2.834  12.173  18.151  0.00  0.00    +0.000 OA
ATOM      2  C   UNL     1       1.651  12.184  18.469  0.00  0.00    +0.000 C 
ATOM      3  N   UNL     1       1.022  13.310  18.909  0.00  0.00    +0.000 N 
ATOM      4  C   UNL     1      -0.325  13.408  19.178  0.00  0.00    +0.000 C 
ATOM      5  C   UNL     1      -1.084  12.289  19.196  0.00  0.00    +0.000 C 
ATOM      6  C   UNL     1      -0.360  10.949  19.134  0.00  0.00    +0.000 C 
ATOM      7  N   UNL     1       0.870  11.075  18.376  0.00  0.00    +0.000 N 
ATOM      8  H   UNL     1       1.599  14.143  18.948  0.00  0.00    +0.000 HD
ATOM      9  H   UNL     1       1.389  10.233  18.169  0.00  0.00    +0.000 HD
ENDROOT
BRANCH   5  10
ATOM     10  C   UNL     1      -2.507  12.377  19.222  0.00  0.00    +0.000 A 
ATOM     11  N   UNL     1      -3.369  12.602  20.194  0.00  0.00    +0.000 NA
ATOM     12  C   UNL     1      -4.615  12.351  19.657  0.00  0.00    +0.000 A 
ATOM     13  C   UNL     1      -5.888  12.411  20.246  0.00  0.00    +0.000 A 
ATOM     14  C   UNL     1      -7.004  12.029  19.486  0.00  0.00    +0.000 A 
ATOM     15  C   UNL     1      -6.858  11.605  18.162  0.00  0.00    +0.000 A 
ATOM     16  C   UNL     1      -5.601  11.567  17.548  0.00  0.00    +0.000 A 
ATOM     17  C   UNL     1      -4.508  11.949  18.329  0.00  0.00    +0.000 A 
ATOM     18  N   UNL     1      -3.168  12.029  18.065  0.00  0.00    +0.000 N 
ATOM     19  H   UNL     1      -2.729  11.809  17.183  0.00  0.00    +0.000 HD
ENDBRANCH   5  10
BRANCH   4  20
ATOM     20  C   UNL     1      -0.780  14.771  19.486  0.00  0.00    +0.000 A 
ATOM     21  C   UNL     1      -1.262  15.045  20.774  0.00  0.00    +0.000 A 
ATOM     22  C   UNL     1      -1.556  16.354  21.153  0.00  0.00    +0.000 A 
ATOM     23  C   UNL     1      -1.379  17.394  20.243  0.00  0.00    +0.000 A 
ATOM     24  C   UNL     1      -0.913  17.126  18.955  0.00  0.00    +0.000 A 
ATOM     25  C   UNL     1      -0.609  15.818  18.575  0.00  0.00    +0.000 A 
ENDBRANCH   4  20
BRANCH   6  26
ATOM     26  C   UNL     1      -0.078  10.347  20.507  0.00  0.00    +0.000 A 
ATOM     27  C   UNL     1       0.850   9.303  20.646  0.00  0.00    +0.000 A 
ATOM     28  C   UNL     1       1.125   8.758  21.904  0.00  0.00    +0.000 A 
ATOM     29  C   UNL     1       0.483   9.247  23.040  0.00  0.00    +0.000 A 
ATOM     30  C   UNL     1      -0.436  10.282  22.922  0.00  0.00    +0.000 A 
ATOM     31  C   UNL     1      -0.712  10.827  21.669  0.00  0.00    +0.000 A 
ENDBRANCH   6  26
TORSDOF 3
ENDMDL
MODEL 7
REMARK VINA RESULT:      -6.8      3.782      7.093
REMARK  Name = 
REMARK  3 active torsions:
REMARK  status: ('A' for Active; 'I' for Inactive)
REMARK    1  A    between atoms: C_4  and  C_5
REMARK    2  A    between atoms: C_11  and  C_12
REMARK    3  A    between atoms: C_21  and  C_22
REMARK                            x       y       z     vdW  Elec       q    Type
REMARK                         _______ _______ _______ _____ _____    ______ ____
ROOT
ATOM      1  O   UNL     1      -7.917  13.648  24.750  0.00  0.00    +0.000 OA
ATOM      2  C   UNL     1      -6.861  13.422  24.171  0.00  0.00    +0.000 C 
ATOM      3  N   UNL     1      -5.776  14.239  24.282  0.00  0.00    +0.000 N 
ATOM      4  C   UNL     1      -4.535  13.981  23.744  0.00  0.00    +0.000 C 
ATOM      5  C   UNL     1      -4.383  12.948  22.884  0.00  0.00    +0.000 C 
ATOM      6  C   UNL     1      -5.647  12.258  22.387  0.00  0.00    +0.000 C 
ATOM      7  N   UNL     1      -6.687  12.318  23.397  0.00  0.00    +0.000 N 
ATOM      8  H   UNL     1      -5.899  15.044  24.885  0.00  0.00    +0.000 HD
ATOM      9  H   UNL     1      -7.540  11.801  23.233  0.00  0.00    +0.000 HD
ENDROOT
BRANCH   5  10
ATOM     10  C   UNL     1      -3.082  12.502  22.507  0.00  0.00    +0.000 A 
ATOM     11  N   UNL     1      -2.363  12.672  21.415  0.00  0.00    +0.000 NA
ATOM     12  C   UNL     1      -1.282  11.825  21.542  0.00  0.00    +0.000 A 
ATOM     13  C   UNL     1      -0.210  11.581  20.668  0.00  0.00    +0.000 A 
ATOM     14  C   UNL     1       0.733  10.600  21.011  0.00  0.00    +0.000 A 
ATOM     15  C   UNL     1       0.619   9.882  22.205  0.00  0.00    +0.000 A 
ATOM     16  C   UNL     1      -0.424  10.133  23.103  0.00  0.00    +0.000 A 
ATOM     17  C   UNL     1      -1.351  11.111  22.735  0.00  0.00    +0.000 A 
ATOM     18  N   UNL     1      -2.470  11.601  23.350  0.00  0.00    +0.000 N 
ATOM     19  H   UNL     1      -2.823  11.306  24.248  0.00  0.00    +0.000 HD
ENDBRANCH   5  10
BRANCH   4  20
ATOM     20  C   UNL     1      -3.495  14.940  24.141  0.00  0.00    +0.000 A 
ATOM     21  C   UNL     1      -2.872  14.780  25.388  0.00  0.00    +0.000 A 
ATOM     22  C   UNL     1      -1.777  15.571  25.735  0.00  0.00    +0.000 A 
ATOM     23  C   UNL     1      -1.307  16.532  24.843  0.00  0.00    +0.000 A 
ATOM     24  C   UNL     1      -1.931  16.706  23.607  0.00  0.00    +0.000 A 
ATOM     25  C   UNL     1      -3.022  15.909  23.252  0.00  0.00    +0.000 A 
ENDBRANCH   4  20
BRANCH   6  26
ATOM     26  C   UNL     1      -6.162  12.814  21.063  0.00  0.00    +0.000 A 
ATOM     27  C   UNL     1      -5.788  14.099  20.640  0.00  0.00    +0.000 A 
ATOM     28  C   UNL     1      -6.243  14.608  19.420  0.00  0.00    +0.000 A 
ATOM     29  C   UNL     1      -7.074  13.844  18.603  0.00  0.00    +0.000 A 
ATOM     30  C   UNL     1      -7.452  12.568  19.004  0.00  0.00    +0.000 A 
ATOM     31  C   UNL     1      -7.000  12.059  20.219  0.00  0.00    +0.000 A 
ENDBRANCH   6  26
TORSDOF 3
ENDMDL
MODEL 8
REMARK VINA RESULT:      -6.7      0.517      1.314
REMARK  Name = 
REMARK  3 active torsions:
REMARK  status: ('A' for Active; 'I' for Inactive)
REMARK    1  A    between atoms: C_4  and  C_5
REMARK    2  A    between atoms: C_11  and  C_12
REMARK    3  A    between atoms: C_21  and  C_22
REMARK                            x       y       z     vdW  Elec       q    Type
REMARK                         _______ _______ _______ _____ _____    ______ ____
ROOT
ATOM      1  O   UNL     1      -4.070  10.916  17.949  0.00  0.00    +0.000 OA
ATOM      2  C   UNL     1      -3.015  11.292  18.444  0.00  0.00    +0.000 C 
ATOM      3  N   UNL     1      -1.972  10.445  18.673  0.00  0.00    +0.000 N 
ATOM      4  C   UNL     1      -0.729  10.828  19.126  0.00  0.00    +0.000 C 
ATOM      5  C   UNL     1      -0.539  12.095  19.561  0.00  0.00    +0.000 C 
ATOM      6  C   UNL     1      -1.774  12.970  19.732  0.00  0.00    +0.000 C 
ATOM      7  N   UNL     1      -2.797  12.593  18.775  0.00  0.00    +0.000 N 
ATOM      8  H   UNL     1      -2.125   9.482  18.397  0.00  0.00    +0.000 HD
ATOM      9  H   UNL     1      -3.625  13.169  18.712  0.00  0.00    +0.000 HD
ENDROOT
BRANCH   5  10
ATOM     10  C   UNL     1       0.777  12.591  19.799  0.00  0.00    +0.000 A 
ATOM     11  N   UNL     1       1.476  12.772  20.901  0.00  0.00    +0.000 NA
ATOM     12  C   UNL     1       2.594  13.485  20.524  0.00  0.00    +0.000 A 
ATOM     13  C   UNL     1       3.666  13.969  21.290  0.00  0.00    +0.000 A 
ATOM     14  C   UNL     1       4.655  14.740  20.661  0.00  0.00    +0.000 A 
ATOM     15  C   UNL     1       4.586  15.018  19.293  0.00  0.00    +0.000 A 
ATOM     16  C   UNL     1       3.541  14.519  18.506  0.00  0.00    +0.000 A 
ATOM     17  C   UNL     1       2.569  13.758  19.159  0.00  0.00    +0.000 A 
ATOM     18  N   UNL     1       1.436  13.132  18.717  0.00  0.00    +0.000 N 
ATOM     19  H   UNL     1       1.105  13.121  17.764  0.00  0.00    +0.000 HD
ENDBRANCH   5  10
BRANCH   4  20
ATOM     20  C   UNL     1       0.267   9.748  19.138  0.00  0.00    +0.000 A 
ATOM     21  C   UNL     1       0.984   9.479  17.962  0.00  0.00    +0.000 A 
ATOM     22  C   UNL     1       2.042   8.572  17.974  0.00  0.00    +0.000 A 
ATOM     23  C   UNL     1       2.383   7.920  19.157  0.00  0.00    +0.000 A 
ATOM     24  C   UNL     1       1.664   8.172  20.327  0.00  0.00    +0.000 A 
ATOM     25  C   UNL     1       0.610   9.087  20.321  0.00  0.00    +0.000 A 
ENDBRANCH   4  20
BRANCH   6  26
ATOM     26  C   UNL     1      -2.341  12.951  21.148  0.00  0.00    +0.000 A 
ATOM     27  C   UNL     1      -1.495  13.133  22.253  0.00  0.00    +0.000 A 
ATOM     28  C   UNL     1      -2.011  13.133  23.553  0.00  0.00    +0.000 A 
ATOM     29  C   UNL     1      -3.377  12.956  23.769  0.00  0.00    +0.000 A 
ATOM     30  C   UNL     1      -4.230  12.779  22.687  0.00  0.00    +0.000 A 
ATOM     31  C   UNL     1      -3.718  12.778  21.391  0.00  0.00    +0.000 A 
ENDBRANCH   6  26
TORSDOF 3
ENDMDL
MODEL 9
REMARK VINA RESULT:      -6.7      2.650      3.306
REMARK  Name = 
REMARK  3 active torsions:
REMARK  status: ('A' for Active; 'I' for Inactive)
REMARK    1  A    between atoms: C_4  and  C_5
REMARK    2  A    between atoms: C_11  and  C_12
REMARK    3  A    between atoms: C_21  and  C_22
REMARK                            x       y       z     vdW  Elec       q    Type
REMARK                         _______ _______ _______ _____ _____    ______ ____
ROOT
ATOM      1  O   UNL     1      -3.386   9.477  15.250  0.00  0.00    +0.000 OA
ATOM      2  C   UNL     1      -3.037  10.185  16.186  0.00  0.00    +0.000 C 
ATOM      3  N   UNL     1      -2.070   9.808  17.069  0.00  0.00    +0.000 N 
ATOM      4  C   UNL     1      -1.564  10.603  18.073  0.00  0.00    +0.000 C 
ATOM      5  C   UNL     1      -2.164  11.782  18.356  0.00  0.00    +0.000 C 
ATOM      6  C   UNL     1      -3.505  12.064  17.690  0.00  0.00    +0.000 C 
ATOM      7  N   UNL     1      -3.571  11.418  16.393  0.00  0.00    +0.000 N 
ATOM      8  H   UNL     1      -1.652   8.901  16.894  0.00  0.00    +0.000 HD
ATOM      9  H   UNL     1      -4.367  11.618  15.803  0.00  0.00    +0.000 HD
ENDROOT
BRANCH   5  10
ATOM     10  C   UNL     1      -1.528  12.734  19.207  0.00  0.00    +0.000 A 
ATOM     11  N   UNL     1      -1.646  12.999  20.492  0.00  0.00    +0.000 NA
ATOM     12  C   UNL     1      -0.942  14.167  20.700  0.00  0.00    +0.000 A 
ATOM     13  C   UNL     1      -0.748  14.916  21.872  0.00  0.00    +0.000 A 
ATOM     14  C   UNL     1      -0.039  16.124  21.794  0.00  0.00    +0.000 A 
ATOM     15  C   UNL     1       0.477  16.576  20.576  0.00  0.00    +0.000 A 
ATOM     16  C   UNL     1       0.320  15.829  19.403  0.00  0.00    +0.000 A 
ATOM     17  C   UNL     1      -0.393  14.632  19.509  0.00  0.00    +0.000 A 
ATOM     18  N   UNL     1      -0.733  13.676  18.592  0.00  0.00    +0.000 N 
ATOM     19  H   UNL     1      -0.492  13.690  17.612  0.00  0.00    +0.000 HD
ENDBRANCH   5  10
BRANCH   4  20
ATOM     20  C   UNL     1      -0.420  10.018  18.785  0.00  0.00    +0.000 A 
ATOM     21  C   UNL     1      -0.550   9.737  20.154  0.00  0.00    +0.000 A 
ATOM     22  C   UNL     1       0.452   9.041  20.829  0.00  0.00    +0.000 A 
ATOM     23  C   UNL     1       1.593   8.631  20.143  0.00  0.00    +0.000 A 
ATOM     24  C   UNL     1       1.735   8.920  18.785  0.00  0.00    +0.000 A 
ATOM     25  C   UNL     1       0.729   9.608  18.103  0.00  0.00    +0.000 A 
ENDBRANCH   4  20
BRANCH   6  26
ATOM     26  C   UNL     1      -4.703  11.661  18.545  0.00  0.00    +0.000 A 
ATOM     27  C   UNL     1      -4.997  12.357  19.727  0.00  0.00    +0.000 A 
ATOM     28  C   UNL     1      -6.103  12.004  20.506  0.00  0.00    +0.000 A 
ATOM     29  C   UNL     1      -6.934  10.955  20.114  0.00  0.00    +0.000 A 
ATOM     30  C   UNL     1      -6.661  10.257  18.944  0.00  0.00    +0.000 A 
ATOM     31  C   UNL     1      -5.559  10.607  18.167  0.00  0.00    +0.000 A 
ENDBRANCH   6  26
TORSDOF 3
ENDMDL
