MODEL 1
REMARK VINA RESULT:      -9.0      0.000      0.000
REMARK  Name = 
REMARK  6 active torsions:
REMARK  status: ('A' for Active; 'I' for Inactive)
REMARK    1  A    between atoms: C_1  and  N_2
REMARK    2  A    between atoms: C_6  and  C_7
REMARK    3  A    between atoms: C_7  and  C_8
REMARK    4  A    between atoms: C_8  and  C_9
REMARK    5  A    between atoms: C_13  and  N_14
REMARK    6  A    between atoms: C_17  and  C_18
REMARK                            x       y       z     vdW  Elec       q    Type
REMARK                         _______ _______ _______ _____ _____    ______ ____
ROOT
ATOM      1  C   UNL     1       4.530   4.847  17.191  0.00  0.00    +0.000 A 
ATOM      2  C   UNL     1       3.702   3.718  17.067  0.00  0.00    +0.000 A 
ATOM      3  C   UNL     1       2.405   3.705  17.580  0.00  0.00    +0.000 A 
ATOM      4  C   UNL     1       1.890   4.832  18.223  0.00  0.00    +0.000 A 
ATOM      5  C   UNL     1       2.652   5.994  18.343  0.00  0.00    +0.000 A 
ATOM      6  C   UNL     1       3.954   5.973  17.819  0.00  0.00    +0.000 A 
ENDROOT
BRANCH   5   7
ATOM      7  N   UNL     1       2.171   7.167  18.986  0.00  0.00    +0.000 N 
ATOM      8  C   UNL     1       1.820   7.180  20.383  0.00  0.00    +0.000 C 
ATOM      9  C   UNL     1       1.323   8.563  20.561  0.00  0.00    +0.000 C 
ATOM     10  C   UNL     1       1.407   9.285  19.431  0.00  0.00    +0.000 C 
ATOM     11  C   UNL     1       1.997   8.423  18.407  0.00  0.00    +0.000 C 
ATOM     12  O   UNL     1       2.259   8.801  17.279  0.00  0.00    +0.000 OA
BRANCH  10  13
ATOM     13  C   UNL     1       0.984  10.665  19.152  0.00  0.00    +0.000 C 
ATOM     14  F   UNL     1       1.926  11.464  18.601  0.00  0.00    +0.000 F 
ATOM     15  F   UNL     1      -0.078  10.679  18.300  0.00  0.00    +0.000 F 
ATOM     16  F   UNL     1       0.558  11.289  20.285  0.00  0.00    +0.000 F 
ENDBRANCH  10  13
ENDBRANCH   5   7
BRANCH   1  17
ATOM     17  C   UNL     1       6.070   4.863  16.721  0.00  0.00    +0.000 C 
ATOM     18  C   UNL     1       6.764   6.255  16.611  0.00  0.00    +0.000 C 
ATOM     19  O   UNL     1       7.730   5.927  17.629  0.00  0.00    +0.000 OA
ATOM     20  C   UNL     1       7.101   4.655  17.871  0.00  0.00    +0.000 C 
BRANCH  17  21
ATOM     21  C   UNL     1       6.317   3.916  15.518  0.00  0.00    +0.000 C 
BRANCH  21  27
ATOM     22  C   UNL     1       5.806   3.313  12.428  0.00  0.00    +0.000 C 
ATOM     23  N   UNL     1       6.719   4.266  13.003  0.00  0.00    +0.000 N 
ATOM     24  C   UNL     1       7.555   5.058  12.277  0.00  0.00    +0.000 A 
ATOM     25  N   UNL     1       8.280   5.789  13.083  0.00  0.00    +0.000 NA
ATOM     26  N   UNL     1       7.924   5.466  14.370  0.00  0.00    +0.000 NA
ATOM     27  C   UNL     1       6.962   4.560  14.328  0.00  0.00    +0.000 A 
ENDBRANCH  21  27
ENDBRANCH  17  21
ENDBRANCH   1  17
TORSDOF 5
ENDMDL
MODEL 2
REMARK VINA RESULT:      -8.9      1.298      1.770
REMARK  Name = 
REMARK  6 active torsions:
REMARK  status: ('A' for Active; 'I' for Inactive)
REMARK    1  A    between atoms: C_1  and  N_2
REMARK    2  A    between atoms: C_6  and  C_7
REMARK    3  A    between atoms: C_7  and  C_8
REMARK    4  A    between atoms: C_8  and  C_9
REMARK    5  A    between atoms: C_13  and  N_14
REMARK    6  A    between atoms: C_17  and  C_18
REMARK                            x       y       z     vdW  Elec       q    Type
REMARK                         _______ _______ _______ _____ _____    ______ ____
ROOT
ATOM      1  C   UNL     1       4.551   4.820  17.102  0.00  0.00    +0.000 A 
ATOM      2  C   UNL     1       3.734   3.683  16.974  0.00  0.00    +0.000 A 
ATOM      3  C   UNL     1       2.421   3.673  17.445  0.00  0.00    +0.000 A 
ATOM      4  C   UNL     1       1.879   4.809  18.047  0.00  0.00    +0.000 A 
ATOM      5  C   UNL     1       2.631   5.978  18.168  0.00  0.00    +0.000 A 
ATOM      6  C   UNL     1       3.949   5.954  17.687  0.00  0.00    +0.000 A 
ENDROOT
BRANCH   5   7
ATOM      7  N   UNL     1       2.123   7.161  18.771  0.00  0.00    +0.000 N 
ATOM      8  C   UNL     1       1.954   8.383  18.027  0.00  0.00    +0.000 C 
ATOM      9  C   UNL     1       1.480   9.316  19.074  0.00  0.00    +0.000 C 
ATOM     10  C   UNL     1       1.347   8.718  20.270  0.00  0.00    +0.000 C 
ATOM     11  C   UNL     1       1.710   7.311  20.094  0.00  0.00    +0.000 C 
ATOM     12  O   UNL     1       1.640   6.482  20.983  0.00  0.00    +0.000 OA
BRANCH  10  13
ATOM     13  C   UNL     1       0.960   9.275  21.573  0.00  0.00    +0.000 C 
ATOM     14  F   UNL     1       1.867   9.125  22.565  0.00  0.00    +0.000 F 
ATOM     15  F   UNL     1       0.720  10.612  21.472  0.00  0.00    +0.000 F 
ATOM     16  F   UNL     1      -0.201   8.722  22.020  0.00  0.00    +0.000 F 
ENDBRANCH  10  13
ENDBRANCH   5   7
BRANCH   1  17
ATOM     17  C   UNL     1       6.105   4.835  16.681  0.00  0.00    +0.000 C 
ATOM     18  C   UNL     1       6.804   6.227  16.598  0.00  0.00    +0.000 C 
ATOM     19  O   UNL     1       7.736   5.895  17.645  0.00  0.00    +0.000 OA
ATOM     20  C   UNL     1       7.098   4.623  17.863  0.00  0.00    +0.000 C 
BRANCH  17  21
ATOM     21  C   UNL     1       6.390   3.892  15.484  0.00  0.00    +0.000 C 
BRANCH  21  27
ATOM     22  C   UNL     1       5.835   3.302  12.399  0.00  0.00    +0.000 C 
ATOM     23  N   UNL     1       6.743   4.266  12.965  0.00  0.00    +0.000 N 
ATOM     24  C   UNL     1       7.554   5.077  12.231  0.00  0.00    +0.000 A 
ATOM     25  N   UNL     1       8.280   5.814  13.030  0.00  0.00    +0.000 NA
ATOM     26  N   UNL     1       7.952   5.475  14.320  0.00  0.00    +0.000 NA
ATOM     27  C   UNL     1       7.004   4.555  14.288  0.00  0.00    +0.000 A 
ENDBRANCH  21  27
ENDBRANCH  17  21
ENDBRANCH   1  17
TORSDOF 5
ENDMDL
MODEL 3
REMARK VINA RESULT:      -8.7      4.163      5.698
REMARK  Name = 
REMARK  6 active torsions:
REMARK  status: ('A' for Active; 'I' for Inactive)
REMARK    1  A    between atoms: C_1  and  N_2
REMARK    2  A    between atoms: C_6  and  C_7
REMARK    3  A    between atoms: C_7  and  C_8
REMARK    4  A    between atoms: C_8  and  C_9
REMARK    5  A    between atoms: C_13  and  N_14
REMARK    6  A    between atoms: C_17  and  C_18
REMARK                            x       y       z     vdW  Elec       q    Type
REMARK                         _______ _______ _______ _____ _____    ______ ____
ROOT
ATOM      1  C   UNL     1       2.566   7.330  18.634  0.00  0.00    +0.000 A 
ATOM      2  C   UNL     1       2.722   8.203  17.544  0.00  0.00    +0.000 A 
ATOM      3  C   UNL     1       2.161   9.480  17.547  0.00  0.00    +0.000 A 
ATOM      4  C   UNL     1       1.435   9.929  18.652  0.00  0.00    +0.000 A 
ATOM      5  C   UNL     1       1.279   9.119  19.777  0.00  0.00    +0.000 A 
ATOM      6  C   UNL     1       1.854   7.839  19.741  0.00  0.00    +0.000 A 
ENDROOT
BRANCH   5   7
ATOM      7  N   UNL     1       0.552   9.532  20.927  0.00  0.00    +0.000 N 
ATOM      8  C   UNL     1       0.435   8.696  22.095  0.00  0.00    +0.000 C 
ATOM      9  C   UNL     1      -0.446   9.506  22.964  0.00  0.00    +0.000 C 
ATOM     10  C   UNL     1      -0.775  10.683  22.405  0.00  0.00    +0.000 C 
ATOM     11  C   UNL     1      -0.104  10.749  21.106  0.00  0.00    +0.000 C 
ATOM     12  O   UNL     1      -0.155  11.718  20.371  0.00  0.00    +0.000 OA
BRANCH  10  13
ATOM     13  C   UNL     1      -1.657  11.753  22.892  0.00  0.00    +0.000 C 
ATOM     14  F   UNL     1      -1.032  12.820  23.441  0.00  0.00    +0.000 F 
ATOM     15  F   UNL     1      -2.428  12.239  21.879  0.00  0.00    +0.000 F 
ATOM     16  F   UNL     1      -2.527  11.286  23.830  0.00  0.00    +0.000 F 
ENDBRANCH  10  13
ENDBRANCH   5   7
BRANCH   1  17
ATOM     17  C   UNL     1       3.094   5.809  18.622  0.00  0.00    +0.000 C 
ATOM     18  C   UNL     1       4.001   5.382  17.427  0.00  0.00    +0.000 C 
ATOM     19  O   UNL     1       5.120   5.104  18.291  0.00  0.00    +0.000 OA
ATOM     20  C   UNL     1       4.395   5.567  19.445  0.00  0.00    +0.000 C 
BRANCH  17  21
ATOM     21  C   UNL     1       1.968   4.802  18.974  0.00  0.00    +0.000 C 
BRANCH  21  27
ATOM     22  C   UNL     1       3.371   1.938  18.981  0.00  0.00    +0.000 C 
ATOM     23  N   UNL     1       2.861   2.674  20.108  0.00  0.00    +0.000 N 
ATOM     24  C   UNL     1       2.875   2.218  21.390  0.00  0.00    +0.000 A 
ATOM     25  N   UNL     1       2.312   3.097  22.177  0.00  0.00    +0.000 NA
ATOM     26  N   UNL     1       1.906   4.152  21.398  0.00  0.00    +0.000 NA
ATOM     27  C   UNL     1       2.257   3.913  20.146  0.00  0.00    +0.000 A 
ENDBRANCH  21  27
ENDBRANCH  17  21
ENDBRANCH   1  17
TORSDOF 5
ENDMDL
MODEL 4
REMARK VINA RESULT:      -8.6      1.605      2.203
REMARK  Name = 
REMARK  6 active torsions:
REMARK  status: ('A' for Active; 'I' for Inactive)
REMARK    1  A    between atoms: C_1  and  N_2
REMARK    2  A    between atoms: C_6  and  C_7
REMARK    3  A    between atoms: C_7  and  C_8
REMARK    4  A    between atoms: C_8  and  C_9
REMARK    5  A    between atoms: C_13  and  N_14
REMARK    6  A    between atoms: C_17  and  C_18
REMARK                            x       y       z     vdW  Elec       q    Type
REMARK                         _______ _______ _______ _____ _____    ______ ____
ROOT
ATOM      1  C   UNL     1       5.421   5.467  18.647  0.00  0.00    +0.000 A 
ATOM      2  C   UNL     1       4.918   4.279  19.206  0.00  0.00    +0.000 A 
ATOM      3  C   UNL     1       3.609   4.194  19.680  0.00  0.00    +0.000 A 
ATOM      4  C   UNL     1       2.756   5.295  19.597  0.00  0.00    +0.000 A 
ATOM      5  C   UNL     1       3.189   6.488  19.018  0.00  0.00    +0.000 A 
ATOM      6  C   UNL     1       4.513   6.542  18.554  0.00  0.00    +0.000 A 
ENDROOT
BRANCH   5   7
ATOM      7  N   UNL     1       2.358   7.636  18.908  0.00  0.00    +0.000 N 
ATOM      8  C   UNL     1       2.121   8.287  17.644  0.00  0.00    +0.000 C 
ATOM      9  C   UNL     1       1.278   9.436  18.044  0.00  0.00    +0.000 C 
ATOM     10  C   UNL     1       1.016   9.443  19.362  0.00  0.00    +0.000 C 
ATOM     11  C   UNL     1       1.661   8.264  19.940  0.00  0.00    +0.000 C 
ATOM     12  O   UNL     1       1.566   7.951  21.113  0.00  0.00    +0.000 OA
BRANCH  10  13
ATOM     13  C   UNL     1       0.272  10.414  20.177  0.00  0.00    +0.000 C 
ATOM     14  F   UNL     1      -0.746   9.905  20.907  0.00  0.00    +0.000 F 
ATOM     15  F   UNL     1       1.103  11.037  21.059  0.00  0.00    +0.000 F 
ATOM     16  F   UNL     1      -0.258  11.402  19.405  0.00  0.00    +0.000 F 
ENDBRANCH  10  13
ENDBRANCH   5   7
BRANCH   1  17
ATOM     17  C   UNL     1       6.958   5.643  18.199  0.00  0.00    +0.000 C 
ATOM     18  C   UNL     1       7.404   7.066  17.741  0.00  0.00    +0.000 C 
ATOM     19  O   UNL     1       8.357   7.184  18.816  0.00  0.00    +0.000 OA
ATOM     20  C   UNL     1       7.947   5.921  19.371  0.00  0.00    +0.000 C 
BRANCH  17  21
ATOM     21  C   UNL     1       7.429   4.488  17.279  0.00  0.00    +0.000 C 
BRANCH  21  27
ATOM     22  C   UNL     1       4.810   3.326  15.878  0.00  0.00    +0.000 C 
ATOM     23  N   UNL     1       5.873   4.086  15.273  0.00  0.00    +0.000 N 
ATOM     24  C   UNL     1       5.930   4.404  13.950  0.00  0.00    +0.000 A 
ATOM     25  N   UNL     1       7.029   5.068  13.703  0.00  0.00    +0.000 NA
ATOM     26  N   UNL     1       7.719   5.182  14.884  0.00  0.00    +0.000 NA
ATOM     27  C   UNL     1       7.013   4.610  15.844  0.00  0.00    +0.000 A 
ENDBRANCH  21  27
ENDBRANCH  17  21
ENDBRANCH   1  17
TORSDOF 5
ENDMDL
MODEL 5
REMARK VINA RESULT:      -8.5      3.384      4.797
REMARK  Name = 
REMARK  6 active torsions:
REMARK  status: ('A' for Active; 'I' for Inactive)
REMARK    1  A    between atoms: C_1  and  N_2
REMARK    2  A    between atoms: C_6  and  C_7
REMARK    3  A    between atoms: C_7  and  C_8
REMARK    4  A    between atoms: C_8  and  C_9
REMARK    5  A    between atoms: C_13  and  N_14
REMARK    6  A    between atoms: C_17  and  C_18
REMARK                            x       y       z     vdW  Elec       q    Type
REMARK                         _______ _______ _______ _____ _____    ______ ____
ROOT
ATOM      1  C   UNL     1       2.528   6.749  18.919  0.00  0.00    +0.000 A 
ATOM      2  C   UNL     1       2.743   7.505  17.754  0.00  0.00    +0.000 A 
ATOM      3  C   UNL     1       2.298   8.823  17.648  0.00  0.00    +0.000 A 
ATOM      4  C   UNL     1       1.634   9.431  18.714  0.00  0.00    +0.000 A 
ATOM      5  C   UNL     1       1.425   8.742  19.909  0.00  0.00    +0.000 A 
ATOM      6  C   UNL     1       1.883   7.416  19.982  0.00  0.00    +0.000 A 
ENDROOT
BRANCH   5   7
ATOM      7  N   UNL     1       0.757   9.318  21.024  0.00  0.00    +0.000 N 
ATOM      8  C   UNL     1       0.868   8.762  22.349  0.00  0.00    +0.000 C 
ATOM      9  C   UNL     1      -0.035   9.642  23.125  0.00  0.00    +0.000 C 
ATOM     10  C   UNL     1      -0.577  10.613  22.371  0.00  0.00    +0.000 C 
ATOM     11  C   UNL     1      -0.045  10.458  21.016  0.00  0.00    +0.000 C 
ATOM     12  O   UNL     1      -0.300  11.221  20.103  0.00  0.00    +0.000 OA
BRANCH  10  13
ATOM     13  C   UNL     1      -1.552  11.655  22.721  0.00  0.00    +0.000 C 
ATOM     14  F   UNL     1      -2.447  11.319  23.679  0.00  0.00    +0.000 F 
ATOM     15  F   UNL     1      -0.918  12.776  23.165  0.00  0.00    +0.000 F 
ATOM     16  F   UNL     1      -2.273  12.041  21.633  0.00  0.00    +0.000 F 
ENDBRANCH  10  13
ENDBRANCH   5   7
BRANCH   1  17
ATOM     17  C   UNL     1       2.919   5.192  19.039  0.00  0.00    +0.000 C 
ATOM     18  C   UNL     1       2.982   4.585  20.475  0.00  0.00    +0.000 C 
ATOM     19  O   UNL     1       1.919   3.652  20.197  0.00  0.00    +0.000 OA
ATOM     20  C   UNL     1       1.719   4.209  18.885  0.00  0.00    +0.000 C 
BRANCH  17  21
ATOM     21  C   UNL     1       4.116   4.823  18.125  0.00  0.00    +0.000 C 
BRANCH  21  27
ATOM     22  C   UNL     1       6.200   6.874  16.852  0.00  0.00    +0.000 C 
ATOM     23  N   UNL     1       6.339   6.111  18.065  0.00  0.00    +0.000 N 
ATOM     24  C   UNL     1       7.444   6.133  18.860  0.00  0.00    +0.000 A 
ATOM     25  N   UNL     1       7.281   5.313  19.865  0.00  0.00    +0.000 NA
ATOM     26  N   UNL     1       6.047   4.727  19.726  0.00  0.00    +0.000 NA
ATOM     27  C   UNL     1       5.461   5.224  18.650  0.00  0.00    +0.000 A 
ENDBRANCH  21  27
ENDBRANCH  17  21
ENDBRANCH   1  17
TORSDOF 5
ENDMDL
MODEL 6
REMARK VINA RESULT:      -8.5      4.292      5.720
REMARK  Name = 
REMARK  6 active torsions:
REMARK  status: ('A' for Active; 'I' for Inactive)
REMARK    1  A    between atoms: C_1  and  N_2
REMARK    2  A    between atoms: C_6  and  C_7
REMARK    3  A    between atoms: C_7  and  C_8
REMARK    4  A    between atoms: C_8  and  C_9
REMARK    5  A    between atoms: C_13  and  N_14
REMARK    6  A    between atoms: C_17  and  C_18
REMARK                            x       y       z     vdW  Elec       q    Type
REMARK                         _______ _______ _______ _____ _____    ______ ____
ROOT
ATOM      1  C   UNL     1       2.473   7.468  18.950  0.00  0.00    +0.000 A 
ATOM      2  C   UNL     1       2.553   8.253  17.786  0.00  0.00    +0.000 A 
ATOM      3  C   UNL     1       1.919   9.492  17.698  0.00  0.00    +0.000 A 
ATOM      4  C   UNL     1       1.195   9.993  18.781  0.00  0.00    +0.000 A 
ATOM      5  C   UNL     1       1.112   9.274  19.974  0.00  0.00    +0.000 A 
ATOM      6  C   UNL     1       1.759   8.029  20.029  0.00  0.00    +0.000 A 
ENDROOT
BRANCH   5   7
ATOM      7  N   UNL     1       0.389   9.742  21.106  0.00  0.00    +0.000 N 
ATOM      8  C   UNL     1       0.277   8.964  22.313  0.00  0.00    +0.000 C 
ATOM      9  C   UNL     1      -0.602   9.816  23.145  0.00  0.00    +0.000 C 
ATOM     10  C   UNL     1      -0.932  10.964  22.531  0.00  0.00    +0.000 C 
ATOM     11  C   UNL     1      -0.266  10.966  21.228  0.00  0.00    +0.000 C 
ATOM     12  O   UNL     1      -0.320  11.899  20.447  0.00  0.00    +0.000 OA
BRANCH  10  13
ATOM     13  C   UNL     1      -1.813  12.056  22.968  0.00  0.00    +0.000 C 
ATOM     14  F   UNL     1      -1.194  13.102  23.564  0.00  0.00    +0.000 F 
ATOM     15  F   UNL     1      -2.503  12.570  21.912  0.00  0.00    +0.000 F 
ATOM     16  F   UNL     1      -2.754  11.610  23.845  0.00  0.00    +0.000 F 
ENDBRANCH  10  13
ENDBRANCH   5   7
BRANCH   1  17
ATOM     17  C   UNL     1       3.088   5.983  19.050  0.00  0.00    +0.000 C 
ATOM     18  C   UNL     1       3.309   5.215  17.710  0.00  0.00    +0.000 C 
ATOM     19  O   UNL     1       4.734   5.142  17.913  0.00  0.00    +0.000 OA
ATOM     20  C   UNL     1       4.644   5.928  19.115  0.00  0.00    +0.000 C 
BRANCH  17  21
ATOM     21  C   UNL     1       2.413   5.152  20.172  0.00  0.00    +0.000 C 
BRANCH  21  27
ATOM     22  C   UNL     1       3.957   2.365  20.038  0.00  0.00    +0.000 C 
ATOM     23  N   UNL     1       2.586   2.633  19.689  0.00  0.00    +0.000 N 
ATOM     24  C   UNL     1       1.724   1.699  19.199  0.00  0.00    +0.000 A 
ATOM     25  N   UNL     1       0.568   2.255  18.949  0.00  0.00    +0.000 NA
ATOM     26  N   UNL     1       0.670   3.587  19.268  0.00  0.00    +0.000 NA
ATOM     27  C   UNL     1       1.883   3.817  19.740  0.00  0.00    +0.000 A 
ENDBRANCH  21  27
ENDBRANCH  17  21
ENDBRANCH   1  17
TORSDOF 5
ENDMDL
MODEL 7
REMARK VINA RESULT:      -8.5      1.465      1.863
REMARK  Name = 
REMARK  6 active torsions:
REMARK  status: ('A' for Active; 'I' for Inactive)
REMARK    1  A    between atoms: C_1  and  N_2
REMARK    2  A    between atoms: C_6  and  C_7
REMARK    3  A    between atoms: C_7  and  C_8
REMARK    4  A    between atoms: C_8  and  C_9
REMARK    5  A    between atoms: C_13  and  N_14
REMARK    6  A    between atoms: C_17  and  C_18
REMARK                            x       y       z     vdW  Elec       q    Type
REMARK                         _______ _______ _______ _____ _____    ______ ____
ROOT
ATOM      1  C   UNL     1       4.956   5.359  17.439  0.00  0.00    +0.000 A 
ATOM      2  C   UNL     1       4.234   4.197  17.119  0.00  0.00    +0.000 A 
ATOM      3  C   UNL     1       2.867   4.096  17.375  0.00  0.00    +0.000 A 
ATOM      4  C   UNL     1       2.175   5.163  17.950  0.00  0.00    +0.000 A 
ATOM      5  C   UNL     1       2.833   6.355  18.255  0.00  0.00    +0.000 A 
ATOM      6  C   UNL     1       4.209   6.424  17.987  0.00  0.00    +0.000 A 
ENDROOT
BRANCH   5   7
ATOM      7  N   UNL     1       2.173   7.471  18.838  0.00  0.00    +0.000 N 
ATOM      8  C   UNL     1       1.935   8.686  18.101  0.00  0.00    +0.000 C 
ATOM      9  C   UNL     1       1.304   9.547  19.126  0.00  0.00    +0.000 C 
ATOM     10  C   UNL     1       1.151   8.915  20.302  0.00  0.00    +0.000 C 
ATOM     11  C   UNL     1       1.660   7.553  20.132  0.00  0.00    +0.000 C 
ATOM     12  O   UNL     1       1.613   6.704  21.003  0.00  0.00    +0.000 OA
BRANCH  10  13
ATOM     13  C   UNL     1       0.625   9.406  21.583  0.00  0.00    +0.000 C 
ATOM     14  F   UNL     1       0.237  10.702  21.597  0.00  0.00    +0.000 F 
ATOM     15  F   UNL     1      -0.459   8.676  21.969  0.00  0.00    +0.000 F 
ATOM     16  F   UNL     1       1.542   9.263  22.579  0.00  0.00    +0.000 F 
ENDBRANCH  10  13
ENDBRANCH   5   7
BRANCH   1  17
ATOM     17  C   UNL     1       6.554   5.474  17.271  0.00  0.00    +0.000 C 
ATOM     18  C   UNL     1       7.144   6.902  17.055  0.00  0.00    +0.000 C 
ATOM     19  O   UNL     1       7.906   6.842  18.277  0.00  0.00    +0.000 OA
ATOM     20  C   UNL     1       7.342   5.560  18.612  0.00  0.00    +0.000 C 
BRANCH  17  21
ATOM     21  C   UNL     1       7.114   4.388  16.316  0.00  0.00    +0.000 C 
BRANCH  21  27
ATOM     22  C   UNL     1       5.481   3.573  13.701  0.00  0.00    +0.000 C 
ATOM     23  N   UNL     1       6.612   4.459  13.796  0.00  0.00    +0.000 N 
ATOM     24  C   UNL     1       7.193   5.076  12.730  0.00  0.00    +0.000 A 
ATOM     25  N   UNL     1       8.214   5.785  13.134  0.00  0.00    +0.000 NA
ATOM     26  N   UNL     1       8.320   5.624  14.494  0.00  0.00    +0.000 NA
ATOM     27  C   UNL     1       7.338   4.840  14.904  0.00  0.00    +0.000 A 
ENDBRANCH  21  27
ENDBRANCH  17  21
ENDBRANCH   1  17
TORSDOF 5
ENDMDL
MODEL 8
REMARK VINA RESULT:      -8.3      4.334      8.491
REMARK  Name = 
REMARK  6 active torsions:
REMARK  status: ('A' for Active; 'I' for Inactive)
REMARK    1  A    between atoms: C_1  and  N_2
REMARK    2  A    between atoms: C_6  and  C_7
REMARK    3  A    between atoms: C_7  and  C_8
REMARK    4  A    between atoms: C_8  and  C_9
REMARK    5  A    between atoms: C_13  and  N_14
REMARK    6  A    between atoms: C_17  and  C_18
REMARK                            x       y       z     vdW  Elec       q    Type
REMARK                         _______ _______ _______ _____ _____    ______ ____
ROOT
ATOM      1  C   UNL     1       1.607   7.231  20.461  0.00  0.00    +0.000 A 
ATOM      2  C   UNL     1       1.186   6.012  21.021  0.00  0.00    +0.000 A 
ATOM      3  C   UNL     1       1.675   4.790  20.558  0.00  0.00    +0.000 A 
ATOM      4  C   UNL     1       2.615   4.751  19.527  0.00  0.00    +0.000 A 
ATOM      5  C   UNL     1       3.097   5.931  18.959  0.00  0.00    +0.000 A 
ATOM      6  C   UNL     1       2.582   7.143  19.445  0.00  0.00    +0.000 A 
ENDROOT
BRANCH   5   7
ATOM      7  N   UNL     1       4.055   5.944  17.909  0.00  0.00    +0.000 N 
ATOM      8  C   UNL     1       4.146   7.037  16.974  0.00  0.00    +0.000 C 
ATOM      9  C   UNL     1       5.211   6.568  16.059  0.00  0.00    +0.000 C 
ATOM     10  C   UNL     1       5.713   5.377  16.426  0.00  0.00    +0.000 C 
ATOM     11  C   UNL     1       5.018   4.970  17.648  0.00  0.00    +0.000 C 
ATOM     12  O   UNL     1       5.284   3.956  18.267  0.00  0.00    +0.000 OA
BRANCH  10  13
ATOM     13  C   UNL     1       6.733   4.538  15.782  0.00  0.00    +0.000 C 
ATOM     14  F   UNL     1       7.317   5.068  14.683  0.00  0.00    +0.000 F 
ATOM     15  F   UNL     1       7.741   4.253  16.653  0.00  0.00    +0.000 F 
ATOM     16  F   UNL     1       6.216   3.335  15.407  0.00  0.00    +0.000 F 
ENDBRANCH  10  13
ENDBRANCH   5   7
BRANCH   1  17
ATOM     17  C   UNL     1       0.980   8.653  20.883  0.00  0.00    +0.000 C 
ATOM     18  C   UNL     1      -0.399   8.631  21.613  0.00  0.00    +0.000 C 
ATOM     19  O   UNL     1       0.150   9.226  22.805  0.00  0.00    +0.000 OA
ATOM     20  C   UNL     1       1.480   9.201  22.253  0.00  0.00    +0.000 C 
BRANCH  17  21
ATOM     21  C   UNL     1       1.095   9.697  19.743  0.00  0.00    +0.000 C 
BRANCH  21  27
ATOM     22  C   UNL     1       0.157  12.413  21.126  0.00  0.00    +0.000 C 
ATOM     23  N   UNL     1      -0.525  11.660  20.107  0.00  0.00    +0.000 N 
ATOM     24  C   UNL     1      -1.738  11.996  19.588  0.00  0.00    +0.000 A 
ATOM     25  N   UNL     1      -2.106  11.101  18.710  0.00  0.00    +0.000 NA
ATOM     26  N   UNL     1      -1.122  10.145  18.654  0.00  0.00    +0.000 NA
ATOM     27  C   UNL     1      -0.150  10.490  19.481  0.00  0.00    +0.000 A 
ENDBRANCH  21  27
ENDBRANCH  17  21
ENDBRANCH   1  17
TORSDOF 5
ENDMDL
MODEL 9
REMARK VINA RESULT:      -8.3      2.193      3.421
REMARK  Name = 
REMARK  6 active torsions:
REMARK  status: ('A' for Active; 'I' for Inactive)
REMARK    1  A    between atoms: C_1  and  N_2
REMARK    2  A    between atoms: C_6  and  C_7
REMARK    3  A    between atoms: C_7  and  C_8
REMARK    4  A    between atoms: C_8  and  C_9
REMARK    5  A    between atoms: C_13  and  N_14
REMARK    6  A    between atoms: C_17  and  C_18
REMARK                            x       y       z     vdW  Elec       q    Type
REMARK                         _______ _______ _______ _____ _____    ______ ____
ROOT
ATOM      1  C   UNL     1       4.363   4.431  16.917  0.00  0.00    +0.000 A 
ATOM      2  C   UNL     1       3.665   3.244  17.202  0.00  0.00    +0.000 A 
ATOM      3  C   UNL     1       2.521   3.246  18.000  0.00  0.00    +0.000 A 
ATOM      4  C   UNL     1       2.030   4.441  18.527  0.00  0.00    +0.000 A 
ATOM      5  C   UNL     1       2.660   5.654  18.247  0.00  0.00    +0.000 A 
ATOM      6  C   UNL     1       3.811   5.618  17.444  0.00  0.00    +0.000 A 
ENDROOT
BRANCH   5   7
ATOM      7  N   UNL     1       2.197   6.898  18.757  0.00  0.00    +0.000 N 
ATOM      8  C   UNL     1       2.137   8.082  17.939  0.00  0.00    +0.000 C 
ATOM      9  C   UNL     1       1.673   9.100  18.908  0.00  0.00    +0.000 C 
ATOM     10  C   UNL     1       1.448   8.581  20.127  0.00  0.00    +0.000 C 
ATOM     11  C   UNL     1       1.733   7.148  20.048  0.00  0.00    +0.000 C 
ATOM     12  O   UNL     1       1.572   6.377  20.977  0.00  0.00    +0.000 OA
BRANCH  10  13
ATOM     13  C   UNL     1       1.035   9.235  21.377  0.00  0.00    +0.000 C 
ATOM     14  F   UNL     1       0.884  10.577  21.311  0.00  0.00    +0.000 F 
ATOM     15  F   UNL     1      -0.156   8.735  21.810  0.00  0.00    +0.000 F 
ATOM     16  F   UNL     1       1.925   8.992  22.378  0.00  0.00    +0.000 F 
ENDBRANCH  10  13
ENDBRANCH   5   7
BRANCH   1  17
ATOM     17  C   UNL     1       5.752   4.458  16.102  0.00  0.00    +0.000 C 
ATOM     18  C   UNL     1       5.894   3.462  14.910  0.00  0.00    +0.000 C 
ATOM     19  O   UNL     1       6.034   4.529  13.952  0.00  0.00    +0.000 OA
ATOM     20  C   UNL     1       5.818   5.525  14.969  0.00  0.00    +0.000 C 
BRANCH  17  21
ATOM     21  C   UNL     1       6.978   4.516  17.050  0.00  0.00    +0.000 C 
BRANCH  21  27
ATOM     22  C   UNL     1       7.948   5.602  19.887  0.00  0.00    +0.000 C 
ATOM     23  N   UNL     1       7.845   6.331  18.650  0.00  0.00    +0.000 N 
ATOM     24  C   UNL     1       8.129   7.656  18.517  0.00  0.00    +0.000 A 
ATOM     25  N   UNL     1       7.908   8.032  17.284  0.00  0.00    +0.000 NA
ATOM     26  N   UNL     1       7.457   6.937  16.590  0.00  0.00    +0.000 NA
ATOM     27  C   UNL     1       7.439   5.897  17.406  0.00  0.00    +0.000 A 
ENDBRANCH  21  27
ENDBRANCH  17  21
ENDBRANCH   1  17
TORSDOF 5
ENDMDL
