MODEL 1
REMARK VINA RESULT:      -7.8      0.000      0.000
REMARK  Name = 
REMARK  2 active torsions:
REMARK  status: ('A' for Active; 'I' for Inactive)
REMARK    1  A    between atoms: C_2  and  C_4
REMARK    2  A    between atoms: C_9  and  C_10
REMARK                            x       y       z     vdW  Elec       q    Type
REMARK                         _______ _______ _______ _____ _____    ______ ____
ROOT
ATOM      1  C   UNL     1      -0.770  10.630  22.906  0.00  0.00    +0.000 C 
ATOM      2  O   UNL     1      -0.400  10.054  23.926  0.00  0.00    +0.000 OA
ATOM      3  N   UNL     1      -0.512  10.116  21.621  0.00  0.00    +0.000 N 
ATOM      4  C   UNL     1       0.124   8.806  21.538  0.00  0.00    +0.000 C 
ATOM      5  C   UNL     1       0.937   8.611  20.273  0.00  0.00    +0.000 A 
ATOM      6  C   UNL     1       1.821   7.511  20.219  0.00  0.00    +0.000 A 
ATOM      7  C   UNL     1       2.641   7.304  19.120  0.00  0.00    +0.000 A 
ATOM      8  C   UNL     1       2.592   8.166  18.046  0.00  0.00    +0.000 A 
ATOM      9  C   UNL     1       1.698   9.242  18.065  0.00  0.00    +0.000 A 
ATOM     10  C   UNL     1       0.836   9.474  19.160  0.00  0.00    +0.000 A 
ATOM     11  C   UNL     1      -0.073  10.701  19.215  0.00  0.00    +0.000 C 
ATOM     12  C   UNL     1      -0.847  11.009  17.898  0.00  0.00    +0.000 C 
ATOM     13  C   UNL     1      -0.580  12.479  17.584  0.00  0.00    +0.000 C 
ATOM     14  C   UNL     1       0.820  12.726  18.106  0.00  0.00    +0.000 C 
ATOM     15  C   UNL     1       0.832  11.947  19.405  0.00  0.00    +0.000 C 
ATOM     16  C   UNL     1      -1.123  10.537  20.359  0.00  0.00    +0.000 C 
ATOM     17  O   UNL     1       3.371   8.065  16.938  0.00  0.00    +0.000 OA
ATOM     18  C   UNL     1       4.315   7.006  16.937  0.00  0.00    +0.000 C 
ATOM     19  C   UNL     1       4.328   6.014  18.100  0.00  0.00    +0.000 C 
ATOM     20  O   UNL     1       3.472   6.234  19.205  0.00  0.00    +0.000 OA
ENDROOT
BRANCH   1  26
ATOM     21  C   UNL     1      -3.488  13.158  23.726  0.00  0.00    +0.000 A 
ATOM     22  C   UNL     1      -2.852  14.370  23.471  0.00  0.00    +0.000 A 
ATOM     23  C   UNL     1      -1.545  14.357  22.973  0.00  0.00    +0.000 A 
ATOM     24  C   UNL     1      -0.855  13.148  22.797  0.00  0.00    +0.000 A 
ATOM     25  F   UNL     1       0.403  13.198  22.343  0.00  0.00    +0.000 F 
ATOM     26  C   UNL     1      -1.468  11.934  23.089  0.00  0.00    +0.000 A 
ATOM     27  C   UNL     1      -2.809  11.969  23.457  0.00  0.00    +0.000 A 
BRANCH  21  29
ATOM     28  N   UNL     1      -5.655  14.142  24.229  0.00  0.00    +0.000 N 
ATOM     29  C   UNL     1      -4.844  13.044  24.313  0.00  0.00    +0.000 C 
ATOM     30  O   UNL     1      -5.227  11.997  24.815  0.00  0.00    +0.000 OA
ATOM     31  H   UNL     1      -6.617  14.000  24.518  0.00  0.00    +0.000 HD
ATOM     32  H   UNL     1      -5.458  14.903  23.600  0.00  0.00    +0.000 HD
ENDBRANCH  21  29
ENDBRANCH   1  26
TORSDOF 2
ENDMDL
MODEL 2
REMARK VINA RESULT:      -7.2      2.787      7.994
REMARK  Name = 
REMARK  2 active torsions:
REMARK  status: ('A' for Active; 'I' for Inactive)
REMARK    1  A    between atoms: C_2  and  C_4
REMARK    2  A    between atoms: C_9  and  C_10
REMARK                            x       y       z     vdW  Elec       q    Type
REMARK                         _______ _______ _______ _____ _____    ______ ____
ROOT
ATOM      1  C   UNL     1       0.822  10.153  20.550  0.00  0.00    +0.000 C 
ATOM      2  O   UNL     1       1.166  10.216  21.729  0.00  0.00    +0.000 OA
ATOM      3  N   UNL     1      -0.196  10.970  20.024  0.00  0.00    +0.000 N 
ATOM      4  C   UNL     1      -0.768  11.982  20.905  0.00  0.00    +0.000 C 
ATOM      5  C   UNL     1      -2.200  12.342  20.559  0.00  0.00    +0.000 A 
ATOM      6  C   UNL     1      -2.942  13.083  21.505  0.00  0.00    +0.000 A 
ATOM      7  C   UNL     1      -4.275  13.396  21.283  0.00  0.00    +0.000 A 
ATOM      8  C   UNL     1      -4.895  13.002  20.118  0.00  0.00    +0.000 A 
ATOM      9  C   UNL     1      -4.168  12.297  19.152  0.00  0.00    +0.000 A 
ATOM     10  C   UNL     1      -2.806  11.975  19.336  0.00  0.00    +0.000 A 
ATOM     11  C   UNL     1      -2.041  11.127  18.321  0.00  0.00    +0.000 C 
ATOM     12  C   UNL     1      -2.262  11.524  16.830  0.00  0.00    +0.000 C 
ATOM     13  C   UNL     1      -2.639  10.236  16.101  0.00  0.00    +0.000 C 
ATOM     14  C   UNL     1      -3.393   9.427  17.135  0.00  0.00    +0.000 C 
ATOM     15  C   UNL     1      -2.600   9.682  18.400  0.00  0.00    +0.000 C 
ATOM     16  C   UNL     1      -0.507  11.199  18.612  0.00  0.00    +0.000 C 
ATOM     17  O   UNL     1      -6.200  13.235  19.820  0.00  0.00    +0.000 OA
ATOM     18  C   UNL     1      -6.955  13.904  20.818  0.00  0.00    +0.000 C 
ATOM     19  C   UNL     1      -6.252  14.396  22.084  0.00  0.00    +0.000 C 
ATOM     20  O   UNL     1      -4.887  14.079  22.283  0.00  0.00    +0.000 OA
ENDROOT
BRANCH   1  26
ATOM     21  C   UNL     1       2.186   6.806  19.373  0.00  0.00    +0.000 A 
ATOM     22  C   UNL     1       2.772   7.137  18.155  0.00  0.00    +0.000 A 
ATOM     23  C   UNL     1       2.771   8.474  17.744  0.00  0.00    +0.000 A 
ATOM     24  C   UNL     1       2.129   9.460  18.509  0.00  0.00    +0.000 A 
ATOM     25  F   UNL     1       2.137  10.718  18.053  0.00  0.00    +0.000 F 
ATOM     26  C   UNL     1       1.505   9.132  19.707  0.00  0.00    +0.000 A 
ATOM     27  C   UNL     1       1.635   7.821  20.156  0.00  0.00    +0.000 A 
BRANCH  21  29
ATOM     28  N   UNL     1       2.447   5.198  21.179  0.00  0.00    +0.000 N 
ATOM     29  C   UNL     1       2.070   5.420  19.885  0.00  0.00    +0.000 C 
ATOM     30  O   UNL     1       1.620   4.526  19.182  0.00  0.00    +0.000 OA
ATOM     31  H   UNL     1       2.237   4.276  21.546  0.00  0.00    +0.000 HD
ATOM     32  H   UNL     1       2.564   5.952  21.837  0.00  0.00    +0.000 HD
ENDBRANCH  21  29
ENDBRANCH   1  26
TORSDOF 2
ENDMDL
MODEL 3
REMARK VINA RESULT:      -7.2      9.231     12.024
REMARK  Name = 
REMARK  2 active torsions:
REMARK  status: ('A' for Active; 'I' for Inactive)
REMARK    1  A    between atoms: C_2  and  C_4
REMARK    2  A    between atoms: C_9  and  C_10
REMARK                            x       y       z     vdW  Elec       q    Type
REMARK                         _______ _______ _______ _____ _____    ______ ____
ROOT
ATOM      1  C   UNL     1       9.591  12.192  19.625  0.00  0.00    +0.000 C 
ATOM      2  O   UNL     1       9.172  11.101  19.242  0.00  0.00    +0.000 OA
ATOM      3  N   UNL     1       9.452  12.619  20.959  0.00  0.00    +0.000 N 
ATOM      4  C   UNL     1       8.883  11.673  21.911  0.00  0.00    +0.000 C 
ATOM      5  C   UNL     1       8.176  12.341  23.074  0.00  0.00    +0.000 A 
ATOM      6  C   UNL     1       7.348  11.541  23.892  0.00  0.00    +0.000 A 
ATOM      7  C   UNL     1       6.621  12.095  24.935  0.00  0.00    +0.000 A 
ATOM      8  C   UNL     1       6.712  13.443  25.204  0.00  0.00    +0.000 A 
ATOM      9  C   UNL     1       7.553  14.248  24.428  0.00  0.00    +0.000 A 
ATOM     10  C   UNL     1       8.320  13.716  23.368  0.00  0.00    +0.000 A 
ATOM     11  C   UNL     1       9.167  14.613  22.466  0.00  0.00    +0.000 C 
ATOM     12  C   UNL     1      10.021  15.681  23.212  0.00  0.00    +0.000 C 
ATOM     13  C   UNL     1       9.713  17.016  22.538  0.00  0.00    +0.000 C 
ATOM     14  C   UNL     1       8.269  16.890  22.101  0.00  0.00    +0.000 C 
ATOM     15  C   UNL     1       8.195  15.461  21.603  0.00  0.00    +0.000 C 
ATOM     16  C   UNL     1      10.136  13.742  21.604  0.00  0.00    +0.000 C 
ATOM     17  O   UNL     1       6.022  14.083  26.184  0.00  0.00    +0.000 OA
ATOM     18  C   UNL     1       5.129  13.282  26.941  0.00  0.00    +0.000 C 
ATOM     19  C   UNL     1       5.075  11.776  26.683  0.00  0.00    +0.000 C 
ATOM     20  O   UNL     1       5.836  11.228  25.623  0.00  0.00    +0.000 OA
ENDROOT
BRANCH   1  26
ATOM     21  C   UNL     1      10.315  15.241  17.474  0.00  0.00    +0.000 A 
ATOM     22  C   UNL     1      11.358  14.794  16.667  0.00  0.00    +0.000 A 
ATOM     23  C   UNL     1      11.787  13.468  16.788  0.00  0.00    +0.000 A 
ATOM     24  C   UNL     1      11.227  12.618  17.755  0.00  0.00    +0.000 A 
ATOM     25  F   UNL     1      11.697  11.367  17.844  0.00  0.00    +0.000 F 
ATOM     26  C   UNL     1      10.215  13.069  18.594  0.00  0.00    +0.000 A 
ATOM     27  C   UNL     1       9.717  14.347  18.363  0.00  0.00    +0.000 A 
BRANCH  21  29
ATOM     28  N   UNL     1      10.587  17.578  16.859  0.00  0.00    +0.000 N 
ATOM     29  C   UNL     1       9.817  16.637  17.481  0.00  0.00    +0.000 C 
ATOM     30  O   UNL     1       8.742  16.919  17.992  0.00  0.00    +0.000 OA
ATOM     31  H   UNL     1      10.166  18.496  16.763  0.00  0.00    +0.000 HD
ATOM     32  H   UNL     1      11.323  17.327  16.219  0.00  0.00    +0.000 HD
ENDBRANCH  21  29
ENDBRANCH   1  26
TORSDOF 2
ENDMDL
MODEL 4
REMARK VINA RESULT:      -7.1      2.251      8.104
REMARK  Name = 
REMARK  2 active torsions:
REMARK  status: ('A' for Active; 'I' for Inactive)
REMARK    1  A    between atoms: C_2  and  C_4
REMARK    2  A    between atoms: C_9  and  C_10
REMARK                            x       y       z     vdW  Elec       q    Type
REMARK                         _______ _______ _______ _____ _____    ______ ____
ROOT
ATOM      1  C   UNL     1       0.002   9.130  21.168  0.00  0.00    +0.000 C 
ATOM      2  O   UNL     1      -0.813   8.329  21.619  0.00  0.00    +0.000 OA
ATOM      3  N   UNL     1       0.068  10.463  21.616  0.00  0.00    +0.000 N 
ATOM      4  C   UNL     1      -0.802  10.843  22.723  0.00  0.00    +0.000 C 
ATOM      5  C   UNL     1      -1.171  12.313  22.722  0.00  0.00    +0.000 A 
ATOM      6  C   UNL     1      -2.226  12.731  23.563  0.00  0.00    +0.000 A 
ATOM      7  C   UNL     1      -2.660  14.048  23.569  0.00  0.00    +0.000 A 
ATOM      8  C   UNL     1      -2.050  14.982  22.760  0.00  0.00    +0.000 A 
ATOM      9  C   UNL     1      -0.980  14.597  21.945  0.00  0.00    +0.000 A 
ATOM     10  C   UNL     1      -0.501  13.269  21.925  0.00  0.00    +0.000 A 
ATOM     11  C   UNL     1       0.607  12.833  20.967  0.00  0.00    +0.000 C 
ATOM     12  C   UNL     1       1.823  13.803  20.880  0.00  0.00    +0.000 C 
ATOM     13  C   UNL     1       2.040  14.078  19.394  0.00  0.00    +0.000 C 
ATOM     14  C   UNL     1       0.651  14.021  18.796  0.00  0.00    +0.000 C 
ATOM     15  C   UNL     1       0.020  12.855  19.530  0.00  0.00    +0.000 C 
ATOM     16  C   UNL     1       1.146  11.425  21.378  0.00  0.00    +0.000 C 
ATOM     17  O   UNL     1      -2.417  16.287  22.674  0.00  0.00    +0.000 OA
ATOM     18  C   UNL     1      -3.534  16.671  23.460  0.00  0.00    +0.000 C 
ATOM     19  C   UNL     1      -4.172  15.650  24.403  0.00  0.00    +0.000 C 
ATOM     20  O   UNL     1      -3.704  14.315  24.393  0.00  0.00    +0.000 OA
ENDROOT
BRANCH   1  26
ATOM     21  C   UNL     1       2.609   7.063  19.330  0.00  0.00    +0.000 A 
ATOM     22  C   UNL     1       2.604   7.638  18.063  0.00  0.00    +0.000 A 
ATOM     23  C   UNL     1       1.785   8.747  17.826  0.00  0.00    +0.000 A 
ATOM     24  C   UNL     1       0.926   9.232  18.824  0.00  0.00    +0.000 A 
ATOM     25  F   UNL     1       0.144  10.278  18.532  0.00  0.00    +0.000 F 
ATOM     26  C   UNL     1       0.894   8.637  20.080  0.00  0.00    +0.000 A 
ATOM     27  C   UNL     1       1.812   7.622  20.330  0.00  0.00    +0.000 A 
BRANCH  21  29
ATOM     28  N   UNL     1       2.848   5.016  20.623  0.00  0.00    +0.000 N 
ATOM     29  C   UNL     1       3.386   5.851  19.684  0.00  0.00    +0.000 C 
ATOM     30  O   UNL     1       4.445   5.597  19.127  0.00  0.00    +0.000 OA
ATOM     31  H   UNL     1       3.329   4.133  20.753  0.00  0.00    +0.000 HD
ATOM     32  H   UNL     1       1.878   5.069  20.890  0.00  0.00    +0.000 HD
ENDBRANCH  21  29
ENDBRANCH   1  26
TORSDOF 2
ENDMDL
MODEL 5
REMARK VINA RESULT:      -7.1      2.281      3.591
REMARK  Name = 
REMARK  2 active torsions:
REMARK  status: ('A' for Active; 'I' for Inactive)
REMARK    1  A    between atoms: C_2  and  C_4
REMARK    2  A    between atoms: C_9  and  C_10
REMARK                            x       y       z     vdW  Elec       q    Type
REMARK                         _______ _______ _______ _____ _____    ______ ____
ROOT
ATOM      1  C   UNL     1      -0.403  12.381  18.745  0.00  0.00    +0.000 C 
ATOM      2  O   UNL     1      -0.474  12.589  17.536  0.00  0.00    +0.000 OA
ATOM      3  N   UNL     1       0.464  11.414  19.288  0.00  0.00    +0.000 N 
ATOM      4  C   UNL     1       1.365  10.729  18.368  0.00  0.00    +0.000 C 
ATOM      5  C   UNL     1       1.757   9.339  18.832  0.00  0.00    +0.000 A 
ATOM      6  C   UNL     1       2.381   8.483  17.898  0.00  0.00    +0.000 A 
ATOM      7  C   UNL     1       2.711   7.178  18.232  0.00  0.00    +0.000 A 
ATOM      8  C   UNL     1       2.449   6.699  19.498  0.00  0.00    +0.000 A 
ATOM      9  C   UNL     1       1.863   7.542  20.448  0.00  0.00    +0.000 A 
ATOM     10  C   UNL     1       1.529   8.881  20.149  0.00  0.00    +0.000 A 
ATOM     11  C   UNL     1       0.806   9.770  21.160  0.00  0.00    +0.000 C 
ATOM     12  C   UNL     1       1.370   9.710  22.612  0.00  0.00    +0.000 C 
ATOM     13  C   UNL     1       0.172   9.440  23.520  0.00  0.00    +0.000 C 
ATOM     14  C   UNL     1      -0.753   8.589  22.676  0.00  0.00    +0.000 C 
ATOM     15  C   UNL     1      -0.641   9.231  21.309  0.00  0.00    +0.000 C 
ATOM     16  C   UNL     1       0.851  11.259  20.691  0.00  0.00    +0.000 C 
ATOM     17  O   UNL     1       2.709   5.432  19.913  0.00  0.00    +0.000 OA
ATOM     18  C   UNL     1       3.256   4.559  18.938  0.00  0.00    +0.000 C 
ATOM     19  C   UNL     1       3.603   5.106  17.553  0.00  0.00    +0.000 C 
ATOM     20  O   UNL     1       3.272   6.445  17.238  0.00  0.00    +0.000 OA
ENDROOT
BRANCH   1  26
ATOM     21  C   UNL     1      -3.435  13.334  20.829  0.00  0.00    +0.000 A 
ATOM     22  C   UNL     1      -3.099  14.609  21.276  0.00  0.00    +0.000 A 
ATOM     23  C   UNL     1      -1.899  15.183  20.845  0.00  0.00    +0.000 A 
ATOM     24  C   UNL     1      -1.010  14.462  20.032  0.00  0.00    +0.000 A 
ATOM     25  F   UNL     1       0.137  15.052  19.673  0.00  0.00    +0.000 F 
ATOM     26  C   UNL     1      -1.318  13.172  19.616  0.00  0.00    +0.000 A 
ATOM     27  C   UNL     1      -2.574  12.677  19.949  0.00  0.00    +0.000 A 
BRANCH  21  29
ATOM     28  N   UNL     1      -5.524  12.209  20.293  0.00  0.00    +0.000 N 
ATOM     29  C   UNL     1      -4.646  12.599  21.265  0.00  0.00    +0.000 C 
ATOM     30  O   UNL     1      -4.826  12.325  22.443  0.00  0.00    +0.000 OA
ATOM     31  H   UNL     1      -6.274  11.598  20.598  0.00  0.00    +0.000 HD
ATOM     32  H   UNL     1      -5.268  12.192  19.319  0.00  0.00    +0.000 HD
ENDBRANCH  21  29
ENDBRANCH   1  26
TORSDOF 2
ENDMDL
MODEL 6
REMARK VINA RESULT:      -7.0      4.300      6.330
REMARK  Name = 
REMARK  2 active torsions:
REMARK  status: ('A' for Active; 'I' for Inactive)
REMARK    1  A    between atoms: C_2  and  C_4
REMARK    2  A    between atoms: C_9  and  C_10
REMARK                            x       y       z     vdW  Elec       q    Type
REMARK                         _______ _______ _______ _____ _____    ______ ____
ROOT
ATOM      1  C   UNL     1      -4.387  14.600  20.818  0.00  0.00    +0.000 C 
ATOM      2  O   UNL     1      -4.814  15.747  20.707  0.00  0.00    +0.000 OA
ATOM      3  N   UNL     1      -3.012  14.305  20.766  0.00  0.00    +0.000 N 
ATOM      4  C   UNL     1      -2.087  15.429  20.682  0.00  0.00    +0.000 C 
ATOM      5  C   UNL     1      -0.780  15.084  19.995  0.00  0.00    +0.000 A 
ATOM      6  C   UNL     1       0.061  16.148  19.601  0.00  0.00    +0.000 A 
ATOM      7  C   UNL     1       1.241  15.911  18.913  0.00  0.00    +0.000 A 
ATOM      8  C   UNL     1       1.625  14.621  18.617  0.00  0.00    +0.000 A 
ATOM      9  C   UNL     1       0.823  13.550  19.029  0.00  0.00    +0.000 A 
ATOM     10  C   UNL     1      -0.377  13.753  19.745  0.00  0.00    +0.000 A 
ATOM     11  C   UNL     1      -1.294  12.587  20.113  0.00  0.00    +0.000 C 
ATOM     12  C   UNL     1      -0.570  11.337  20.697  0.00  0.00    +0.000 C 
ATOM     13  C   UNL     1      -1.064  10.143  19.883  0.00  0.00    +0.000 C 
ATOM     14  C   UNL     1      -1.312  10.710  18.501  0.00  0.00    +0.000 C 
ATOM     15  C   UNL     1      -1.931  12.059  18.801  0.00  0.00    +0.000 C 
ATOM     16  C   UNL     1      -2.359  13.054  21.157  0.00  0.00    +0.000 C 
ATOM     17  O   UNL     1       2.746  14.287  17.927  0.00  0.00    +0.000 OA
ATOM     18  C   UNL     1       3.535  15.371  17.463  0.00  0.00    +0.000 C 
ATOM     19  C   UNL     1       3.143  16.799  17.843  0.00  0.00    +0.000 C 
ATOM     20  O   UNL     1       1.942  17.018  18.558  0.00  0.00    +0.000 OA
ENDROOT
BRANCH   1  26
ATOM     21  C   UNL     1      -6.560  11.589  20.004  0.00  0.00    +0.000 A 
ATOM     22  C   UNL     1      -7.305  11.437  21.170  0.00  0.00    +0.000 A 
ATOM     23  C   UNL     1      -7.135  12.361  22.207  0.00  0.00    +0.000 A 
ATOM     24  C   UNL     1      -6.181  13.385  22.107  0.00  0.00    +0.000 A 
ATOM     25  F   UNL     1      -6.043  14.223  23.142  0.00  0.00    +0.000 F 
ATOM     26  C   UNL     1      -5.403  13.519  20.963  0.00  0.00    +0.000 A 
ATOM     27  C   UNL     1      -5.684  12.670  19.897  0.00  0.00    +0.000 A 
BRANCH  21  29
ATOM     28  N   UNL     1      -7.369   9.517  19.019  0.00  0.00    +0.000 N 
ATOM     29  C   UNL     1      -6.607  10.641  18.865  0.00  0.00    +0.000 C 
ATOM     30  O   UNL     1      -6.014  10.881  17.823  0.00  0.00    +0.000 OA
ATOM     31  H   UNL     1      -7.490   8.952  18.185  0.00  0.00    +0.000 HD
ATOM     32  H   UNL     1      -8.058   9.436  19.749  0.00  0.00    +0.000 HD
ENDBRANCH  21  29
ENDBRANCH   1  26
TORSDOF 2
ENDMDL
MODEL 7
REMARK VINA RESULT:      -6.9      3.790      5.680
REMARK  Name = 
REMARK  2 active torsions:
REMARK  status: ('A' for Active; 'I' for Inactive)
REMARK    1  A    between atoms: C_2  and  C_4
REMARK    2  A    between atoms: C_9  and  C_10
REMARK                            x       y       z     vdW  Elec       q    Type
REMARK                         _______ _______ _______ _____ _____    ______ ____
ROOT
ATOM      1  C   UNL     1      -3.829  14.428  20.797  0.00  0.00    +0.000 C 
ATOM      2  O   UNL     1      -4.206  15.596  20.731  0.00  0.00    +0.000 OA
ATOM      3  N   UNL     1      -2.465  14.081  20.791  0.00  0.00    +0.000 N 
ATOM      4  C   UNL     1      -1.496  15.171  20.812  0.00  0.00    +0.000 C 
ATOM      5  C   UNL     1      -0.171  14.811  20.166  0.00  0.00    +0.000 A 
ATOM      6  C   UNL     1       0.727  15.860  19.871  0.00  0.00    +0.000 A 
ATOM      7  C   UNL     1       1.929  15.614  19.226  0.00  0.00    +0.000 A 
ATOM      8  C   UNL     1       2.277  14.327  18.876  0.00  0.00    +0.000 A 
ATOM      9  C   UNL     1       1.418  13.269  19.191  0.00  0.00    +0.000 A 
ATOM     10  C   UNL     1       0.193  13.480  19.862  0.00  0.00    +0.000 A 
ATOM     11  C   UNL     1      -0.783  12.334  20.122  0.00  0.00    +0.000 C 
ATOM     12  C   UNL     1      -0.135  11.026  20.668  0.00  0.00    +0.000 C 
ATOM     13  C   UNL     1      -0.634   9.899  19.766  0.00  0.00    +0.000 C 
ATOM     14  C   UNL     1      -0.795  10.549  18.408  0.00  0.00    +0.000 C 
ATOM     15  C   UNL     1      -1.377  11.904  18.755  0.00  0.00    +0.000 C 
ATOM     16  C   UNL     1      -1.878  12.786  21.141  0.00  0.00    +0.000 C 
ATOM     17  O   UNL     1       3.417  13.987  18.220  0.00  0.00    +0.000 OA
ATOM     18  C   UNL     1       4.267  15.061  17.853  0.00  0.00    +0.000 C 
ATOM     19  C   UNL     1       3.911  16.481  18.294  0.00  0.00    +0.000 C 
ATOM     20  O   UNL     1       2.687  16.709  18.965  0.00  0.00    +0.000 OA
ENDROOT
BRANCH   1  26
ATOM     21  C   UNL     1      -6.664  12.242  22.074  0.00  0.00    +0.000 A 
ATOM     22  C   UNL     1      -6.929  11.429  20.976  0.00  0.00    +0.000 A 
ATOM     23  C   UNL     1      -6.136  11.558  19.831  0.00  0.00    +0.000 A 
ATOM     24  C   UNL     1      -5.134  12.538  19.758  0.00  0.00    +0.000 A 
ATOM     25  F   UNL     1      -4.425  12.633  18.627  0.00  0.00    +0.000 F 
ATOM     26  C   UNL     1      -4.891  13.383  20.835  0.00  0.00    +0.000 A 
ATOM     27  C   UNL     1      -5.603  13.146  22.006  0.00  0.00    +0.000 A 
BRANCH  21  29
ATOM     28  N   UNL     1      -7.914  13.451  23.775  0.00  0.00    +0.000 N 
ATOM     29  C   UNL     1      -7.473  12.241  23.317  0.00  0.00    +0.000 C 
ATOM     30  O   UNL     1      -7.759  11.195  23.881  0.00  0.00    +0.000 OA
ATOM     31  H   UNL     1      -8.571  13.414  24.548  0.00  0.00    +0.000 HD
ATOM     32  H   UNL     1      -7.915  14.273  23.194  0.00  0.00    +0.000 HD
ENDBRANCH  21  29
ENDBRANCH   1  26
TORSDOF 2
ENDMDL
MODEL 8
REMARK VINA RESULT:      -6.9      4.537      8.621
REMARK  Name = 
REMARK  2 active torsions:
REMARK  status: ('A' for Active; 'I' for Inactive)
REMARK    1  A    between atoms: C_2  and  C_4
REMARK    2  A    between atoms: C_9  and  C_10
REMARK                            x       y       z     vdW  Elec       q    Type
REMARK                         _______ _______ _______ _____ _____    ______ ____
ROOT
ATOM      1  C   UNL     1      -5.506  13.839  20.734  0.00  0.00    +0.000 C 
ATOM      2  O   UNL     1      -6.268  14.783  20.540  0.00  0.00    +0.000 OA
ATOM      3  N   UNL     1      -4.660  13.778  21.857  0.00  0.00    +0.000 N 
ATOM      4  C   UNL     1      -4.793  14.835  22.854  0.00  0.00    +0.000 C 
ATOM      5  C   UNL     1      -3.515  15.096  23.629  0.00  0.00    +0.000 A 
ATOM      6  C   UNL     1      -3.441  16.273  24.404  0.00  0.00    +0.000 A 
ATOM      7  C   UNL     1      -2.283  16.609  25.090  0.00  0.00    +0.000 A 
ATOM      8  C   UNL     1      -1.184  15.780  25.039  0.00  0.00    +0.000 A 
ATOM      9  C   UNL     1      -1.247  14.591  24.305  0.00  0.00    +0.000 A 
ATOM     10  C   UNL     1      -2.415  14.209  23.608  0.00  0.00    +0.000 A 
ATOM     11  C   UNL     1      -2.450  12.956  22.734  0.00  0.00    +0.000 C 
ATOM     12  C   UNL     1      -1.816  11.686  23.376  0.00  0.00    +0.000 C 
ATOM     13  C   UNL     1      -0.826  11.143  22.348  0.00  0.00    +0.000 C 
ATOM     14  C   UNL     1      -0.309  12.375  21.636  0.00  0.00    +0.000 C 
ATOM     15  C   UNL     1      -1.557  13.224  21.494  0.00  0.00    +0.000 C 
ATOM     16  C   UNL     1      -3.926  12.613  22.352  0.00  0.00    +0.000 C 
ATOM     17  O   UNL     1       0.002  16.032  25.651  0.00  0.00    +0.000 OA
ATOM     18  C   UNL     1       0.089  17.261  26.355  0.00  0.00    +0.000 C 
ATOM     19  C   UNL     1      -1.150  18.151  26.462  0.00  0.00    +0.000 C 
ATOM     20  O   UNL     1      -2.326  17.783  25.768  0.00  0.00    +0.000 OA
ENDROOT
BRANCH   1  26
ATOM     21  C   UNL     1      -4.195  11.392  18.137  0.00  0.00    +0.000 A 
ATOM     22  C   UNL     1      -5.358  10.751  17.720  0.00  0.00    +0.000 A 
ATOM     23  C   UNL     1      -6.585  11.162  18.250  0.00  0.00    +0.000 A 
ATOM     24  C   UNL     1      -6.643  12.157  19.239  0.00  0.00    +0.000 A 
ATOM     25  F   UNL     1      -7.842  12.490  19.730  0.00  0.00    +0.000 F 
ATOM     26  C   UNL     1      -5.482  12.773  19.692  0.00  0.00    +0.000 A 
ATOM     27  C   UNL     1      -4.291  12.439  19.054  0.00  0.00    +0.000 A 
BRANCH  21  29
ATOM     28  N   UNL     1      -2.108  11.940  17.014  0.00  0.00    +0.000 N 
ATOM     29  C   UNL     1      -2.834  11.004  17.695  0.00  0.00    +0.000 C 
ATOM     30  O   UNL     1      -2.375   9.904  17.965  0.00  0.00    +0.000 OA
ATOM     31  H   UNL     1      -1.138  11.700  16.837  0.00  0.00    +0.000 HD
ATOM     32  H   UNL     1      -2.360  12.915  17.015  0.00  0.00    +0.000 HD
ENDBRANCH  21  29
ENDBRANCH   1  26
TORSDOF 2
ENDMDL
MODEL 9
REMARK VINA RESULT:      -6.8      2.769      7.861
REMARK  Name = 
REMARK  2 active torsions:
REMARK  status: ('A' for Active; 'I' for Inactive)
REMARK    1  A    between atoms: C_2  and  C_4
REMARK    2  A    between atoms: C_9  and  C_10
REMARK                            x       y       z     vdW  Elec       q    Type
REMARK                         _______ _______ _______ _____ _____    ______ ____
ROOT
ATOM      1  C   UNL     1       1.184   9.238  21.056  0.00  0.00    +0.000 C 
ATOM      2  O   UNL     1       1.549   9.240  22.229  0.00  0.00    +0.000 OA
ATOM      3  N   UNL     1       0.387  10.266  20.519  0.00  0.00    +0.000 N 
ATOM      4  C   UNL     1       0.090  11.404  21.381  0.00  0.00    +0.000 C 
ATOM      5  C   UNL     1      -1.217  12.094  21.039  0.00  0.00    +0.000 A 
ATOM      6  C   UNL     1      -1.744  13.013  21.973  0.00  0.00    +0.000 A 
ATOM      7  C   UNL     1      -2.964  13.635  21.756  0.00  0.00    +0.000 A 
ATOM      8  C   UNL     1      -3.678  13.378  20.606  0.00  0.00    +0.000 A 
ATOM      9  C   UNL     1      -3.157  12.498  19.651  0.00  0.00    +0.000 A 
ATOM     10  C   UNL     1      -1.911  11.859  19.831  0.00  0.00    +0.000 A 
ATOM     11  C   UNL     1      -1.388  10.830  18.829  0.00  0.00    +0.000 C 
ATOM     12  C   UNL     1      -1.528  11.238  17.331  0.00  0.00    +0.000 C 
ATOM     13  C   UNL     1      -2.216  10.065  16.636  0.00  0.00    +0.000 C 
ATOM     14  C   UNL     1      -3.129   9.485  17.695  0.00  0.00    +0.000 C 
ATOM     15  C   UNL     1      -2.280   9.566  18.947  0.00  0.00    +0.000 C 
ATOM     16  C   UNL     1       0.120  10.534  19.105  0.00  0.00    +0.000 C 
ATOM     17  O   UNL     1      -4.891  13.915  20.314  0.00  0.00    +0.000 OA
ATOM     18  C   UNL     1      -5.447  14.768  21.302  0.00  0.00    +0.000 C 
ATOM     19  C   UNL     1      -4.629  15.100  22.550  0.00  0.00    +0.000 C 
ATOM     20  O   UNL     1      -3.379  14.467  22.745  0.00  0.00    +0.000 OA
ENDROOT
BRANCH   1  26
ATOM     21  C   UNL     1       1.818   5.639  20.011  0.00  0.00    +0.000 A 
ATOM     22  C   UNL     1       2.320   5.789  18.721  0.00  0.00    +0.000 A 
ATOM     23  C   UNL     1       2.506   7.079  18.212  0.00  0.00    +0.000 A 
ATOM     24  C   UNL     1       2.129   8.206  18.959  0.00  0.00    +0.000 A 
ATOM     25  F   UNL     1       2.304   9.414  18.410  0.00  0.00    +0.000 F 
ATOM     26  C   UNL     1       1.587   8.064  20.231  0.00  0.00    +0.000 A 
ATOM     27  C   UNL     1       1.536   6.779  20.763  0.00  0.00    +0.000 A 
BRANCH  21  29
ATOM     28  N   UNL     1       0.547   3.565  20.049  0.00  0.00    +0.000 N 
ATOM     29  C   UNL     1       1.519   4.327  20.633  0.00  0.00    +0.000 C 
ATOM     30  O   UNL     1       2.147   3.935  21.607  0.00  0.00    +0.000 OA
ATOM     31  H   UNL     1       0.451   2.622  20.411  0.00  0.00    +0.000 HD
ATOM     32  H   UNL     1       0.215   3.749  19.116  0.00  0.00    +0.000 HD
ENDBRANCH  21  29
ENDBRANCH   1  26
TORSDOF 2
ENDMDL
