MODEL 1
REMARK VINA RESULT:      -8.7      0.000      0.000
REMARK  Name = 
REMARK  4 active torsions:
REMARK  status: ('A' for Active; 'I' for Inactive)
REMARK    1  A    between atoms: C_1  and  C_2
REMARK    2  A    between atoms: C_4  and  C_5
REMARK    3  A    between atoms: C_7  and  C_8
REMARK    4  A    between atoms: C_18  and  C_19
REMARK                            x       y       z     vdW  Elec       q    Type
REMARK                         _______ _______ _______ _____ _____    ______ ____
ROOT
ATOM      1  C   UNL     1       4.751   5.205  17.224  0.00  0.00    +0.000 C 
ATOM      2  O   UNL     1       4.977   4.740  16.107  0.00  0.00    +0.000 OA
ATOM      3  N   UNL     1       3.528   5.020  17.892  0.00  0.00    +0.000 N 
ATOM      4  C   UNL     1       2.449   4.213  17.251  0.00  0.00    +0.000 C 
ATOM      5  C   UNL     1       1.931   3.043  18.125  0.00  0.00    +0.000 C 
ATOM      6  C   UNL     1       1.921   3.438  19.556  0.00  0.00    +0.000 A 
ATOM      7  N   UNL     1       1.439   2.686  20.595  0.00  0.00    +0.000 NA
ATOM      8  C   UNL     1       1.774   3.363  21.681  0.00  0.00    +0.000 A 
ATOM      9  N   UNL     1       2.462   4.503  21.376  0.00  0.00    +0.000 N 
ATOM     10  C   UNL     1       2.516   4.585  20.014  0.00  0.00    +0.000 A 
ATOM     11  C   UNL     1       3.213   5.613  19.213  0.00  0.00    +0.000 C 
ATOM     12  H   UNL     1       2.877   5.139  22.044  0.00  0.00    +0.000 HD
ENDROOT
BRANCH   1  19
ATOM     13  C   UNL     1       7.993   9.011  17.317  0.00  0.00    +0.000 C 
ATOM     14  C   UNL     1       7.518   7.701  17.872  0.00  0.00    +0.000 A 
ATOM     15  C   UNL     1       8.272   7.025  18.844  0.00  0.00    +0.000 A 
ATOM     16  C   UNL     1       7.802   5.839  19.409  0.00  0.00    +0.000 A 
ATOM     17  C   UNL     1       8.637   5.031  20.359  0.00  0.00    +0.000 C 
ATOM     18  C   UNL     1       6.555   5.349  19.007  0.00  0.00    +0.000 A 
ATOM     19  C   UNL     1       5.875   5.912  17.921  0.00  0.00    +0.000 A 
ATOM     20  C   UNL     1       6.328   7.125  17.396  0.00  0.00    +0.000 A 
ENDBRANCH   1  19
BRANCH  11  21
ATOM     21  C   UNL     1       2.464   6.937  19.115  0.00  0.00    +0.000 A 
ATOM     22  C   UNL     1       2.416   7.731  17.959  0.00  0.00    +0.000 A 
ATOM     23  C   UNL     1       1.785   8.973  17.983  0.00  0.00    +0.000 A 
ATOM     24  C   UNL     1       1.220   9.394  19.173  0.00  0.00    +0.000 A 
ATOM     25  N   UNL     1       1.255   8.676  20.312  0.00  0.00    +0.000 NA
ATOM     26  C   UNL     1       1.873   7.476  20.254  0.00  0.00    +0.000 A 
ENDBRANCH  11  21
TORSDOF 2
ENDMDL
MODEL 2
REMARK VINA RESULT:      -8.4      0.470      1.787
REMARK  Name = 
REMARK  4 active torsions:
REMARK  status: ('A' for Active; 'I' for Inactive)
REMARK    1  A    between atoms: C_1  and  C_2
REMARK    2  A    between atoms: C_4  and  C_5
REMARK    3  A    between atoms: C_7  and  C_8
REMARK    4  A    between atoms: C_18  and  C_19
REMARK                            x       y       z     vdW  Elec       q    Type
REMARK                         _______ _______ _______ _____ _____    ______ ____
ROOT
ATOM      1  C   UNL     1       4.914   4.825  16.882  0.00  0.00    +0.000 C 
ATOM      2  O   UNL     1       5.036   4.273  15.789  0.00  0.00    +0.000 OA
ATOM      3  N   UNL     1       3.740   4.740  17.650  0.00  0.00    +0.000 N 
ATOM      4  C   UNL     1       2.586   3.937  17.152  0.00  0.00    +0.000 C 
ATOM      5  C   UNL     1       2.092   2.855  18.144  0.00  0.00    +0.000 C 
ATOM      6  C   UNL     1       2.207   3.349  19.540  0.00  0.00    +0.000 A 
ATOM      7  N   UNL     1       1.779   2.693  20.664  0.00  0.00    +0.000 NA
ATOM      8  C   UNL     1       2.221   3.429  21.670  0.00  0.00    +0.000 A 
ATOM      9  N   UNL     1       2.927   4.514  21.233  0.00  0.00    +0.000 N 
ATOM     10  C   UNL     1       2.878   4.499  19.868  0.00  0.00    +0.000 A 
ATOM     11  C   UNL     1       3.550   5.437  18.944  0.00  0.00    +0.000 C 
ATOM     12  H   UNL     1       3.416   5.177  21.819  0.00  0.00    +0.000 HD
ENDROOT
BRANCH   1  19
ATOM     13  C   UNL     1       8.487   5.056  20.373  0.00  0.00    +0.000 C 
ATOM     14  C   UNL     1       7.760   5.683  19.220  0.00  0.00    +0.000 A 
ATOM     15  C   UNL     1       8.023   7.012  18.853  0.00  0.00    +0.000 A 
ATOM     16  C   UNL     1       7.397   7.579  17.743  0.00  0.00    +0.000 A 
ATOM     17  C   UNL     1       7.564   9.030  17.396  0.00  0.00    +0.000 C 
ATOM     18  C   UNL     1       6.519   6.792  16.990  0.00  0.00    +0.000 A 
ATOM     19  C   UNL     1       6.115   5.530  17.440  0.00  0.00    +0.000 A 
ATOM     20  C   UNL     1       6.784   4.953  18.522  0.00  0.00    +0.000 A 
ENDBRANCH   1  19
BRANCH  11  21
ATOM     21  C   UNL     1       2.847   6.782  18.805  0.00  0.00    +0.000 A 
ATOM     22  C   UNL     1       2.988   7.634  17.700  0.00  0.00    +0.000 A 
ATOM     23  C   UNL     1       2.381   8.888  17.695  0.00  0.00    +0.000 A 
ATOM     24  C   UNL     1       1.649   9.263  18.806  0.00  0.00    +0.000 A 
ATOM     25  N   UNL     1       1.499   8.487  19.898  0.00  0.00    +0.000 NA
ATOM     26  C   UNL     1       2.098   7.277  19.870  0.00  0.00    +0.000 A 
ENDBRANCH  11  21
TORSDOF 2
ENDMDL
MODEL 3
REMARK VINA RESULT:      -7.2      6.978     10.214
REMARK  Name = 
REMARK  4 active torsions:
REMARK  status: ('A' for Active; 'I' for Inactive)
REMARK    1  A    between atoms: C_1  and  C_2
REMARK    2  A    between atoms: C_4  and  C_5
REMARK    3  A    between atoms: C_7  and  C_8
REMARK    4  A    between atoms: C_18  and  C_19
REMARK                            x       y       z     vdW  Elec       q    Type
REMARK                         _______ _______ _______ _____ _____    ______ ____
ROOT
ATOM      1  C   UNL     1      -0.616  11.572  22.328  0.00  0.00    +0.000 C 
ATOM      2  O   UNL     1      -0.048  10.768  23.067  0.00  0.00    +0.000 OA
ATOM      3  N   UNL     1      -0.442  11.575  20.933  0.00  0.00    +0.000 N 
ATOM      4  C   UNL     1       0.447  10.561  20.295  0.00  0.00    +0.000 C 
ATOM      5  C   UNL     1      -0.239   9.731  19.180  0.00  0.00    +0.000 C 
ATOM      6  C   UNL     1      -1.191  10.582  18.421  0.00  0.00    +0.000 A 
ATOM      7  N   UNL     1      -1.901  10.204  17.313  0.00  0.00    +0.000 NA
ATOM      8  C   UNL     1      -2.718  11.216  17.077  0.00  0.00    +0.000 A 
ATOM      9  N   UNL     1      -2.570  12.214  17.999  0.00  0.00    +0.000 N 
ATOM     10  C   UNL     1      -1.556  11.838  18.834  0.00  0.00    +0.000 A 
ATOM     11  C   UNL     1      -1.073  12.564  20.027  0.00  0.00    +0.000 C 
ATOM     12  H   UNL     1      -3.132  13.051  18.059  0.00  0.00    +0.000 HD
ENDROOT
BRANCH   1  19
ATOM     13  C   UNL     1      -1.500  15.933  24.608  0.00  0.00    +0.000 C 
ATOM     14  C   UNL     1      -1.978  14.581  24.169  0.00  0.00    +0.000 A 
ATOM     15  C   UNL     1      -3.236  14.107  24.574  0.00  0.00    +0.000 A 
ATOM     16  C   UNL     1      -3.712  12.878  24.115  0.00  0.00    +0.000 A 
ATOM     17  C   UNL     1      -4.995  12.288  24.624  0.00  0.00    +0.000 C 
ATOM     18  C   UNL     1      -2.923  12.139  23.228  0.00  0.00    +0.000 A 
ATOM     19  C   UNL     1      -1.603  12.512  22.953  0.00  0.00    +0.000 A 
ATOM     20  C   UNL     1      -1.154  13.766  23.375  0.00  0.00    +0.000 A 
ENDBRANCH   1  19
BRANCH  11  21
ATOM     21  C   UNL     1      -0.170  13.750  19.709  0.00  0.00    +0.000 A 
ATOM     22  C   UNL     1      -0.495  15.084  19.994  0.00  0.00    +0.000 A 
ATOM     23  C   UNL     1       0.348  16.117  19.586  0.00  0.00    +0.000 A 
ATOM     24  C   UNL     1       1.497  15.786  18.893  0.00  0.00    +0.000 A 
ATOM     25  N   UNL     1       1.842  14.521  18.580  0.00  0.00    +0.000 NA
ATOM     26  C   UNL     1       1.006  13.544  18.992  0.00  0.00    +0.000 A 
ENDBRANCH  11  21
TORSDOF 2
ENDMDL
MODEL 4
REMARK VINA RESULT:      -7.2      4.045      7.241
REMARK  Name = 
REMARK  4 active torsions:
REMARK  status: ('A' for Active; 'I' for Inactive)
REMARK    1  A    between atoms: C_1  and  C_2
REMARK    2  A    between atoms: C_4  and  C_5
REMARK    3  A    between atoms: C_7  and  C_8
REMARK    4  A    between atoms: C_18  and  C_19
REMARK                            x       y       z     vdW  Elec       q    Type
REMARK                         _______ _______ _______ _____ _____    ______ ____
ROOT
ATOM      1  C   UNL     1       1.051   9.294  21.201  0.00  0.00    +0.000 C 
ATOM      2  O   UNL     1       1.019   9.150  22.423  0.00  0.00    +0.000 OA
ATOM      3  N   UNL     1       0.827  10.534  20.576  0.00  0.00    +0.000 N 
ATOM      4  C   UNL     1       0.557  11.743  21.406  0.00  0.00    +0.000 C 
ATOM      5  C   UNL     1       1.512  12.931  21.123  0.00  0.00    +0.000 C 
ATOM      6  C   UNL     1       1.848  12.984  19.677  0.00  0.00    +0.000 A 
ATOM      7  N   UNL     1       2.592  13.955  19.059  0.00  0.00    +0.000 NA
ATOM      8  C   UNL     1       2.756  13.514  17.823  0.00  0.00    +0.000 A 
ATOM      9  N   UNL     1       2.163  12.298  17.635  0.00  0.00    +0.000 N 
ATOM     10  C   UNL     1       1.534  11.975  18.803  0.00  0.00    +0.000 A 
ATOM     11  C   UNL     1       0.809  10.723  19.106  0.00  0.00    +0.000 C 
ATOM     12  H   UNL     1       2.215  11.739  16.794  0.00  0.00    +0.000 HD
ENDROOT
BRANCH   1  19
ATOM     13  C   UNL     1       1.592   4.337  20.835  0.00  0.00    +0.000 C 
ATOM     14  C   UNL     1       1.812   5.709  20.270  0.00  0.00    +0.000 A 
ATOM     15  C   UNL     1       2.605   5.887  19.125  0.00  0.00    +0.000 A 
ATOM     16  C   UNL     1       2.759   7.153  18.559  0.00  0.00    +0.000 A 
ATOM     17  C   UNL     1       3.694   7.396  17.410  0.00  0.00    +0.000 C 
ATOM     18  C   UNL     1       2.091   8.236  19.139  0.00  0.00    +0.000 A 
ATOM     19  C   UNL     1       1.443   8.107  20.372  0.00  0.00    +0.000 A 
ATOM     20  C   UNL     1       1.252   6.830  20.904  0.00  0.00    +0.000 A 
ENDBRANCH   1  19
BRANCH  11  21
ATOM     21  C   UNL     1      -0.591  10.656  18.508  0.00  0.00    +0.000 A 
ATOM     22  C   UNL     1      -0.980   9.745  17.515  0.00  0.00    +0.000 A 
ATOM     23  C   UNL     1      -2.256   9.812  16.958  0.00  0.00    +0.000 A 
ATOM     24  C   UNL     1      -3.111  10.801  17.406  0.00  0.00    +0.000 A 
ATOM     25  N   UNL     1      -2.778  11.709  18.344  0.00  0.00    +0.000 NA
ATOM     26  C   UNL     1      -1.535  11.615  18.866  0.00  0.00    +0.000 A 
ENDBRANCH  11  21
TORSDOF 2
ENDMDL
MODEL 5
REMARK VINA RESULT:      -6.9      7.303     10.464
REMARK  Name = 
REMARK  4 active torsions:
REMARK  status: ('A' for Active; 'I' for Inactive)
REMARK    1  A    between atoms: C_1  and  C_2
REMARK    2  A    between atoms: C_4  and  C_5
REMARK    3  A    between atoms: C_7  and  C_8
REMARK    4  A    between atoms: C_18  and  C_19
REMARK                            x       y       z     vdW  Elec       q    Type
REMARK                         _______ _______ _______ _____ _____    ______ ____
ROOT
ATOM      1  C   UNL     1      -0.701  11.570  22.401  0.00  0.00    +0.000 C 
ATOM      2  O   UNL     1      -0.020  10.754  23.021  0.00  0.00    +0.000 OA
ATOM      3  N   UNL     1      -0.731  11.623  20.996  0.00  0.00    +0.000 N 
ATOM      4  C   UNL     1       0.071  10.649  20.201  0.00  0.00    +0.000 C 
ATOM      5  C   UNL     1      -0.756   9.844  19.167  0.00  0.00    +0.000 C 
ATOM      6  C   UNL     1      -1.821  10.700  18.585  0.00  0.00    +0.000 A 
ATOM      7  N   UNL     1      -2.678  10.344  17.577  0.00  0.00    +0.000 NA
ATOM      8  C   UNL     1      -3.536  11.347  17.498  0.00  0.00    +0.000 A 
ATOM      9  N   UNL     1      -3.271  12.316  18.424  0.00  0.00    +0.000 N 
ATOM     10  C   UNL     1      -2.142  11.934  19.090  0.00  0.00    +0.000 A 
ATOM     11  C   UNL     1      -1.502  12.629  20.227  0.00  0.00    +0.000 C 
ATOM     12  H   UNL     1      -3.832  13.140  18.595  0.00  0.00    +0.000 HD
ENDROOT
BRANCH   1  19
ATOM     13  C   UNL     1      -5.173  12.363  24.494  0.00  0.00    +0.000 C 
ATOM     14  C   UNL     1      -3.821  12.876  24.092  0.00  0.00    +0.000 A 
ATOM     15  C   UNL     1      -3.514  14.239  24.216  0.00  0.00    +0.000 A 
ATOM     16  C   UNL     1      -2.238  14.710  23.906  0.00  0.00    +0.000 A 
ATOM     17  C   UNL     1      -1.913  16.176  23.912  0.00  0.00    +0.000 C 
ATOM     18  C   UNL     1      -1.265  13.795  23.490  0.00  0.00    +0.000 A 
ATOM     19  C   UNL     1      -1.602  12.469  23.196  0.00  0.00    +0.000 A 
ATOM     20  C   UNL     1      -2.866  11.997  23.557  0.00  0.00    +0.000 A 
ENDBRANCH   1  19
BRANCH  11  21
ATOM     21  C   UNL     1      -0.673  13.843  19.825  0.00  0.00    +0.000 A 
ATOM     22  C   UNL     1      -1.053  15.171  20.070  0.00  0.00    +0.000 A 
ATOM     23  C   UNL     1      -0.280  16.225  19.587  0.00  0.00    +0.000 A 
ATOM     24  C   UNL     1       0.856  15.921  18.861  0.00  0.00    +0.000 A 
ATOM     25  N   UNL     1       1.253  14.663  18.585  0.00  0.00    +0.000 NA
ATOM     26  C   UNL     1       0.483  13.664  19.070  0.00  0.00    +0.000 A 
ENDBRANCH  11  21
TORSDOF 2
ENDMDL
MODEL 6
REMARK VINA RESULT:      -6.8      6.026      9.566
REMARK  Name = 
REMARK  4 active torsions:
REMARK  status: ('A' for Active; 'I' for Inactive)
REMARK    1  A    between atoms: C_1  and  C_2
REMARK    2  A    between atoms: C_4  and  C_5
REMARK    3  A    between atoms: C_7  and  C_8
REMARK    4  A    between atoms: C_18  and  C_19
REMARK                            x       y       z     vdW  Elec       q    Type
REMARK                         _______ _______ _______ _____ _____    ______ ____
ROOT
ATOM      1  C   UNL     1      -1.518  14.026  20.225  0.00  0.00    +0.000 C 
ATOM      2  O   UNL     1      -2.091  14.655  21.113  0.00  0.00    +0.000 OA
ATOM      3  N   UNL     1      -2.042  12.844  19.671  0.00  0.00    +0.000 N 
ATOM      4  C   UNL     1      -3.354  12.321  20.149  0.00  0.00    +0.000 C 
ATOM      5  C   UNL     1      -4.393  12.095  19.021  0.00  0.00    +0.000 C 
ATOM      6  C   UNL     1      -3.716  11.615  17.790  0.00  0.00    +0.000 A 
ATOM      7  N   UNL     1      -4.335  11.229  16.630  0.00  0.00    +0.000 NA
ATOM      8  C   UNL     1      -3.347  11.031  15.774  0.00  0.00    +0.000 A 
ATOM      9  N   UNL     1      -2.129  11.292  16.335  0.00  0.00    +0.000 N 
ATOM     10  C   UNL     1      -2.353  11.617  17.643  0.00  0.00    +0.000 A 
ATOM     11  C   UNL     1      -1.346  12.040  18.638  0.00  0.00    +0.000 C 
ATOM     12  H   UNL     1      -1.241  11.276  15.853  0.00  0.00    +0.000 HD
ENDROOT
BRANCH   1  19
ATOM     13  C   UNL     1       3.469  14.371  20.356  0.00  0.00    +0.000 C 
ATOM     14  C   UNL     1       2.150  14.855  19.829  0.00  0.00    +0.000 A 
ATOM     15  C   UNL     1       2.084  16.010  19.034  0.00  0.00    +0.000 A 
ATOM     16  C   UNL     1       0.870  16.428  18.489  0.00  0.00    +0.000 A 
ATOM     17  C   UNL     1       0.745  17.721  17.737  0.00  0.00    +0.000 C 
ATOM     18  C   UNL     1      -0.276  15.663  18.731  0.00  0.00    +0.000 A 
ATOM     19  C   UNL     1      -0.260  14.615  19.658  0.00  0.00    +0.000 A 
ATOM     20  C   UNL     1       0.967  14.174  20.158  0.00  0.00    +0.000 A 
ENDBRANCH   1  19
BRANCH  11  21
ATOM     21  C   UNL     1      -0.527  10.894  19.219  0.00  0.00    +0.000 A 
ATOM     22  C   UNL     1      -0.606  10.465  20.552  0.00  0.00    +0.000 A 
ATOM     23  C   UNL     1       0.246   9.468  21.024  0.00  0.00    +0.000 A 
ATOM     24  C   UNL     1       1.165   8.927  20.145  0.00  0.00    +0.000 A 
ATOM     25  N   UNL     1       1.291   9.317  18.861  0.00  0.00    +0.000 NA
ATOM     26  C   UNL     1       0.449  10.284  18.435  0.00  0.00    +0.000 A 
ENDBRANCH  11  21
TORSDOF 2
ENDMDL
MODEL 7
REMARK VINA RESULT:      -6.8      6.708      9.856
REMARK  Name = 
REMARK  4 active torsions:
REMARK  status: ('A' for Active; 'I' for Inactive)
REMARK    1  A    between atoms: C_1  and  C_2
REMARK    2  A    between atoms: C_4  and  C_5
REMARK    3  A    between atoms: C_7  and  C_8
REMARK    4  A    between atoms: C_18  and  C_19
REMARK                            x       y       z     vdW  Elec       q    Type
REMARK                         _______ _______ _______ _____ _____    ______ ____
ROOT
ATOM      1  C   UNL     1      -0.015  11.386  21.765  0.00  0.00    +0.000 C 
ATOM      2  O   UNL     1       0.626  10.552  22.404  0.00  0.00    +0.000 OA
ATOM      3  N   UNL     1      -0.037  11.414  20.360  0.00  0.00    +0.000 N 
ATOM      4  C   UNL     1       0.724  10.391  19.586  0.00  0.00    +0.000 C 
ATOM      5  C   UNL     1      -0.134   9.604  18.563  0.00  0.00    +0.000 C 
ATOM      6  C   UNL     1      -1.158  10.496  17.961  0.00  0.00    +0.000 A 
ATOM      7  N   UNL     1      -2.026  10.160  16.955  0.00  0.00    +0.000 NA
ATOM      8  C   UNL     1      -2.838  11.199  16.854  0.00  0.00    +0.000 A 
ATOM      9  N   UNL     1      -2.533  12.172  17.763  0.00  0.00    +0.000 N 
ATOM     10  C   UNL     1      -1.425  11.752  18.442  0.00  0.00    +0.000 A 
ATOM     11  C   UNL     1      -0.759  12.439  19.568  0.00  0.00    +0.000 C 
ATOM     12  H   UNL     1      -3.057  13.023  17.916  0.00  0.00    +0.000 HD
ENDROOT
BRANCH   1  19
ATOM     13  C   UNL     1      -4.292  12.251  24.207  0.00  0.00    +0.000 C 
ATOM     14  C   UNL     1      -3.015  12.764  23.609  0.00  0.00    +0.000 A 
ATOM     15  C   UNL     1      -2.768  14.144  23.539  0.00  0.00    +0.000 A 
ATOM     16  C   UNL     1      -1.555  14.623  23.044  0.00  0.00    +0.000 A 
ATOM     17  C   UNL     1      -1.307  16.090  22.844  0.00  0.00    +0.000 C 
ATOM     18  C   UNL     1      -0.582  13.703  22.639  0.00  0.00    +0.000 A 
ATOM     19  C   UNL     1      -0.877  12.339  22.539  0.00  0.00    +0.000 A 
ATOM     20  C   UNL     1      -2.073  11.865  23.083  0.00  0.00    +0.000 A 
ENDBRANCH   1  19
BRANCH  11  21
ATOM     21  C   UNL     1       0.125  13.607  19.148  0.00  0.00    +0.000 A 
ATOM     22  C   UNL     1       1.485  13.489  18.826  0.00  0.00    +0.000 A 
ATOM     23  C   UNL     1       2.242  14.624  18.540  0.00  0.00    +0.000 A 
ATOM     24  C   UNL     1       1.616  15.855  18.590  0.00  0.00    +0.000 A 
ATOM     25  N   UNL     1       0.318  16.021  18.911  0.00  0.00    +0.000 NA
ATOM     26  C   UNL     1      -0.388  14.901  19.181  0.00  0.00    +0.000 A 
ENDBRANCH  11  21
TORSDOF 2
ENDMDL
MODEL 8
REMARK VINA RESULT:      -6.7      7.269     10.226
REMARK  Name = 
REMARK  4 active torsions:
REMARK  status: ('A' for Active; 'I' for Inactive)
REMARK    1  A    between atoms: C_1  and  C_2
REMARK    2  A    between atoms: C_4  and  C_5
REMARK    3  A    between atoms: C_7  and  C_8
REMARK    4  A    between atoms: C_18  and  C_19
REMARK                            x       y       z     vdW  Elec       q    Type
REMARK                         _______ _______ _______ _____ _____    ______ ____
ROOT
ATOM      1  C   UNL     1      -0.649  10.679  18.422  0.00  0.00    +0.000 C 
ATOM      2  O   UNL     1       0.077   9.707  18.217  0.00  0.00    +0.000 OA
ATOM      3  N   UNL     1      -0.218  11.812  19.134  0.00  0.00    +0.000 N 
ATOM      4  C   UNL     1       1.178  11.873  19.654  0.00  0.00    +0.000 C 
ATOM      5  C   UNL     1       1.970  13.125  19.197  0.00  0.00    +0.000 C 
ATOM      6  C   UNL     1       1.068  14.303  19.125  0.00  0.00    +0.000 A 
ATOM      7  N   UNL     1       1.445  15.590  18.845  0.00  0.00    +0.000 NA
ATOM      8  C   UNL     1       0.308  16.256  18.739  0.00  0.00    +0.000 A 
ATOM      9  N   UNL     1      -0.776  15.444  18.921  0.00  0.00    +0.000 N 
ATOM     10  C   UNL     1      -0.297  14.201  19.221  0.00  0.00    +0.000 A 
ATOM     11  C   UNL     1      -1.089  12.972  19.440  0.00  0.00    +0.000 C 
ATOM     12  H   UNL     1      -1.743  15.718  18.819  0.00  0.00    +0.000 HD
ENDROOT
BRANCH   1  19
ATOM     13  C   UNL     1      -3.459  10.129  14.323  0.00  0.00    +0.000 C 
ATOM     14  C   UNL     1      -3.336  10.522  15.766  0.00  0.00    +0.000 A 
ATOM     15  C   UNL     1      -4.414  11.124  16.432  0.00  0.00    +0.000 A 
ATOM     16  C   UNL     1      -4.326  11.432  17.790  0.00  0.00    +0.000 A 
ATOM     17  C   UNL     1      -5.413  12.184  18.502  0.00  0.00    +0.000 C 
ATOM     18  C   UNL     1      -3.153  11.109  18.480  0.00  0.00    +0.000 A 
ATOM     19  C   UNL     1      -2.012  10.672  17.796  0.00  0.00    +0.000 A 
ATOM     20  C   UNL     1      -2.126  10.320  16.449  0.00  0.00    +0.000 A 
ENDBRANCH   1  19
BRANCH  11  21
ATOM     21  C   UNL     1      -1.740  12.890  20.816  0.00  0.00    +0.000 A 
ATOM     22  C   UNL     1      -1.366  11.974  21.810  0.00  0.00    +0.000 A 
ATOM     23  C   UNL     1      -2.075  11.906  23.008  0.00  0.00    +0.000 A 
ATOM     24  C   UNL     1      -3.151  12.756  23.177  0.00  0.00    +0.000 A 
ATOM     25  N   UNL     1      -3.560  13.640  22.245  0.00  0.00    +0.000 NA
ATOM     26  C   UNL     1      -2.849  13.683  21.097  0.00  0.00    +0.000 A 
ENDBRANCH  11  21
TORSDOF 2
ENDMDL
MODEL 9
REMARK VINA RESULT:      -6.7      7.017      9.972
REMARK  Name = 
REMARK  4 active torsions:
REMARK  status: ('A' for Active; 'I' for Inactive)
REMARK    1  A    between atoms: C_1  and  C_2
REMARK    2  A    between atoms: C_4  and  C_5
REMARK    3  A    between atoms: C_7  and  C_8
REMARK    4  A    between atoms: C_18  and  C_19
REMARK                            x       y       z     vdW  Elec       q    Type
REMARK                         _______ _______ _______ _____ _____    ______ ____
ROOT
ATOM      1  C   UNL     1      -0.543  10.433  18.171  0.00  0.00    +0.000 C 
ATOM      2  O   UNL     1       0.199   9.502  17.863  0.00  0.00    +0.000 OA
ATOM      3  N   UNL     1      -0.107  11.535  18.928  0.00  0.00    +0.000 N 
ATOM      4  C   UNL     1       1.314  11.611  19.373  0.00  0.00    +0.000 C 
ATOM      5  C   UNL     1       2.040  12.915  18.953  0.00  0.00    +0.000 C 
ATOM      6  C   UNL     1       1.099  14.063  19.007  0.00  0.00    +0.000 A 
ATOM      7  N   UNL     1       1.420  15.377  18.789  0.00  0.00    +0.000 NA
ATOM      8  C   UNL     1       0.259  16.010  18.788  0.00  0.00    +0.000 A 
ATOM      9  N   UNL     1      -0.787  15.152  18.979  0.00  0.00    +0.000 N 
ATOM     10  C   UNL     1      -0.253  13.909  19.172  0.00  0.00    +0.000 A 
ATOM     11  C   UNL     1      -0.994  12.643  19.355  0.00  0.00    +0.000 C 
ATOM     12  H   UNL     1      -1.766  15.398  18.948  0.00  0.00    +0.000 HD
ENDROOT
BRANCH   1  19
ATOM     13  C   UNL     1      -3.563  10.130  14.197  0.00  0.00    +0.000 C 
ATOM     14  C   UNL     1      -3.372  10.394  15.661  0.00  0.00    +0.000 A 
ATOM     15  C   UNL     1      -4.434  10.879  16.440  0.00  0.00    +0.000 A 
ATOM     16  C   UNL     1      -4.280  11.064  17.814  0.00  0.00    +0.000 A 
ATOM     17  C   UNL     1      -5.354  11.694  18.652  0.00  0.00    +0.000 C 
ATOM     18  C   UNL     1      -3.055  10.736  18.405  0.00  0.00    +0.000 A 
ATOM     19  C   UNL     1      -1.939  10.418  17.622  0.00  0.00    +0.000 A 
ATOM     20  C   UNL     1      -2.116  10.187  16.256  0.00  0.00    +0.000 A 
ENDBRANCH   1  19
BRANCH  11  21
ATOM     21  C   UNL     1      -1.562  12.453  20.757  0.00  0.00    +0.000 A 
ATOM     22  C   UNL     1      -2.833  12.891  21.157  0.00  0.00    +0.000 A 
ATOM     23  C   UNL     1      -3.238  12.759  22.483  0.00  0.00    +0.000 A 
ATOM     24  C   UNL     1      -2.353  12.194  23.382  0.00  0.00    +0.000 A 
ATOM     25  N   UNL     1      -1.116  11.775  23.050  0.00  0.00    +0.000 NA
ATOM     26  C   UNL     1      -0.755  11.915  21.756  0.00  0.00    +0.000 A 
ENDBRANCH  11  21
TORSDOF 2
ENDMDL
