MODEL 1
REMARK VINA RESULT:      -8.7      0.000      0.000
REMARK  Name = 
REMARK  2 active torsions:
REMARK  status: ('A' for Active; 'I' for Inactive)
REMARK    1  A    between atoms: C_5  and  C_7
REMARK    2  A    between atoms: N_11  and  C_12
REMARK                            x       y       z     vdW  Elec       q    Type
REMARK                         _______ _______ _______ _____ _____    ______ ____
ROOT
ATOM      1  C   UNL     1       0.821   9.594  18.612  0.00  0.00    +0.000 C 
ATOM      2  C   UNL     1       0.921   8.907  19.968  0.00  0.00    +0.000 C 
ATOM      3  C   UNL     1       1.955   7.823  19.799  0.00  0.00    +0.000 C 
ATOM      4  O   UNL     1       2.307   7.102  20.720  0.00  0.00    +0.000 OA
ATOM      5  N   UNL     1       2.325   7.772  18.458  0.00  0.00    +0.000 N 
ATOM      6  C   UNL     1       1.452   8.584  17.647  0.00  0.00    +0.000 C 
ENDROOT
BRANCH   1  11
ATOM      7  O   UNL     1      -2.710  12.670  19.821  0.00  0.00    +0.000 OA
ATOM      8  C   UNL     1      -1.521  12.899  19.606  0.00  0.00    +0.000 C 
ATOM      9  C   UNL     1      -0.417  11.926  19.988  0.00  0.00    +0.000 C 
ATOM     10  N   UNL     1       0.809  12.055  19.180  0.00  0.00    +0.000 N 
ATOM     11  C   UNL     1       1.476  10.983  18.562  0.00  0.00    +0.000 C 
ATOM     12  O   UNL     1       2.507  11.124  17.903  0.00  0.00    +0.000 OA
ATOM     13  C   UNL     1       1.224  13.423  18.983  0.00  0.00    +0.000 A 
ATOM     14  C   UNL     1       2.553  13.796  18.754  0.00  0.00    +0.000 A 
ATOM     15  C   UNL     1       2.893  15.134  18.519  0.00  0.00    +0.000 A 
ATOM     16  C   UNL     1       1.908  16.119  18.492  0.00  0.00    +0.000 A 
ATOM     17  C   UNL     1       0.580  15.772  18.717  0.00  0.00    +0.000 A 
ATOM     18  C   UNL     1       0.245  14.440  18.981  0.00  0.00    +0.000 A 
ATOM     19  N   UNL     1      -1.105  14.131  19.187  0.00  0.00    +0.000 N 
ATOM     20  H   UNL     1      -1.823  14.833  19.055  0.00  0.00    +0.000 HD
ENDBRANCH   1  11
BRANCH   5  21
ATOM     21  C   UNL     1       3.216   6.799  17.915  0.00  0.00    +0.000 A 
ATOM     22  C   UNL     1       4.468   7.223  17.444  0.00  0.00    +0.000 A 
ATOM     23  C   UNL     1       5.362   6.323  16.861  0.00  0.00    +0.000 A 
ATOM     24  C   UNL     1       5.032   4.975  16.780  0.00  0.00    +0.000 A 
ATOM     25  C   UNL     1       3.811   4.502  17.277  0.00  0.00    +0.000 A 
ATOM     26  C   UNL     1       3.526   3.127  17.218  0.00  0.00    +0.000 A 
ATOM     27  C   UNL     1       2.334   2.617  17.717  0.00  0.00    +0.000 A 
ATOM     28  C   UNL     1       1.412   3.473  18.299  0.00  0.00    +0.000 A 
ATOM     29  C   UNL     1       1.690   4.841  18.374  0.00  0.00    +0.000 A 
ATOM     30  C   UNL     1       2.879   5.409  17.852  0.00  0.00    +0.000 A 
ENDBRANCH   5  21
TORSDOF 2
ENDMDL
MODEL 2
REMARK VINA RESULT:      -8.5      5.394      8.524
REMARK  Name = 
REMARK  2 active torsions:
REMARK  status: ('A' for Active; 'I' for Inactive)
REMARK    1  A    between atoms: C_5  and  C_7
REMARK    2  A    between atoms: N_11  and  C_12
REMARK                            x       y       z     vdW  Elec       q    Type
REMARK                         _______ _______ _______ _____ _____    ______ ____
ROOT
ATOM      1  C   UNL     1      -0.595  11.680  19.615  0.00  0.00    +0.000 C 
ATOM      2  C   UNL     1       0.202  11.896  20.895  0.00  0.00    +0.000 C 
ATOM      3  C   UNL     1       1.022  13.139  20.658  0.00  0.00    +0.000 C 
ATOM      4  O   UNL     1       1.752  13.617  21.512  0.00  0.00    +0.000 OA
ATOM      5  N   UNL     1       0.845  13.537  19.335  0.00  0.00    +0.000 N 
ATOM      6  C   UNL     1       0.149  12.528  18.577  0.00  0.00    +0.000 C 
ENDROOT
BRANCH   1  11
ATOM      7  O   UNL     1      -2.501  10.503  15.328  0.00  0.00    +0.000 OA
ATOM      8  C   UNL     1      -3.065  10.905  16.344  0.00  0.00    +0.000 C 
ATOM      9  C   UNL     1      -2.603  10.527  17.742  0.00  0.00    +0.000 C 
ATOM     10  N   UNL     1      -2.974  11.499  18.785  0.00  0.00    +0.000 N 
ATOM     11  C   UNL     1      -2.087  12.027  19.739  0.00  0.00    +0.000 C 
ATOM     12  O   UNL     1      -2.433  12.830  20.607  0.00  0.00    +0.000 OA
ATOM     13  C   UNL     1      -4.340  11.956  18.683  0.00  0.00    +0.000 A 
ATOM     14  C   UNL     1      -5.080  12.412  19.778  0.00  0.00    +0.000 A 
ATOM     15  C   UNL     1      -6.385  12.892  19.613  0.00  0.00    +0.000 A 
ATOM     16  C   UNL     1      -6.966  12.940  18.347  0.00  0.00    +0.000 A 
ATOM     17  C   UNL     1      -6.248  12.492  17.242  0.00  0.00    +0.000 A 
ATOM     18  C   UNL     1      -4.956  11.985  17.412  0.00  0.00    +0.000 A 
ATOM     19  N   UNL     1      -4.263  11.558  16.273  0.00  0.00    +0.000 N 
ATOM     20  H   UNL     1      -4.649  11.701  15.349  0.00  0.00    +0.000 HD
ENDBRANCH   1  11
BRANCH   5  21
ATOM     21  C   UNL     1       1.546  14.624  18.732  0.00  0.00    +0.000 A 
ATOM     22  C   UNL     1       2.880  14.429  18.342  0.00  0.00    +0.000 A 
ATOM     23  C   UNL     1       3.629  15.469  17.790  0.00  0.00    +0.000 A 
ATOM     24  C   UNL     1       3.039  16.710  17.579  0.00  0.00    +0.000 A 
ATOM     25  C   UNL     1       1.698  16.935  17.913  0.00  0.00    +0.000 A 
ATOM     26  C   UNL     1       1.120  18.189  17.648  0.00  0.00    +0.000 A 
ATOM     27  C   UNL     1      -0.212  18.445  17.948  0.00  0.00    +0.000 A 
ATOM     28  C   UNL     1      -0.994  17.445  18.505  0.00  0.00    +0.000 A 
ATOM     29  C   UNL     1      -0.434  16.191  18.761  0.00  0.00    +0.000 A 
ATOM     30  C   UNL     1       0.928  15.894  18.500  0.00  0.00    +0.000 A 
ENDBRANCH   5  21
TORSDOF 2
ENDMDL
MODEL 3
REMARK VINA RESULT:      -8.4      3.676      8.512
REMARK  Name = 
REMARK  2 active torsions:
REMARK  status: ('A' for Active; 'I' for Inactive)
REMARK    1  A    between atoms: C_5  and  C_7
REMARK    2  A    between atoms: N_11  and  C_12
REMARK                            x       y       z     vdW  Elec       q    Type
REMARK                         _______ _______ _______ _____ _____    ______ ____
ROOT
ATOM      1  C   UNL     1       4.072   5.273  19.564  0.00  0.00    +0.000 C 
ATOM      2  C   UNL     1       2.831   4.666  20.207  0.00  0.00    +0.000 C 
ATOM      3  C   UNL     1       1.754   5.713  20.078  0.00  0.00    +0.000 C 
ATOM      4  O   UNL     1       0.610   5.529  20.463  0.00  0.00    +0.000 OA
ATOM      5  N   UNL     1       2.324   6.869  19.550  0.00  0.00    +0.000 N 
ATOM      6  C   UNL     1       3.762   6.773  19.523  0.00  0.00    +0.000 C 
ENDROOT
BRANCH   1  11
ATOM      7  O   UNL     1       8.074   7.613  18.182  0.00  0.00    +0.000 OA
ATOM      8  C   UNL     1       7.489   6.682  17.631  0.00  0.00    +0.000 C 
ATOM      9  C   UNL     1       6.800   5.571  18.408  0.00  0.00    +0.000 C 
ATOM     10  N   UNL     1       5.708   4.909  17.674  0.00  0.00    +0.000 N 
ATOM     11  C   UNL     1       4.421   4.679  18.191  0.00  0.00    +0.000 C 
ATOM     12  O   UNL     1       3.533   4.110  17.554  0.00  0.00    +0.000 OA
ATOM     13  C   UNL     1       6.044   4.595  16.306  0.00  0.00    +0.000 A 
ATOM     14  C   UNL     1       5.456   3.546  15.592  0.00  0.00    +0.000 A 
ATOM     15  C   UNL     1       5.783   3.318  14.250  0.00  0.00    +0.000 A 
ATOM     16  C   UNL     1       6.690   4.147  13.593  0.00  0.00    +0.000 A 
ATOM     17  C   UNL     1       7.287   5.199  14.281  0.00  0.00    +0.000 A 
ATOM     18  C   UNL     1       6.982   5.407  15.631  0.00  0.00    +0.000 A 
ATOM     19  N   UNL     1       7.594   6.485  16.283  0.00  0.00    +0.000 N 
ATOM     20  H   UNL     1       8.162   7.146  15.769  0.00  0.00    +0.000 HD
ENDBRANCH   1  11
BRANCH   5  21
ATOM     21  C   UNL     1       1.618   8.097  19.380  0.00  0.00    +0.000 A 
ATOM     22  C   UNL     1       1.434   8.592  18.080  0.00  0.00    +0.000 A 
ATOM     23  C   UNL     1       0.793   9.811  17.856  0.00  0.00    +0.000 A 
ATOM     24  C   UNL     1       0.286  10.533  18.930  0.00  0.00    +0.000 A 
ATOM     25  C   UNL     1       0.409  10.055  20.241  0.00  0.00    +0.000 A 
ATOM     26  C   UNL     1      -0.151  10.789  21.301  0.00  0.00    +0.000 A 
ATOM     27  C   UNL     1      -0.066  10.339  22.613  0.00  0.00    +0.000 A 
ATOM     28  C   UNL     1       0.568   9.136  22.885  0.00  0.00    +0.000 A 
ATOM     29  C   UNL     1       1.119   8.392  21.838  0.00  0.00    +0.000 A 
ATOM     30  C   UNL     1       1.082   8.827  20.489  0.00  0.00    +0.000 A 
ENDBRANCH   5  21
TORSDOF 2
ENDMDL
MODEL 4
REMARK VINA RESULT:      -8.4      4.117      8.522
REMARK  Name = 
REMARK  2 active torsions:
REMARK  status: ('A' for Active; 'I' for Inactive)
REMARK    1  A    between atoms: C_5  and  C_7
REMARK    2  A    between atoms: N_11  and  C_12
REMARK                            x       y       z     vdW  Elec       q    Type
REMARK                         _______ _______ _______ _____ _____    ______ ____
ROOT
ATOM      1  C   UNL     1       4.124   3.874  19.401  0.00  0.00    +0.000 C 
ATOM      2  C   UNL     1       2.829   3.171  19.790  0.00  0.00    +0.000 C 
ATOM      3  C   UNL     1       1.824   4.270  20.022  0.00  0.00    +0.000 C 
ATOM      4  O   UNL     1       0.660   4.044  20.313  0.00  0.00    +0.000 OA
ATOM      5  N   UNL     1       2.480   5.494  19.926  0.00  0.00    +0.000 N 
ATOM      6  C   UNL     1       3.910   5.315  19.876  0.00  0.00    +0.000 C 
ENDROOT
BRANCH   1  11
ATOM      7  O   UNL     1       8.049   6.645  18.840  0.00  0.00    +0.000 OA
ATOM      8  C   UNL     1       7.483   5.925  18.019  0.00  0.00    +0.000 C 
ATOM      9  C   UNL     1       6.831   4.605  18.398  0.00  0.00    +0.000 C 
ATOM     10  N   UNL     1       5.749   4.183  17.492  0.00  0.00    +0.000 N 
ATOM     11  C   UNL     1       4.474   3.763  17.908  0.00  0.00    +0.000 C 
ATOM     12  O   UNL     1       3.595   3.404  17.124  0.00  0.00    +0.000 OA
ATOM     13  C   UNL     1       6.080   4.336  16.095  0.00  0.00    +0.000 A 
ATOM     14  C   UNL     1       5.512   3.555  15.082  0.00  0.00    +0.000 A 
ATOM     15  C   UNL     1       5.832   3.780  13.738  0.00  0.00    +0.000 A 
ATOM     16  C   UNL     1       6.709   4.802  13.381  0.00  0.00    +0.000 A 
ATOM     17  C   UNL     1       7.285   5.593  14.371  0.00  0.00    +0.000 A 
ATOM     18  C   UNL     1       6.989   5.347  15.716  0.00  0.00    +0.000 A 
ATOM     19  N   UNL     1       7.579   6.175  16.679  0.00  0.00    +0.000 N 
ATOM     20  H   UNL     1       8.124   6.981  16.404  0.00  0.00    +0.000 HD
ENDBRANCH   1  11
BRANCH   5  21
ATOM     21  C   UNL     1       1.858   6.752  20.184  0.00  0.00    +0.000 A 
ATOM     22  C   UNL     1       1.151   6.917  21.385  0.00  0.00    +0.000 A 
ATOM     23  C   UNL     1       0.483   8.110  21.670  0.00  0.00    +0.000 A 
ATOM     24  C   UNL     1       0.551   9.171  20.775  0.00  0.00    +0.000 A 
ATOM     25  C   UNL     1       1.283   9.064  19.586  0.00  0.00    +0.000 A 
ATOM     26  C   UNL     1       1.366  10.171  18.723  0.00  0.00    +0.000 A 
ATOM     27  C   UNL     1       2.096  10.110  17.542  0.00  0.00    +0.000 A 
ATOM     28  C   UNL     1       2.770   8.944  17.213  0.00  0.00    +0.000 A 
ATOM     29  C   UNL     1       2.705   7.841  18.069  0.00  0.00    +0.000 A 
ATOM     30  C   UNL     1       1.948   7.848  19.267  0.00  0.00    +0.000 A 
ENDBRANCH   5  21
TORSDOF 2
ENDMDL
MODEL 5
REMARK VINA RESULT:      -8.0      2.607      8.568
REMARK  Name = 
REMARK  2 active torsions:
REMARK  status: ('A' for Active; 'I' for Inactive)
REMARK    1  A    between atoms: C_5  and  C_7
REMARK    2  A    between atoms: N_11  and  C_12
REMARK                            x       y       z     vdW  Elec       q    Type
REMARK                         _______ _______ _______ _____ _____    ______ ____
ROOT
ATOM      1  C   UNL     1       0.308  13.170  20.337  0.00  0.00    +0.000 C 
ATOM      2  C   UNL     1      -0.418  14.208  19.489  0.00  0.00    +0.000 C 
ATOM      3  C   UNL     1       0.562  15.338  19.303  0.00  0.00    +0.000 C 
ATOM      4  O   UNL     1       0.307  16.325  18.630  0.00  0.00    +0.000 OA
ATOM      5  N   UNL     1       1.692  15.073  20.073  0.00  0.00    +0.000 N 
ATOM      6  C   UNL     1       1.467  13.957  20.959  0.00  0.00    +0.000 C 
ENDROOT
BRANCH   1  11
ATOM      7  O   UNL     1       0.395   9.615  23.616  0.00  0.00    +0.000 OA
ATOM      8  C   UNL     1       0.592   9.558  22.403  0.00  0.00    +0.000 C 
ATOM      9  C   UNL     1      -0.157  10.431  21.409  0.00  0.00    +0.000 C 
ATOM     10  N   UNL     1       0.565  10.665  20.146  0.00  0.00    +0.000 N 
ATOM     11  C   UNL     1       0.758  11.926  19.556  0.00  0.00    +0.000 C 
ATOM     12  O   UNL     1       1.357  12.085  18.491  0.00  0.00    +0.000 OA
ATOM     13  C   UNL     1       1.163   9.470  19.599  0.00  0.00    +0.000 A 
ATOM     14  C   UNL     1       1.411   9.292  18.234  0.00  0.00    +0.000 A 
ATOM     15  C   UNL     1       2.040   8.134  17.763  0.00  0.00    +0.000 A 
ATOM     16  C   UNL     1       2.450   7.141  18.651  0.00  0.00    +0.000 A 
ATOM     17  C   UNL     1       2.215   7.296  20.014  0.00  0.00    +0.000 A 
ATOM     18  C   UNL     1       1.559   8.440  20.480  0.00  0.00    +0.000 A 
ATOM     19  N   UNL     1       1.356   8.564  21.860  0.00  0.00    +0.000 N 
ATOM     20  H   UNL     1       1.755   7.893  22.504  0.00  0.00    +0.000 HD
ENDBRANCH   1  11
BRANCH   5  21
ATOM     21  C   UNL     1       2.788  15.976  20.216  0.00  0.00    +0.000 A 
ATOM     22  C   UNL     1       2.667  17.039  21.124  0.00  0.00    +0.000 A 
ATOM     23  C   UNL     1       3.687  17.980  21.271  0.00  0.00    +0.000 A 
ATOM     24  C   UNL     1       4.863  17.846  20.542  0.00  0.00    +0.000 A 
ATOM     25  C   UNL     1       5.042  16.775  19.657  0.00  0.00    +0.000 A 
ATOM     26  C   UNL     1       6.260  16.645  18.966  0.00  0.00    +0.000 A 
ATOM     27  C   UNL     1       6.482  15.587  18.093  0.00  0.00    +0.000 A 
ATOM     28  C   UNL     1       5.495  14.631  17.908  0.00  0.00    +0.000 A 
ATOM     29  C   UNL     1       4.285  14.744  18.599  0.00  0.00    +0.000 A 
ATOM     30  C   UNL     1       4.003  15.821  19.476  0.00  0.00    +0.000 A 
ENDBRANCH   5  21
TORSDOF 2
ENDMDL
MODEL 6
REMARK VINA RESULT:      -7.9      3.027      8.457
REMARK  Name = 
REMARK  2 active torsions:
REMARK  status: ('A' for Active; 'I' for Inactive)
REMARK    1  A    between atoms: C_5  and  C_7
REMARK    2  A    between atoms: N_11  and  C_12
REMARK                            x       y       z     vdW  Elec       q    Type
REMARK                         _______ _______ _______ _____ _____    ______ ____
ROOT
ATOM      1  C   UNL     1       1.804   8.597  20.699  0.00  0.00    +0.000 C 
ATOM      2  C   UNL     1       1.643   9.176  22.099  0.00  0.00    +0.000 C 
ATOM      3  C   UNL     1       0.411  10.042  22.042  0.00  0.00    +0.000 C 
ATOM      4  O   UNL     1      -0.026  10.628  23.020  0.00  0.00    +0.000 OA
ATOM      5  N   UNL     1      -0.031  10.093  20.723  0.00  0.00    +0.000 N 
ATOM      6  C   UNL     1       0.940   9.515  19.827  0.00  0.00    +0.000 C 
ENDROOT
BRANCH   1  11
ATOM      7  O   UNL     1       4.585   6.884  17.131  0.00  0.00    +0.000 OA
ATOM      8  C   UNL     1       3.808   6.280  17.869  0.00  0.00    +0.000 C 
ATOM      9  C   UNL     1       3.600   6.658  19.326  0.00  0.00    +0.000 C 
ATOM     10  N   UNL     1       2.291   6.260  19.873  0.00  0.00    +0.000 N 
ATOM     11  C   UNL     1       1.430   7.111  20.587  0.00  0.00    +0.000 C 
ATOM     12  O   UNL     1       0.345   6.742  21.042  0.00  0.00    +0.000 OA
ATOM     13  C   UNL     1       1.907   4.915  19.518  0.00  0.00    +0.000 A 
ATOM     14  C   UNL     1       1.048   4.131  20.296  0.00  0.00    +0.000 A 
ATOM     15  C   UNL     1       0.669   2.850  19.878  0.00  0.00    +0.000 A 
ATOM     16  C   UNL     1       1.127   2.337  18.666  0.00  0.00    +0.000 A 
ATOM     17  C   UNL     1       1.981   3.098  17.874  0.00  0.00    +0.000 A 
ATOM     18  C   UNL     1       2.384   4.366  18.307  0.00  0.00    +0.000 A 
ATOM     19  N   UNL     1       3.233   5.105  17.474  0.00  0.00    +0.000 N 
ATOM     20  H   UNL     1       3.469   4.771  16.549  0.00  0.00    +0.000 HD
ENDBRANCH   1  11
BRANCH   5  21
ATOM     21  C   UNL     1      -1.121  10.900  20.279  0.00  0.00    +0.000 A 
ATOM     22  C   UNL     1      -1.615  11.892  21.140  0.00  0.00    +0.000 A 
ATOM     23  C   UNL     1      -2.709  12.680  20.779  0.00  0.00    +0.000 A 
ATOM     24  C   UNL     1      -3.298  12.516  19.530  0.00  0.00    +0.000 A 
ATOM     25  C   UNL     1      -2.808  11.568  18.623  0.00  0.00    +0.000 A 
ATOM     26  C   UNL     1      -3.400  11.456  17.353  0.00  0.00    +0.000 A 
ATOM     27  C   UNL     1      -2.931  10.540  16.419  0.00  0.00    +0.000 A 
ATOM     28  C   UNL     1      -1.851   9.730  16.735  0.00  0.00    +0.000 A 
ATOM     29  C   UNL     1      -1.248   9.840  17.991  0.00  0.00    +0.000 A 
ATOM     30  C   UNL     1      -1.711  10.739  18.985  0.00  0.00    +0.000 A 
ENDBRANCH   5  21
TORSDOF 2
ENDMDL
MODEL 7
REMARK VINA RESULT:      -7.9      3.036      8.337
REMARK  Name = 
REMARK  2 active torsions:
REMARK  status: ('A' for Active; 'I' for Inactive)
REMARK    1  A    between atoms: C_5  and  C_7
REMARK    2  A    between atoms: N_11  and  C_12
REMARK                            x       y       z     vdW  Elec       q    Type
REMARK                         _______ _______ _______ _____ _____    ______ ____
ROOT
ATOM      1  C   UNL     1      -0.754  12.296  22.099  0.00  0.00    +0.000 C 
ATOM      2  C   UNL     1      -1.647  12.113  23.319  0.00  0.00    +0.000 C 
ATOM      3  C   UNL     1      -3.060  12.260  22.814  0.00  0.00    +0.000 C 
ATOM      4  O   UNL     1      -4.034  12.128  23.539  0.00  0.00    +0.000 OA
ATOM      5  N   UNL     1      -3.012  12.633  21.473  0.00  0.00    +0.000 N 
ATOM      6  C   UNL     1      -1.669  12.982  21.079  0.00  0.00    +0.000 C 
ENDROOT
BRANCH   1  11
ATOM      7  O   UNL     1       1.593  13.572  18.066  0.00  0.00    +0.000 OA
ATOM      8  C   UNL     1       1.561  12.481  18.634  0.00  0.00    +0.000 C 
ATOM      9  C   UNL     1       1.494  12.345  20.146  0.00  0.00    +0.000 C 
ATOM     10  N   UNL     1       0.892  11.085  20.614  0.00  0.00    +0.000 N 
ATOM     11  C   UNL     1      -0.123  10.994  21.582  0.00  0.00    +0.000 C 
ATOM     12  O   UNL     1      -0.597   9.921  21.961  0.00  0.00    +0.000 OA
ATOM     13  C   UNL     1       1.373   9.923  19.906  0.00  0.00    +0.000 A 
ATOM     14  C   UNL     1       1.400   8.641  20.464  0.00  0.00    +0.000 A 
ATOM     15  C   UNL     1       1.830   7.539  19.713  0.00  0.00    +0.000 A 
ATOM     16  C   UNL     1       2.221   7.699  18.385  0.00  0.00    +0.000 A 
ATOM     17  C   UNL     1       2.201   8.964  17.808  0.00  0.00    +0.000 A 
ATOM     18  C   UNL     1       1.801  10.068  18.568  0.00  0.00    +0.000 A 
ATOM     19  N   UNL     1       1.781  11.322  17.944  0.00  0.00    +0.000 N 
ATOM     20  H   UNL     1       1.959  11.409  16.952  0.00  0.00    +0.000 HD
ENDBRANCH   1  11
BRANCH   5  21
ATOM     21  C   UNL     1      -4.164  12.954  20.695  0.00  0.00    +0.000 A 
ATOM     22  C   UNL     1      -5.099  13.858  21.223  0.00  0.00    +0.000 A 
ATOM     23  C   UNL     1      -6.268  14.173  20.527  0.00  0.00    +0.000 A 
ATOM     24  C   UNL     1      -6.496  13.622  19.272  0.00  0.00    +0.000 A 
ATOM     25  C   UNL     1      -5.568  12.749  18.689  0.00  0.00    +0.000 A 
ATOM     26  C   UNL     1      -5.809  12.242  17.401  0.00  0.00    +0.000 A 
ATOM     27  C   UNL     1      -4.903  11.388  16.782  0.00  0.00    +0.000 A 
ATOM     28  C   UNL     1      -3.732  11.040  17.437  0.00  0.00    +0.000 A 
ATOM     29  C   UNL     1      -3.476  11.548  18.714  0.00  0.00    +0.000 A 
ATOM     30  C   UNL     1      -4.384  12.397  19.395  0.00  0.00    +0.000 A 
ENDBRANCH   5  21
TORSDOF 2
ENDMDL
MODEL 8
REMARK VINA RESULT:      -7.8      5.621      8.425
REMARK  Name = 
REMARK  2 active torsions:
REMARK  status: ('A' for Active; 'I' for Inactive)
REMARK    1  A    between atoms: C_5  and  C_7
REMARK    2  A    between atoms: N_11  and  C_12
REMARK                            x       y       z     vdW  Elec       q    Type
REMARK                         _______ _______ _______ _____ _____    ______ ____
ROOT
ATOM      1  C   UNL     1      -1.130  11.840  19.522  0.00  0.00    +0.000 C 
ATOM      2  C   UNL     1      -0.293  11.922  20.792  0.00  0.00    +0.000 C 
ATOM      3  C   UNL     1       0.418  13.250  20.724  0.00  0.00    +0.000 C 
ATOM      4  O   UNL     1       1.149  13.650  21.617  0.00  0.00    +0.000 OA
ATOM      5  N   UNL     1       0.152  13.829  19.486  0.00  0.00    +0.000 N 
ATOM      6  C   UNL     1      -0.501  12.893  18.604  0.00  0.00    +0.000 C 
ENDROOT
BRANCH   1  11
ATOM      7  O   UNL     1      -3.160  10.941  15.224  0.00  0.00    +0.000 OA
ATOM      8  C   UNL     1      -3.700  11.187  16.302  0.00  0.00    +0.000 C 
ATOM      9  C   UNL     1      -3.134  10.711  17.630  0.00  0.00    +0.000 C 
ATOM     10  N   UNL     1      -3.527  11.537  18.785  0.00  0.00    +0.000 N 
ATOM     11  C   UNL     1      -2.637  12.041  19.748  0.00  0.00    +0.000 C 
ATOM     12  O   UNL     1      -3.000  12.719  20.711  0.00  0.00    +0.000 OA
ATOM     13  C   UNL     1      -4.929  11.881  18.793  0.00  0.00    +0.000 A 
ATOM     14  C   UNL     1      -5.645  12.158  19.962  0.00  0.00    +0.000 A 
ATOM     15  C   UNL     1      -6.992  12.536  19.908  0.00  0.00    +0.000 A 
ATOM     16  C   UNL     1      -7.641  12.662  18.681  0.00  0.00    +0.000 A 
ATOM     17  C   UNL     1      -6.950  12.392  17.504  0.00  0.00    +0.000 A 
ATOM     18  C   UNL     1      -5.613  11.985  17.562  0.00  0.00    +0.000 A 
ATOM     19  N   UNL     1      -4.950  11.738  16.354  0.00  0.00    +0.000 N 
ATOM     20  H   UNL     1      -5.395  11.939  15.468  0.00  0.00    +0.000 HD
ENDBRANCH   1  11
BRANCH   5  21
ATOM     21  C   UNL     1       0.741  15.048  19.036  0.00  0.00    +0.000 A 
ATOM     22  C   UNL     1      -0.047  16.210  19.025  0.00  0.00    +0.000 A 
ATOM     23  C   UNL     1       0.461  17.421  18.551  0.00  0.00    +0.000 A 
ATOM     24  C   UNL     1       1.781  17.496  18.121  0.00  0.00    +0.000 A 
ATOM     25  C   UNL     1       2.615  16.371  18.157  0.00  0.00    +0.000 A 
ATOM     26  C   UNL     1       3.957  16.491  17.755  0.00  0.00    +0.000 A 
ATOM     27  C   UNL     1       4.820  15.403  17.792  0.00  0.00    +0.000 A 
ATOM     28  C   UNL     1       4.358  14.178  18.249  0.00  0.00    +0.000 A 
ATOM     29  C   UNL     1       3.029  14.049  18.662  0.00  0.00    +0.000 A 
ATOM     30  C   UNL     1       2.106  15.124  18.613  0.00  0.00    +0.000 A 
ENDBRANCH   5  21
TORSDOF 2
ENDMDL
MODEL 9
REMARK VINA RESULT:      -7.7      4.281      7.294
REMARK  Name = 
REMARK  2 active torsions:
REMARK  status: ('A' for Active; 'I' for Inactive)
REMARK    1  A    between atoms: C_5  and  C_7
REMARK    2  A    between atoms: N_11  and  C_12
REMARK                            x       y       z     vdW  Elec       q    Type
REMARK                         _______ _______ _______ _____ _____    ______ ____
ROOT
ATOM      1  C   UNL     1      -2.033  11.837  22.601  0.00  0.00    +0.000 C 
ATOM      2  C   UNL     1      -1.167  10.752  23.229  0.00  0.00    +0.000 C 
ATOM      3  C   UNL     1       0.012  10.587  22.304  0.00  0.00    +0.000 C 
ATOM      4  O   UNL     1       0.928   9.814  22.538  0.00  0.00    +0.000 OA
ATOM      5  N   UNL     1      -0.198  11.378  21.177  0.00  0.00    +0.000 N 
ATOM      6  C   UNL     1      -1.544  11.896  21.150  0.00  0.00    +0.000 C 
ENDROOT
BRANCH   1  11
ATOM      7  O   UNL     1      -6.650  13.016  23.429  0.00  0.00    +0.000 OA
ATOM      8  C   UNL     1      -5.625  13.595  23.786  0.00  0.00    +0.000 C 
ATOM      9  C   UNL     1      -4.354  12.852  24.166  0.00  0.00    +0.000 C 
ATOM     10  N   UNL     1      -3.120  13.639  23.997  0.00  0.00    +0.000 N 
ATOM     11  C   UNL     1      -1.969  13.189  23.328  0.00  0.00    +0.000 C 
ATOM     12  O   UNL     1      -0.948  13.869  23.215  0.00  0.00    +0.000 OA
ATOM     13  C   UNL     1      -3.228  14.988  24.501  0.00  0.00    +0.000 A 
ATOM     14  C   UNL     1      -2.130  15.728  24.952  0.00  0.00    +0.000 A 
ATOM     15  C   UNL     1      -2.284  17.051  25.383  0.00  0.00    +0.000 A 
ATOM     16  C   UNL     1      -3.536  17.663  25.353  0.00  0.00    +0.000 A 
ATOM     17  C   UNL     1      -4.643  16.947  24.908  0.00  0.00    +0.000 A 
ATOM     18  C   UNL     1      -4.493  15.615  24.506  0.00  0.00    +0.000 A 
ATOM     19  N   UNL     1      -5.629  14.935  24.051  0.00  0.00    +0.000 N 
ATOM     20  H   UNL     1      -6.508  15.421  23.928  0.00  0.00    +0.000 HD
ENDBRANCH   1  11
BRANCH   5  21
ATOM     21  C   UNL     1       0.670  11.397  20.045  0.00  0.00    +0.000 A 
ATOM     22  C   UNL     1       0.756  10.246  19.246  0.00  0.00    +0.000 A 
ATOM     23  C   UNL     1       1.624  10.191  18.154  0.00  0.00    +0.000 A 
ATOM     24  C   UNL     1       2.386  11.304  17.819  0.00  0.00    +0.000 A 
ATOM     25  C   UNL     1       2.298  12.487  18.563  0.00  0.00    +0.000 A 
ATOM     26  C   UNL     1       3.052  13.608  18.172  0.00  0.00    +0.000 A 
ATOM     27  C   UNL     1       2.978  14.805  18.874  0.00  0.00    +0.000 A 
ATOM     28  C   UNL     1       2.136  14.906  19.971  0.00  0.00    +0.000 A 
ATOM     29  C   UNL     1       1.373  13.801  20.361  0.00  0.00    +0.000 A 
ATOM     30  C   UNL     1       1.439  12.553  19.694  0.00  0.00    +0.000 A 
ENDBRANCH   5  21
TORSDOF 2
ENDMDL
