MODEL 1
REMARK VINA RESULT:      -8.4      0.000      0.000
REMARK  Name = 
REMARK  5 active torsions:
REMARK  status: ('A' for Active; 'I' for Inactive)
REMARK    1  A    between atoms: C_2  and  C_3
REMARK    2  A    between atoms: C_3  and  S_4
REMARK    3  A    between atoms: S_4  and  C_5
REMARK    4  A    between atoms: C_20  and  C_21
REMARK    5  A    between atoms: C_21  and  C_22
REMARK                            x       y       z     vdW  Elec       q    Type
REMARK                         _______ _______ _______ _____ _____    ______ ____
ROOT
ATOM      1  O   UNL     1       2.148   9.562  17.230  0.00  0.00    +0.000 OA
ATOM      2  C   UNL     1       2.127   8.901  18.270  0.00  0.00    +0.000 C 
ATOM      3  N   UNL     1       1.354   9.285  19.386  0.00  0.00    +0.000 N 
ATOM      4  C   UNL     1       1.418   8.626  20.696  0.00  0.00    +0.000 C 
ATOM      5  C   UNL     1       0.014   8.389  21.235  0.00  0.00    +0.000 C 
ATOM      6  C   UNL     1      -0.760   9.707  21.395  0.00  0.00    +0.000 C 
ATOM      7  C   UNL     1      -0.772  10.430  20.031  0.00  0.00    +0.000 C 
ATOM      8  C   UNL     1       0.612  10.552  19.372  0.00  0.00    +0.000 C 
ENDROOT
BRANCH   2   9
ATOM      9  C   UNL     1       2.930   7.615  18.456  0.00  0.00    +0.000 C 
BRANCH   9  10
ATOM     10  S   UNL     1       4.157   7.188  17.167  0.00  0.00    +0.000 S 
BRANCH  10  11
ATOM     11  C   UNL     1       4.927   5.880  18.017  0.00  0.00    +0.000 A 
ATOM     12  N   UNL     1       6.218   5.859  18.326  0.00  0.00    +0.000 NA
ATOM     13  N   UNL     1       6.510   4.672  18.980  0.00  0.00    +0.000 NA
ATOM     14  C   UNL     1       5.382   4.021  19.065  0.00  0.00    +0.000 A 
ATOM     15  N   UNL     1       4.920   2.849  19.546  0.00  0.00    +0.000 N 
ATOM     16  C   UNL     1       3.574   2.767  19.152  0.00  0.00    +0.000 A 
ATOM     17  C   UNL     1       2.659   1.773  19.406  0.00  0.00    +0.000 A 
ATOM     18  C   UNL     1       1.348   1.985  18.968  0.00  0.00    +0.000 A 
ATOM     19  C   UNL     1       0.980   3.184  18.310  0.00  0.00    +0.000 A 
ATOM     20  C   UNL     1       1.909   4.208  18.065  0.00  0.00    +0.000 A 
ATOM     21  C   UNL     1       3.188   3.972  18.504  0.00  0.00    +0.000 A 
ATOM     22  N   UNL     1       4.362   4.722  18.454  0.00  0.00    +0.000 N 
ATOM     23  H   UNL     1       5.481   2.048  19.787  0.00  0.00    +0.000 HD
ENDBRANCH  10  11
ENDBRANCH   9  10
ENDBRANCH   2   9
BRANCH   6  24
ATOM     24  C   UNL     1      -0.215  10.611  22.530  0.00  0.00    +0.000 C 
BRANCH  24  25
ATOM     25  C   UNL     1      -1.067  11.835  22.801  0.00  0.00    +0.000 A 
ATOM     26  C   UNL     1      -2.354  11.699  23.343  0.00  0.00    +0.000 A 
ATOM     27  C   UNL     1      -3.174  12.817  23.519  0.00  0.00    +0.000 A 
ATOM     28  C   UNL     1      -2.712  14.083  23.167  0.00  0.00    +0.000 A 
ATOM     29  C   UNL     1      -1.422  14.237  22.665  0.00  0.00    +0.000 A 
ATOM     30  C   UNL     1      -0.601  13.119  22.488  0.00  0.00    +0.000 A 
ENDBRANCH  24  25
ENDBRANCH   6  24
TORSDOF 5
ENDMDL
MODEL 2
REMARK VINA RESULT:      -8.1      3.146      9.441
REMARK  Name = 
REMARK  5 active torsions:
REMARK  status: ('A' for Active; 'I' for Inactive)
REMARK    1  A    between atoms: C_2  and  C_3
REMARK    2  A    between atoms: C_3  and  S_4
REMARK    3  A    between atoms: S_4  and  C_5
REMARK    4  A    between atoms: C_20  and  C_21
REMARK    5  A    between atoms: C_21  and  C_22
REMARK                            x       y       z     vdW  Elec       q    Type
REMARK                         _______ _______ _______ _____ _____    ______ ____
ROOT
ATOM      1  O   UNL     1       0.330   7.433  21.715  0.00  0.00    +0.000 OA
ATOM      2  C   UNL     1       1.182   7.644  20.850  0.00  0.00    +0.000 C 
ATOM      3  N   UNL     1       1.819   6.594  20.155  0.00  0.00    +0.000 N 
ATOM      4  C   UNL     1       2.948   6.782  19.236  0.00  0.00    +0.000 C 
ATOM      5  C   UNL     1       2.733   5.972  17.966  0.00  0.00    +0.000 C 
ATOM      6  C   UNL     1       2.602   4.470  18.267  0.00  0.00    +0.000 C 
ATOM      7  C   UNL     1       1.455   4.280  19.283  0.00  0.00    +0.000 C 
ATOM      8  C   UNL     1       1.547   5.196  20.514  0.00  0.00    +0.000 C 
ENDROOT
BRANCH   2   9
ATOM      9  C   UNL     1       1.632   9.046  20.448  0.00  0.00    +0.000 C 
BRANCH   9  10
ATOM     10  S   UNL     1       1.063   9.690  18.833  0.00  0.00    +0.000 S 
BRANCH  10  11
ATOM     11  C   UNL     1      -0.163  10.763  19.441  0.00  0.00    +0.000 A 
ATOM     12  N   UNL     1      -0.072  11.410  20.597  0.00  0.00    +0.000 NA
ATOM     13  N   UNL     1      -1.220  12.162  20.790  0.00  0.00    +0.000 NA
ATOM     14  C   UNL     1      -1.962  11.964  19.735  0.00  0.00    +0.000 A 
ATOM     15  N   UNL     1      -3.160  12.347  19.250  0.00  0.00    +0.000 N 
ATOM     16  C   UNL     1      -3.360  11.609  18.072  0.00  0.00    +0.000 A 
ATOM     17  C   UNL     1      -4.423  11.644  17.200  0.00  0.00    +0.000 A 
ATOM     18  C   UNL     1      -4.328  10.862  16.045  0.00  0.00    +0.000 A 
ATOM     19  C   UNL     1      -3.175  10.084  15.780  0.00  0.00    +0.000 A 
ATOM     20  C   UNL     1      -2.081  10.061  16.659  0.00  0.00    +0.000 A 
ATOM     21  C   UNL     1      -2.202  10.836  17.786  0.00  0.00    +0.000 A 
ATOM     22  N   UNL     1      -1.357  11.076  18.868  0.00  0.00    +0.000 N 
ATOM     23  H   UNL     1      -3.908  12.760  19.783  0.00  0.00    +0.000 HD
ENDBRANCH  10  11
ENDBRANCH   9  10
ENDBRANCH   2   9
BRANCH   6  24
ATOM     24  C   UNL     1       3.923   3.818  18.749  0.00  0.00    +0.000 C 
BRANCH  24  25
ATOM     25  C   UNL     1       5.095   4.049  17.816  0.00  0.00    +0.000 A 
ATOM     26  C   UNL     1       6.283   4.621  18.295  0.00  0.00    +0.000 A 
ATOM     27  C   UNL     1       7.336   4.910  17.424  0.00  0.00    +0.000 A 
ATOM     28  C   UNL     1       7.219   4.618  16.067  0.00  0.00    +0.000 A 
ATOM     29  C   UNL     1       6.060   4.014  15.585  0.00  0.00    +0.000 A 
ATOM     30  C   UNL     1       5.006   3.725  16.456  0.00  0.00    +0.000 A 
ENDBRANCH  24  25
ENDBRANCH   6  24
TORSDOF 5
ENDMDL
MODEL 3
REMARK VINA RESULT:      -8.0      2.147      3.072
REMARK  Name = 
REMARK  5 active torsions:
REMARK  status: ('A' for Active; 'I' for Inactive)
REMARK    1  A    between atoms: C_2  and  C_3
REMARK    2  A    between atoms: C_3  and  S_4
REMARK    3  A    between atoms: S_4  and  C_5
REMARK    4  A    between atoms: C_20  and  C_21
REMARK    5  A    between atoms: C_21  and  C_22
REMARK                            x       y       z     vdW  Elec       q    Type
REMARK                         _______ _______ _______ _____ _____    ______ ____
ROOT
ATOM      1  O   UNL     1       2.952   7.254  17.868  0.00  0.00    +0.000 OA
ATOM      2  C   UNL     1       2.541   7.130  19.022  0.00  0.00    +0.000 C 
ATOM      3  N   UNL     1       1.751   8.120  19.646  0.00  0.00    +0.000 N 
ATOM      4  C   UNL     1       1.372   8.096  21.064  0.00  0.00    +0.000 C 
ATOM      5  C   UNL     1      -0.104   8.433  21.220  0.00  0.00    +0.000 C 
ATOM      6  C   UNL     1      -0.429   9.825  20.657  0.00  0.00    +0.000 C 
ATOM      7  C   UNL     1       0.027   9.870  19.183  0.00  0.00    +0.000 C 
ATOM      8  C   UNL     1       1.470   9.386  18.957  0.00  0.00    +0.000 C 
ENDROOT
BRANCH   2   9
ATOM      9  C   UNL     1       2.843   5.910  19.888  0.00  0.00    +0.000 C 
BRANCH   9  10
ATOM     10  S   UNL     1       3.290   4.354  19.034  0.00  0.00    +0.000 S 
BRANCH  10  11
ATOM     11  C   UNL     1       4.995   4.663  18.886  0.00  0.00    +0.000 A 
ATOM     12  N   UNL     1       5.783   4.964  19.912  0.00  0.00    +0.000 NA
ATOM     13  N   UNL     1       7.074   5.167  19.451  0.00  0.00    +0.000 NA
ATOM     14  C   UNL     1       7.032   4.962  18.163  0.00  0.00    +0.000 A 
ATOM     15  N   UNL     1       7.867   4.982  17.104  0.00  0.00    +0.000 N 
ATOM     16  C   UNL     1       7.065   4.774  15.969  0.00  0.00    +0.000 A 
ATOM     17  C   UNL     1       7.442   4.695  14.649  0.00  0.00    +0.000 A 
ATOM     18  C   UNL     1       6.444   4.390  13.718  0.00  0.00    +0.000 A 
ATOM     19  C   UNL     1       5.108   4.153  14.126  0.00  0.00    +0.000 A 
ATOM     20  C   UNL     1       4.726   4.216  15.476  0.00  0.00    +0.000 A 
ATOM     21  C   UNL     1       5.725   4.519  16.367  0.00  0.00    +0.000 A 
ATOM     22  N   UNL     1       5.747   4.667  17.753  0.00  0.00    +0.000 N 
ATOM     23  H   UNL     1       8.773   5.422  17.075  0.00  0.00    +0.000 HD
ENDBRANCH  10  11
ENDBRANCH   9  10
ENDBRANCH   2   9
BRANCH   6  24
ATOM     24  C   UNL     1       0.172  10.986  21.490  0.00  0.00    +0.000 C 
BRANCH  24  25
ATOM     25  C   UNL     1      -0.856  11.987  21.977  0.00  0.00    +0.000 A 
ATOM     26  C   UNL     1      -1.705  11.671  23.048  0.00  0.00    +0.000 A 
ATOM     27  C   UNL     1      -2.708  12.559  23.448  0.00  0.00    +0.000 A 
ATOM     28  C   UNL     1      -2.864  13.776  22.790  0.00  0.00    +0.000 A 
ATOM     29  C   UNL     1      -2.003  14.119  21.750  0.00  0.00    +0.000 A 
ATOM     30  C   UNL     1      -1.000  13.233  21.350  0.00  0.00    +0.000 A 
ENDBRANCH  24  25
ENDBRANCH   6  24
TORSDOF 5
ENDMDL
MODEL 4
REMARK VINA RESULT:      -7.9      1.763      3.073
REMARK  Name = 
REMARK  5 active torsions:
REMARK  status: ('A' for Active; 'I' for Inactive)
REMARK    1  A    between atoms: C_2  and  C_3
REMARK    2  A    between atoms: C_3  and  S_4
REMARK    3  A    between atoms: S_4  and  C_5
REMARK    4  A    between atoms: C_20  and  C_21
REMARK    5  A    between atoms: C_21  and  C_22
REMARK                            x       y       z     vdW  Elec       q    Type
REMARK                         _______ _______ _______ _____ _____    ______ ____
ROOT
ATOM      1  O   UNL     1       2.390   7.757  18.173  0.00  0.00    +0.000 OA
ATOM      2  C   UNL     1       2.197   7.682  19.388  0.00  0.00    +0.000 C 
ATOM      3  N   UNL     1       1.415   8.631  20.081  0.00  0.00    +0.000 N 
ATOM      4  C   UNL     1       1.287   8.679  21.543  0.00  0.00    +0.000 C 
ATOM      5  C   UNL     1      -0.171   8.873  21.936  0.00  0.00    +0.000 C 
ATOM      6  C   UNL     1      -0.745  10.176  21.358  0.00  0.00    +0.000 C 
ATOM      7  C   UNL     1      -0.552  10.152  19.826  0.00  0.00    +0.000 C 
ATOM      8  C   UNL     1       0.877   9.803  19.379  0.00  0.00    +0.000 C 
ENDROOT
BRANCH   2   9
ATOM      9  C   UNL     1       2.780   6.571  20.258  0.00  0.00    +0.000 C 
BRANCH   9  10
ATOM     10  S   UNL     1       1.879   4.980  20.317  0.00  0.00    +0.000 S 
BRANCH  10  11
ATOM     11  C   UNL     1       2.340   4.403  18.743  0.00  0.00    +0.000 A 
ATOM     12  N   UNL     1       1.497   3.839  17.887  0.00  0.00    +0.000 NA
ATOM     13  N   UNL     1       2.185   3.477  16.739  0.00  0.00    +0.000 NA
ATOM     14  C   UNL     1       3.420   3.852  16.928  0.00  0.00    +0.000 A 
ATOM     15  N   UNL     1       4.600   3.827  16.276  0.00  0.00    +0.000 N 
ATOM     16  C   UNL     1       5.558   4.316  17.179  0.00  0.00    +0.000 A 
ATOM     17  C   UNL     1       6.908   4.500  16.991  0.00  0.00    +0.000 A 
ATOM     18  C   UNL     1       7.623   5.092  18.037  0.00  0.00    +0.000 A 
ATOM     19  C   UNL     1       6.976   5.501  19.229  0.00  0.00    +0.000 A 
ATOM     20  C   UNL     1       5.595   5.330  19.415  0.00  0.00    +0.000 A 
ATOM     21  C   UNL     1       4.919   4.745  18.374  0.00  0.00    +0.000 A 
ATOM     22  N   UNL     1       3.578   4.416  18.179  0.00  0.00    +0.000 N 
ATOM     23  H   UNL     1       4.825   3.244  15.485  0.00  0.00    +0.000 HD
ENDBRANCH  10  11
ENDBRANCH   9  10
ENDBRANCH   2   9
BRANCH   6  24
ATOM     24  C   UNL     1      -0.149  11.455  22.002  0.00  0.00    +0.000 C 
BRANCH  24  25
ATOM     25  C   UNL     1      -1.185  12.360  22.637  0.00  0.00    +0.000 A 
ATOM     26  C   UNL     1      -2.358  11.821  23.188  0.00  0.00    +0.000 A 
ATOM     27  C   UNL     1      -3.352  12.658  23.702  0.00  0.00    +0.000 A 
ATOM     28  C   UNL     1      -3.180  14.040  23.682  0.00  0.00    +0.000 A 
ATOM     29  C   UNL     1      -2.003  14.586  23.174  0.00  0.00    +0.000 A 
ATOM     30  C   UNL     1      -1.009  13.750  22.660  0.00  0.00    +0.000 A 
ENDBRANCH  24  25
ENDBRANCH   6  24
TORSDOF 5
ENDMDL
MODEL 5
REMARK VINA RESULT:      -7.9      3.321      9.489
REMARK  Name = 
REMARK  5 active torsions:
REMARK  status: ('A' for Active; 'I' for Inactive)
REMARK    1  A    between atoms: C_2  and  C_3
REMARK    2  A    between atoms: C_3  and  S_4
REMARK    3  A    between atoms: S_4  and  C_5
REMARK    4  A    between atoms: C_20  and  C_21
REMARK    5  A    between atoms: C_21  and  C_22
REMARK                            x       y       z     vdW  Elec       q    Type
REMARK                         _______ _______ _______ _____ _____    ______ ____
ROOT
ATOM      1  O   UNL     1       0.355   9.388  20.952  0.00  0.00    +0.000 OA
ATOM      2  C   UNL     1       0.924   9.178  19.880  0.00  0.00    +0.000 C 
ATOM      3  N   UNL     1       1.729   8.038  19.670  0.00  0.00    +0.000 N 
ATOM      4  C   UNL     1       2.553   7.823  18.474  0.00  0.00    +0.000 C 
ATOM      5  C   UNL     1       2.385   6.397  17.969  0.00  0.00    +0.000 C 
ATOM      6  C   UNL     1       2.799   5.368  19.033  0.00  0.00    +0.000 C 
ATOM      7  C   UNL     1       1.977   5.635  20.312  0.00  0.00    +0.000 C 
ATOM      8  C   UNL     1       1.990   7.103  20.771  0.00  0.00    +0.000 C 
ENDROOT
BRANCH   2   9
ATOM      9  C   UNL     1       0.820  10.121  18.683  0.00  0.00    +0.000 C 
BRANCH   9  10
ATOM     10  S   UNL     1       1.123  11.901  18.977  0.00  0.00    +0.000 S 
BRANCH  10  11
ATOM     11  C   UNL     1      -0.420  12.275  19.689  0.00  0.00    +0.000 A 
ATOM     12  N   UNL     1      -0.569  12.753  20.918  0.00  0.00    +0.000 NA
ATOM     13  N   UNL     1      -1.920  12.922  21.180  0.00  0.00    +0.000 NA
ATOM     14  C   UNL     1      -2.545  12.562  20.093  0.00  0.00    +0.000 A 
ATOM     15  N   UNL     1      -3.809  12.462  19.634  0.00  0.00    +0.000 N 
ATOM     16  C   UNL     1      -3.720  11.858  18.369  0.00  0.00    +0.000 A 
ATOM     17  C   UNL     1      -4.728  11.550  17.486  0.00  0.00    +0.000 A 
ATOM     18  C   UNL     1      -4.352  11.029  16.244  0.00  0.00    +0.000 A 
ATOM     19  C   UNL     1      -2.988  10.848  15.908  0.00  0.00    +0.000 A 
ATOM     20  C   UNL     1      -1.957  11.179  16.801  0.00  0.00    +0.000 A 
ATOM     21  C   UNL     1      -2.355  11.686  18.013  0.00  0.00    +0.000 A 
ATOM     22  N   UNL     1      -1.653  12.124  19.134  0.00  0.00    +0.000 N 
ATOM     23  H   UNL     1      -4.643  12.452  20.199  0.00  0.00    +0.000 HD
ENDBRANCH  10  11
ENDBRANCH   9  10
ENDBRANCH   2   9
BRANCH   6  24
ATOM     24  C   UNL     1       4.324   5.346  19.313  0.00  0.00    +0.000 C 
BRANCH  24  25
ATOM     25  C   UNL     1       5.170   5.127  18.075  0.00  0.00    +0.000 A 
ATOM     26  C   UNL     1       6.229   5.997  17.774  0.00  0.00    +0.000 A 
ATOM     27  C   UNL     1       6.960   5.846  16.593  0.00  0.00    +0.000 A 
ATOM     28  C   UNL     1       6.650   4.817  15.707  0.00  0.00    +0.000 A 
ATOM     29  C   UNL     1       5.628   3.922  16.014  0.00  0.00    +0.000 A 
ATOM     30  C   UNL     1       4.896   4.072  17.194  0.00  0.00    +0.000 A 
ENDBRANCH  24  25
ENDBRANCH   6  24
TORSDOF 5
ENDMDL
MODEL 6
REMARK VINA RESULT:      -7.8      3.204      9.829
REMARK  Name = 
REMARK  5 active torsions:
REMARK  status: ('A' for Active; 'I' for Inactive)
REMARK    1  A    between atoms: C_2  and  C_3
REMARK    2  A    between atoms: C_3  and  S_4
REMARK    3  A    between atoms: S_4  and  C_5
REMARK    4  A    between atoms: C_20  and  C_21
REMARK    5  A    between atoms: C_21  and  C_22
REMARK                            x       y       z     vdW  Elec       q    Type
REMARK                         _______ _______ _______ _____ _____    ______ ____
ROOT
ATOM      1  O   UNL     1       0.592   8.030  21.542  0.00  0.00    +0.000 OA
ATOM      2  C   UNL     1       1.314   8.068  20.544  0.00  0.00    +0.000 C 
ATOM      3  N   UNL     1       1.931   6.911  20.023  0.00  0.00    +0.000 N 
ATOM      4  C   UNL     1       2.922   6.926  18.940  0.00  0.00    +0.000 C 
ATOM      5  C   UNL     1       2.608   5.835  17.925  0.00  0.00    +0.000 C 
ATOM      6  C   UNL     1       2.619   4.441  18.571  0.00  0.00    +0.000 C 
ATOM      7  C   UNL     1       1.623   4.445  19.750  0.00  0.00    +0.000 C 
ATOM      8  C   UNL     1       1.804   5.625  20.720  0.00  0.00    +0.000 C 
ENDROOT
BRANCH   2   9
ATOM      9  C   UNL     1       1.613   9.356  19.780  0.00  0.00    +0.000 C 
BRANCH   9  10
ATOM     10  S   UNL     1       0.820   9.576  18.146  0.00  0.00    +0.000 S 
BRANCH  10  11
ATOM     11  C   UNL     1      -0.270  10.854  18.597  0.00  0.00    +0.000 A 
ATOM     12  N   UNL     1      -1.554  10.664  18.877  0.00  0.00    +0.000 NA
ATOM     13  N   UNL     1      -2.140  11.884  19.178  0.00  0.00    +0.000 NA
ATOM     14  C   UNL     1      -1.187  12.771  19.090  0.00  0.00    +0.000 A 
ATOM     15  N   UNL     1      -1.022  14.102  19.236  0.00  0.00    +0.000 N 
ATOM     16  C   UNL     1       0.299  14.378  18.846  0.00  0.00    +0.000 A 
ATOM     17  C   UNL     1       0.959  15.584  18.826  0.00  0.00    +0.000 A 
ATOM     18  C   UNL     1       2.312  15.565  18.475  0.00  0.00    +0.000 A 
ATOM     19  C   UNL     1       2.975  14.350  18.174  0.00  0.00    +0.000 A 
ATOM     20  C   UNL     1       2.307  13.116  18.212  0.00  0.00    +0.000 A 
ATOM     21  C   UNL     1       0.979  13.164  18.557  0.00  0.00    +0.000 A 
ATOM     22  N   UNL     1       0.001  12.182  18.705  0.00  0.00    +0.000 N 
ATOM     23  H   UNL     1      -1.758  14.790  19.243  0.00  0.00    +0.000 HD
ENDBRANCH  10  11
ENDBRANCH   9  10
ENDBRANCH   2   9
BRANCH   6  24
ATOM     24  C   UNL     1       4.032   3.969  19.002  0.00  0.00    +0.000 C 
BRANCH  24  25
ATOM     25  C   UNL     1       5.090   4.148  17.931  0.00  0.00    +0.000 A 
ATOM     26  C   UNL     1       6.292   4.809  18.223  0.00  0.00    +0.000 A 
ATOM     27  C   UNL     1       7.235   5.047  17.220  0.00  0.00    +0.000 A 
ATOM     28  C   UNL     1       6.993   4.616  15.918  0.00  0.00    +0.000 A 
ATOM     29  C   UNL     1       5.821   3.923  15.623  0.00  0.00    +0.000 A 
ATOM     30  C   UNL     1       4.877   3.685  16.626  0.00  0.00    +0.000 A 
ENDBRANCH  24  25
ENDBRANCH   6  24
TORSDOF 5
ENDMDL
MODEL 7
REMARK VINA RESULT:      -7.8      3.277      9.668
REMARK  Name = 
REMARK  5 active torsions:
REMARK  status: ('A' for Active; 'I' for Inactive)
REMARK    1  A    between atoms: C_2  and  C_3
REMARK    2  A    between atoms: C_3  and  S_4
REMARK    3  A    between atoms: S_4  and  C_5
REMARK    4  A    between atoms: C_20  and  C_21
REMARK    5  A    between atoms: C_21  and  C_22
REMARK                            x       y       z     vdW  Elec       q    Type
REMARK                         _______ _______ _______ _____ _____    ______ ____
ROOT
ATOM      1  O   UNL     1       0.628   8.278  21.500  0.00  0.00    +0.000 OA
ATOM      2  C   UNL     1       1.314   8.261  20.477  0.00  0.00    +0.000 C 
ATOM      3  N   UNL     1       1.919   7.079  20.000  0.00  0.00    +0.000 N 
ATOM      4  C   UNL     1       2.872   7.036  18.884  0.00  0.00    +0.000 C 
ATOM      5  C   UNL     1       2.528   5.889  17.944  0.00  0.00    +0.000 C 
ATOM      6  C   UNL     1       2.569   4.533  18.666  0.00  0.00    +0.000 C 
ATOM      7  C   UNL     1       1.613   4.601  19.876  0.00  0.00    +0.000 C 
ATOM      8  C   UNL     1       1.821   5.834  20.772  0.00  0.00    +0.000 C 
ENDROOT
BRANCH   2   9
ATOM      9  C   UNL     1       1.581   9.505  19.632  0.00  0.00    +0.000 C 
BRANCH   9  10
ATOM     10  S   UNL     1       0.291  10.011  18.437  0.00  0.00    +0.000 S 
BRANCH  10  11
ATOM     11  C   UNL     1      -0.624  11.027  19.513  0.00  0.00    +0.000 A 
ATOM     12  N   UNL     1      -0.167  11.469  20.678  0.00  0.00    +0.000 NA
ATOM     13  N   UNL     1      -1.147  12.233  21.292  0.00  0.00    +0.000 NA
ATOM     14  C   UNL     1      -2.160  12.246  20.470  0.00  0.00    +0.000 A 
ATOM     15  N   UNL     1      -3.405  12.760  20.401  0.00  0.00    +0.000 N 
ATOM     16  C   UNL     1      -3.981  12.235  19.231  0.00  0.00    +0.000 A 
ATOM     17  C   UNL     1      -5.231  12.464  18.707  0.00  0.00    +0.000 A 
ATOM     18  C   UNL     1      -5.522  11.879  17.471  0.00  0.00    +0.000 A 
ATOM     19  C   UNL     1      -4.558  11.102  16.783  0.00  0.00    +0.000 A 
ATOM     20  C   UNL     1      -3.275  10.882  17.308  0.00  0.00    +0.000 A 
ATOM     21  C   UNL     1      -3.018  11.467  18.524  0.00  0.00    +0.000 A 
ATOM     22  N   UNL     1      -1.895  11.485  19.349  0.00  0.00    +0.000 N 
ATOM     23  H   UNL     1      -3.941  13.114  21.176  0.00  0.00    +0.000 HD
ENDBRANCH  10  11
ENDBRANCH   9  10
ENDBRANCH   2   9
BRANCH   6  24
ATOM     24  C   UNL     1       3.998   4.091  19.073  0.00  0.00    +0.000 C 
BRANCH  24  25
ATOM     25  C   UNL     1       5.028   4.265  17.976  0.00  0.00    +0.000 A 
ATOM     26  C   UNL     1       4.748   3.852  16.665  0.00  0.00    +0.000 A 
ATOM     27  C   UNL     1       5.724   3.936  15.668  0.00  0.00    +0.000 A 
ATOM     28  C   UNL     1       6.985   4.446  15.968  0.00  0.00    +0.000 A 
ATOM     29  C   UNL     1       7.263   4.897  17.256  0.00  0.00    +0.000 A 
ATOM     30  C   UNL     1       6.289   4.813  18.254  0.00  0.00    +0.000 A 
ENDBRANCH  24  25
ENDBRANCH   6  24
TORSDOF 5
ENDMDL
MODEL 8
REMARK VINA RESULT:      -7.8      2.556      3.673
REMARK  Name = 
REMARK  5 active torsions:
REMARK  status: ('A' for Active; 'I' for Inactive)
REMARK    1  A    between atoms: C_2  and  C_3
REMARK    2  A    between atoms: C_3  and  S_4
REMARK    3  A    between atoms: S_4  and  C_5
REMARK    4  A    between atoms: C_20  and  C_21
REMARK    5  A    between atoms: C_21  and  C_22
REMARK                            x       y       z     vdW  Elec       q    Type
REMARK                         _______ _______ _______ _____ _____    ______ ____
ROOT
ATOM      1  O   UNL     1       2.799   6.709  17.652  0.00  0.00    +0.000 OA
ATOM      2  C   UNL     1       2.475   6.791  18.838  0.00  0.00    +0.000 C 
ATOM      3  N   UNL     1       1.892   7.958  19.375  0.00  0.00    +0.000 N 
ATOM      4  C   UNL     1       1.637   8.165  20.806  0.00  0.00    +0.000 C 
ATOM      5  C   UNL     1       0.243   8.741  21.014  0.00  0.00    +0.000 C 
ATOM      6  C   UNL     1       0.073  10.087  20.293  0.00  0.00    +0.000 C 
ATOM      7  C   UNL     1       0.403   9.881  18.799  0.00  0.00    +0.000 C 
ATOM      8  C   UNL     1       1.736   9.158  18.544  0.00  0.00    +0.000 C 
ENDROOT
BRANCH   2   9
ATOM      9  C   UNL     1       2.674   5.653  19.837  0.00  0.00    +0.000 C 
BRANCH   9  10
ATOM     10  S   UNL     1       3.319   4.065  19.196  0.00  0.00    +0.000 S 
BRANCH  10  11
ATOM     11  C   UNL     1       4.984   4.544  19.049  0.00  0.00    +0.000 A 
ATOM     12  N   UNL     1       5.739   4.916  20.077  0.00  0.00    +0.000 NA
ATOM     13  N   UNL     1       7.003   5.250  19.616  0.00  0.00    +0.000 NA
ATOM     14  C   UNL     1       6.980   5.050  18.327  0.00  0.00    +0.000 A 
ATOM     15  N   UNL     1       7.808   5.160  17.268  0.00  0.00    +0.000 N 
ATOM     16  C   UNL     1       7.030   4.880  16.132  0.00  0.00    +0.000 A 
ATOM     17  C   UNL     1       7.411   4.847  14.811  0.00  0.00    +0.000 A 
ATOM     18  C   UNL     1       6.447   4.450  13.879  0.00  0.00    +0.000 A 
ATOM     19  C   UNL     1       5.143   4.079  14.286  0.00  0.00    +0.000 A 
ATOM     20  C   UNL     1       4.758   4.094  15.636  0.00  0.00    +0.000 A 
ATOM     21  C   UNL     1       5.722   4.490  16.529  0.00  0.00    +0.000 A 
ATOM     22  N   UNL     1       5.731   4.631  17.915  0.00  0.00    +0.000 N 
ATOM     23  H   UNL     1       8.665   5.689  17.241  0.00  0.00    +0.000 HD
ENDBRANCH  10  11
ENDBRANCH   9  10
ENDBRANCH   2   9
BRANCH   6  24
ATOM     24  C   UNL     1       0.904  11.235  20.922  0.00  0.00    +0.000 C 
BRANCH  24  25
ATOM     25  C   UNL     1       0.687  12.581  20.260  0.00  0.00    +0.000 A 
ATOM     26  C   UNL     1      -0.570  13.204  20.310  0.00  0.00    +0.000 A 
ATOM     27  C   UNL     1      -0.796  14.405  19.634  0.00  0.00    +0.000 A 
ATOM     28  C   UNL     1       0.234  15.004  18.911  0.00  0.00    +0.000 A 
ATOM     29  C   UNL     1       1.497  14.417  18.886  0.00  0.00    +0.000 A 
ATOM     30  C   UNL     1       1.724  13.215  19.562  0.00  0.00    +0.000 A 
ENDBRANCH  24  25
ENDBRANCH   6  24
TORSDOF 5
ENDMDL
MODEL 9
REMARK VINA RESULT:      -7.8      3.848      9.960
REMARK  Name = 
REMARK  5 active torsions:
REMARK  status: ('A' for Active; 'I' for Inactive)
REMARK    1  A    between atoms: C_2  and  C_3
REMARK    2  A    between atoms: C_3  and  S_4
REMARK    3  A    between atoms: S_4  and  C_5
REMARK    4  A    between atoms: C_20  and  C_21
REMARK    5  A    between atoms: C_21  and  C_22
REMARK                            x       y       z     vdW  Elec       q    Type
REMARK                         _______ _______ _______ _____ _____    ______ ____
ROOT
ATOM      1  O   UNL     1      -0.017   9.027  21.591  0.00  0.00    +0.000 OA
ATOM      2  C   UNL     1       0.538   9.110  20.494  0.00  0.00    +0.000 C 
ATOM      3  N   UNL     1       1.428   8.119  20.029  0.00  0.00    +0.000 N 
ATOM      4  C   UNL     1       2.234   8.245  18.809  0.00  0.00    +0.000 C 
ATOM      5  C   UNL     1       2.172   6.956  18.002  0.00  0.00    +0.000 C 
ATOM      6  C   UNL     1       2.700   5.758  18.807  0.00  0.00    +0.000 C 
ATOM      7  C   UNL     1       1.893   5.664  20.120  0.00  0.00    +0.000 C 
ATOM      8  C   UNL     1       1.797   6.990  20.893  0.00  0.00    +0.000 C 
ENDROOT
BRANCH   2   9
ATOM      9  C   UNL     1       0.322  10.280  19.537  0.00  0.00    +0.000 C 
BRANCH   9  10
ATOM     10  S   UNL     1      -1.111  11.375  19.845  0.00  0.00    +0.000 S 
BRANCH  10  11
ATOM     11  C   UNL     1      -1.998  10.995  18.398  0.00  0.00    +0.000 A 
ATOM     12  N   UNL     1      -1.472  10.366  17.353  0.00  0.00    +0.000 NA
ATOM     13  N   UNL     1      -2.435  10.238  16.366  0.00  0.00    +0.000 NA
ATOM     14  C   UNL     1      -3.521  10.774  16.852  0.00  0.00    +0.000 A 
ATOM     15  N   UNL     1      -4.796  11.005  16.476  0.00  0.00    +0.000 N 
ATOM     16  C   UNL     1      -5.376  11.766  17.504  0.00  0.00    +0.000 A 
ATOM     17  C   UNL     1      -6.661  12.244  17.605  0.00  0.00    +0.000 A 
ATOM     18  C   UNL     1      -7.005  12.905  18.788  0.00  0.00    +0.000 A 
ATOM     19  C   UNL     1      -6.072  13.054  19.843  0.00  0.00    +0.000 A 
ATOM     20  C   UNL     1      -4.765  12.550  19.749  0.00  0.00    +0.000 A 
ATOM     21  C   UNL     1      -4.454  11.908  18.576  0.00  0.00    +0.000 A 
ATOM     22  N   UNL     1      -3.296  11.287  18.114  0.00  0.00    +0.000 N 
ATOM     23  H   UNL     1      -5.145  10.985  15.531  0.00  0.00    +0.000 HD
ENDBRANCH  10  11
ENDBRANCH   9  10
ENDBRANCH   2   9
BRANCH   6  24
ATOM     24  C   UNL     1       4.228   5.809  19.062  0.00  0.00    +0.000 C 
BRANCH  24  25
ATOM     25  C   UNL     1       5.063   5.417  17.860  0.00  0.00    +0.000 A 
ATOM     26  C   UNL     1       6.310   6.019  17.632  0.00  0.00    +0.000 A 
ATOM     27  C   UNL     1       7.046   5.720  16.483  0.00  0.00    +0.000 A 
ATOM     28  C   UNL     1       6.550   4.807  15.555  0.00  0.00    +0.000 A 
ATOM     29  C   UNL     1       5.332   4.172  15.788  0.00  0.00    +0.000 A 
ATOM     30  C   UNL     1       4.595   4.471  16.937  0.00  0.00    +0.000 A 
ENDBRANCH  24  25
ENDBRANCH   6  24
TORSDOF 5
ENDMDL
