MODEL 1
REMARK VINA RESULT:      -8.8      0.000      0.000
REMARK  Name = 
REMARK  7 active torsions:
REMARK  status: ('A' for Active; 'I' for Inactive)
REMARK    1  A    between atoms: C_1  and  C_2
REMARK    2  A    between atoms: C_2  and  C_3
REMARK    3  A    between atoms: N_11  and  C_12
REMARK    4  A    between atoms: C_12  and  C_13
REMARK    5  A    between atoms: N_15  and  C_16
REMARK    6  A    between atoms: C_20  and  S_21
REMARK    7  A    between atoms: S_21  and  N_24
REMARK                            x       y       z     vdW  Elec       q    Type
REMARK                         _______ _______ _______ _____ _____    ______ ____
ROOT
ATOM      1  C   UNL     1       2.388   6.980  19.830  0.00  0.00    +0.000 C 
ATOM      2  O   UNL     1       2.432   7.637  18.794  0.00  0.00    +0.000 OA
ATOM      3  N   UNL     1       1.741   7.377  20.991  0.00  0.00    +0.000 N 
ATOM      4  H   UNL     1       2.136   7.010  21.849  0.00  0.00    +0.000 HD
ENDROOT
BRANCH   3   5
ATOM      5  C   UNL     1       1.047   8.601  21.120  0.00  0.00    +0.000 A 
ATOM      6  C   UNL     1       0.148   8.695  22.191  0.00  0.00    +0.000 A 
ATOM      7  C   UNL     1      -0.577   9.863  22.412  0.00  0.00    +0.000 A 
ATOM      8  C   UNL     1      -0.465  10.923  21.521  0.00  0.00    +0.000 A 
ATOM      9  C   UNL     1       0.394  10.821  20.418  0.00  0.00    +0.000 A 
ATOM     10  C   UNL     1       1.174   9.670  20.219  0.00  0.00    +0.000 A 
BRANCH   9  11
ATOM     11  S   UNL     1       0.356  12.138  19.224  0.00  0.00    +0.000 S 
ATOM     12  O   UNL     1      -0.465  13.195  19.777  0.00  0.00    +0.000 OA
ATOM     13  O   UNL     1       1.711  12.429  18.799  0.00  0.00    +0.000 OA
BRANCH  11  14
ATOM     14  N   UNL     1      -0.454  11.594  17.871  0.00  0.00    +0.000 N 
ATOM     15  C   UNL     1      -1.802  11.269  17.819  0.00  0.00    +0.000 C 
ATOM     16  N   UNL     1      -2.673  11.775  18.623  0.00  0.00    +0.000 NA
ATOM     17  C   UNL     1      -3.967  11.205  18.227  0.00  0.00    +0.000 C 
ATOM     18  C   UNL     1      -3.762  10.610  16.844  0.00  0.00    +0.000 C 
ATOM     19  C   UNL     1      -2.286  10.288  16.808  0.00  0.00    +0.000 C 
ATOM     20  H   UNL     1       0.193  11.245  17.171  0.00  0.00    +0.000 HD
ENDBRANCH  11  14
ENDBRANCH   9  11
ENDBRANCH   3   5
BRANCH   1  21
ATOM     21  C   UNL     1       3.049   5.616  19.928  0.00  0.00    +0.000 C 
BRANCH  21  30
ATOM     22  C   UNL     1       2.892   4.332  17.748  0.00  0.00    +0.000 A 
ATOM     23  N   UNL     1       3.706   3.873  16.818  0.00  0.00    +0.000 NA
ATOM     24  C   UNL     1       4.953   4.318  17.152  0.00  0.00    +0.000 A 
ATOM     25  C   UNL     1       6.176   4.070  16.511  0.00  0.00    +0.000 A 
ATOM     26  C   UNL     1       7.337   4.628  17.042  0.00  0.00    +0.000 A 
ATOM     27  C   UNL     1       7.283   5.414  18.194  0.00  0.00    +0.000 A 
ATOM     28  C   UNL     1       6.072   5.667  18.853  0.00  0.00    +0.000 A 
ATOM     29  C   UNL     1       4.913   5.102  18.302  0.00  0.00    +0.000 A 
ATOM     30  N   UNL     1       3.579   5.098  18.674  0.00  0.00    +0.000 N 
BRANCH  22  32
ATOM     31  C   UNL     1       1.142   2.730  18.527  0.00  0.00    +0.000 C 
ATOM     32  C   UNL     1       1.429   4.028  17.786  0.00  0.00    +0.000 C 
ENDBRANCH  22  32
ENDBRANCH  21  30
ENDBRANCH   1  21
TORSDOF 6
ENDMDL
MODEL 2
REMARK VINA RESULT:      -8.7      2.707      4.212
REMARK  Name = 
REMARK  7 active torsions:
REMARK  status: ('A' for Active; 'I' for Inactive)
REMARK    1  A    between atoms: C_1  and  C_2
REMARK    2  A    between atoms: C_2  and  C_3
REMARK    3  A    between atoms: N_11  and  C_12
REMARK    4  A    between atoms: C_12  and  C_13
REMARK    5  A    between atoms: N_15  and  C_16
REMARK    6  A    between atoms: C_20  and  S_21
REMARK    7  A    between atoms: S_21  and  N_24
REMARK                            x       y       z     vdW  Elec       q    Type
REMARK                         _______ _______ _______ _____ _____    ______ ____
ROOT
ATOM      1  C   UNL     1       3.237   5.059  18.101  0.00  0.00    +0.000 C 
ATOM      2  O   UNL     1       2.167   4.850  17.536  0.00  0.00    +0.000 OA
ATOM      3  N   UNL     1       3.562   6.227  18.773  0.00  0.00    +0.000 N 
ATOM      4  H   UNL     1       4.550   6.452  18.788  0.00  0.00    +0.000 HD
ENDROOT
BRANCH   3   5
ATOM      5  C   UNL     1       2.689   7.332  18.887  0.00  0.00    +0.000 A 
ATOM      6  C   UNL     1       2.567   8.147  17.754  0.00  0.00    +0.000 A 
ATOM      7  C   UNL     1       1.724   9.255  17.760  0.00  0.00    +0.000 A 
ATOM      8  C   UNL     1       1.050   9.602  18.925  0.00  0.00    +0.000 A 
ATOM      9  C   UNL     1       1.204   8.822  20.080  0.00  0.00    +0.000 A 
ATOM     10  C   UNL     1       2.006   7.669  20.066  0.00  0.00    +0.000 A 
BRANCH   9  11
ATOM     11  S   UNL     1       0.458   9.420  21.579  0.00  0.00    +0.000 S 
ATOM     12  O   UNL     1      -0.657   8.546  21.881  0.00  0.00    +0.000 OA
ATOM     13  O   UNL     1       1.494   9.632  22.570  0.00  0.00    +0.000 OA
BRANCH  11  14
ATOM     14  N   UNL     1      -0.210  10.917  21.270  0.00  0.00    +0.000 N 
ATOM     15  C   UNL     1      -1.282  11.474  21.953  0.00  0.00    +0.000 C 
ATOM     16  N   UNL     1      -1.582  11.151  23.164  0.00  0.00    +0.000 NA
ATOM     17  C   UNL     1      -2.744  11.972  23.524  0.00  0.00    +0.000 C 
ATOM     18  C   UNL     1      -2.819  13.080  22.488  0.00  0.00    +0.000 C 
ATOM     19  C   UNL     1      -2.145  12.481  21.276  0.00  0.00    +0.000 C 
ATOM     20  H   UNL     1       0.052  11.254  20.349  0.00  0.00    +0.000 HD
ENDBRANCH  11  14
ENDBRANCH   9  11
ENDBRANCH   3   5
BRANCH   1  21
ATOM     21  C   UNL     1       4.333   4.006  18.129  0.00  0.00    +0.000 C 
BRANCH  21  30
ATOM     22  C   UNL     1       6.627   5.069  17.946  0.00  0.00    +0.000 A 
ATOM     23  N   UNL     1       7.485   5.394  17.000  0.00  0.00    +0.000 NA
ATOM     24  C   UNL     1       6.957   4.929  15.831  0.00  0.00    +0.000 A 
ATOM     25  C   UNL     1       7.458   5.054  14.527  0.00  0.00    +0.000 A 
ATOM     26  C   UNL     1       6.734   4.500  13.473  0.00  0.00    +0.000 A 
ATOM     27  C   UNL     1       5.529   3.838  13.711  0.00  0.00    +0.000 A 
ATOM     28  C   UNL     1       5.008   3.708  15.007  0.00  0.00    +0.000 A 
ATOM     29  C   UNL     1       5.751   4.267  16.056  0.00  0.00    +0.000 A 
ATOM     30  N   UNL     1       5.553   4.370  17.422  0.00  0.00    +0.000 N 
BRANCH  22  32
ATOM     31  C   UNL     1       8.266   5.658  19.734  0.00  0.00    +0.000 C 
ATOM     32  C   UNL     1       6.802   5.442  19.383  0.00  0.00    +0.000 C 
ENDBRANCH  22  32
ENDBRANCH  21  30
ENDBRANCH   1  21
TORSDOF 6
ENDMDL
MODEL 3
REMARK VINA RESULT:      -8.6      2.199      3.033
REMARK  Name = 
REMARK  7 active torsions:
REMARK  status: ('A' for Active; 'I' for Inactive)
REMARK    1  A    between atoms: C_1  and  C_2
REMARK    2  A    between atoms: C_2  and  C_3
REMARK    3  A    between atoms: N_11  and  C_12
REMARK    4  A    between atoms: C_12  and  C_13
REMARK    5  A    between atoms: N_15  and  C_16
REMARK    6  A    between atoms: C_20  and  S_21
REMARK    7  A    between atoms: S_21  and  N_24
REMARK                            x       y       z     vdW  Elec       q    Type
REMARK                         _______ _______ _______ _____ _____    ______ ____
ROOT
ATOM      1  C   UNL     1       2.047   5.812  20.389  0.00  0.00    +0.000 C 
ATOM      2  O   UNL     1       0.897   5.387  20.449  0.00  0.00    +0.000 OA
ATOM      3  N   UNL     1       2.405   7.146  20.504  0.00  0.00    +0.000 N 
ATOM      4  H   UNL     1       3.249   7.408  20.009  0.00  0.00    +0.000 HD
ENDROOT
BRANCH   3   5
ATOM      5  C   UNL     1       1.475   8.191  20.706  0.00  0.00    +0.000 A 
ATOM      6  C   UNL     1       0.849   8.229  21.959  0.00  0.00    +0.000 A 
ATOM      7  C   UNL     1      -0.075   9.226  22.263  0.00  0.00    +0.000 A 
ATOM      8  C   UNL     1      -0.438  10.150  21.291  0.00  0.00    +0.000 A 
ATOM      9  C   UNL     1       0.145  10.089  20.018  0.00  0.00    +0.000 A 
ATOM     10  C   UNL     1       1.122   9.124  19.720  0.00  0.00    +0.000 A 
BRANCH   9  11
ATOM     11  S   UNL     1      -0.492  11.185  18.771  0.00  0.00    +0.000 S 
ATOM     12  O   UNL     1      -1.013  10.360  17.701  0.00  0.00    +0.000 OA
ATOM     13  O   UNL     1      -1.348  12.171  19.400  0.00  0.00    +0.000 OA
BRANCH  11  14
ATOM     14  N   UNL     1       0.789  12.028  18.112  0.00  0.00    +0.000 N 
ATOM     15  C   UNL     1       1.634  12.879  18.811  0.00  0.00    +0.000 C 
ATOM     16  N   UNL     1       1.845  12.768  20.077  0.00  0.00    +0.000 NA
ATOM     17  C   UNL     1       2.806  13.823  20.420  0.00  0.00    +0.000 C 
ATOM     18  C   UNL     1       3.404  14.295  19.106  0.00  0.00    +0.000 C 
ATOM     19  C   UNL     1       2.329  13.982  18.091  0.00  0.00    +0.000 C 
ATOM     20  H   UNL     1       0.709  12.087  17.102  0.00  0.00    +0.000 HD
ENDBRANCH  11  14
ENDBRANCH   9  11
ENDBRANCH   3   5
BRANCH   1  21
ATOM     21  C   UNL     1       3.225   4.872  20.192  0.00  0.00    +0.000 C 
BRANCH  21  30
ATOM     22  C   UNL     1       3.059   3.153  18.336  0.00  0.00    +0.000 A 
ATOM     23  N   UNL     1       3.530   2.975  17.118  0.00  0.00    +0.000 NA
ATOM     24  C   UNL     1       4.230   4.106  16.812  0.00  0.00    +0.000 A 
ATOM     25  C   UNL     1       4.961   4.403  15.652  0.00  0.00    +0.000 A 
ATOM     26  C   UNL     1       5.610   5.633  15.563  0.00  0.00    +0.000 A 
ATOM     27  C   UNL     1       5.538   6.550  16.613  0.00  0.00    +0.000 A 
ATOM     28  C   UNL     1       4.818   6.270  17.783  0.00  0.00    +0.000 A 
ATOM     29  C   UNL     1       4.167   5.030  17.854  0.00  0.00    +0.000 A 
ATOM     30  N   UNL     1       3.412   4.397  18.827  0.00  0.00    +0.000 N 
BRANCH  22  32
ATOM     31  C   UNL     1       0.776   2.288  18.858  0.00  0.00    +0.000 C 
ATOM     32  C   UNL     1       2.272   2.119  19.075  0.00  0.00    +0.000 C 
ENDBRANCH  22  32
ENDBRANCH  21  30
ENDBRANCH   1  21
TORSDOF 6
ENDMDL
MODEL 4
REMARK VINA RESULT:      -8.6      1.620      2.133
REMARK  Name = 
REMARK  7 active torsions:
REMARK  status: ('A' for Active; 'I' for Inactive)
REMARK    1  A    between atoms: C_1  and  C_2
REMARK    2  A    between atoms: C_2  and  C_3
REMARK    3  A    between atoms: N_11  and  C_12
REMARK    4  A    between atoms: C_12  and  C_13
REMARK    5  A    between atoms: N_15  and  C_16
REMARK    6  A    between atoms: C_20  and  S_21
REMARK    7  A    between atoms: S_21  and  N_24
REMARK                            x       y       z     vdW  Elec       q    Type
REMARK                         _______ _______ _______ _____ _____    ______ ____
ROOT
ATOM      1  C   UNL     1       2.328   6.016  18.274  0.00  0.00    +0.000 C 
ATOM      2  O   UNL     1       1.364   5.432  18.761  0.00  0.00    +0.000 OA
ATOM      3  N   UNL     1       2.623   7.356  18.469  0.00  0.00    +0.000 N 
ATOM      4  H   UNL     1       3.124   7.800  17.708  0.00  0.00    +0.000 HD
ENDROOT
BRANCH   3   5
ATOM      5  C   UNL     1       1.838   8.222  19.263  0.00  0.00    +0.000 A 
ATOM      6  C   UNL     1       1.678   7.858  20.606  0.00  0.00    +0.000 A 
ATOM      7  C   UNL     1       0.931   8.651  21.475  0.00  0.00    +0.000 A 
ATOM      8  C   UNL     1       0.276   9.776  20.991  0.00  0.00    +0.000 A 
ATOM      9  C   UNL     1       0.388  10.121  19.637  0.00  0.00    +0.000 A 
ATOM     10  C   UNL     1       1.187   9.362  18.765  0.00  0.00    +0.000 A 
BRANCH   9  11
ATOM     11  S   UNL     1      -0.615  11.465  19.047  0.00  0.00    +0.000 S 
ATOM     12  O   UNL     1      -1.850  11.443  19.803  0.00  0.00    +0.000 OA
ATOM     13  O   UNL     1       0.185  12.674  19.013  0.00  0.00    +0.000 OA
BRANCH  11  14
ATOM     14  N   UNL     1      -1.044  11.143  17.467  0.00  0.00    +0.000 N 
ATOM     15  C   UNL     1      -2.345  11.024  16.997  0.00  0.00    +0.000 C 
ATOM     16  N   UNL     1      -3.348  11.594  17.570  0.00  0.00    +0.000 NA
ATOM     17  C   UNL     1      -4.524  11.250  16.761  0.00  0.00    +0.000 C 
ATOM     18  C   UNL     1      -3.990  10.730  15.437  0.00  0.00    +0.000 C 
ATOM     19  C   UNL     1      -2.620  10.199  15.788  0.00  0.00    +0.000 C 
ATOM     20  H   UNL     1      -0.265  10.753  16.946  0.00  0.00    +0.000 HD
ENDBRANCH  11  14
ENDBRANCH   9  11
ENDBRANCH   3   5
BRANCH   1  21
ATOM     21  C   UNL     1       3.330   5.285  17.394  0.00  0.00    +0.000 C 
BRANCH  21  30
ATOM     22  C   UNL     1       4.873   4.009  18.950  0.00  0.00    +0.000 A 
ATOM     23  N   UNL     1       6.081   4.143  19.460  0.00  0.00    +0.000 NA
ATOM     24  C   UNL     1       6.615   5.260  18.887  0.00  0.00    +0.000 A 
ATOM     25  C   UNL     1       7.861   5.860  19.122  0.00  0.00    +0.000 A 
ATOM     26  C   UNL     1       8.193   7.016  18.418  0.00  0.00    +0.000 A 
ATOM     27  C   UNL     1       7.299   7.568  17.500  0.00  0.00    +0.000 A 
ATOM     28  C   UNL     1       6.046   6.987  17.256  0.00  0.00    +0.000 A 
ATOM     29  C   UNL     1       5.730   5.823  17.969  0.00  0.00    +0.000 A 
ATOM     30  N   UNL     1       4.613   5.006  18.025  0.00  0.00    +0.000 N 
BRANCH  22  32
ATOM     31  C   UNL     1       3.744   1.894  18.255  0.00  0.00    +0.000 C 
ATOM     32  C   UNL     1       3.921   2.930  19.354  0.00  0.00    +0.000 C 
ENDBRANCH  22  32
ENDBRANCH  21  30
ENDBRANCH   1  21
TORSDOF 6
ENDMDL
MODEL 5
REMARK VINA RESULT:      -8.6      2.439      3.957
REMARK  Name = 
REMARK  7 active torsions:
REMARK  status: ('A' for Active; 'I' for Inactive)
REMARK    1  A    between atoms: C_1  and  C_2
REMARK    2  A    between atoms: C_2  and  C_3
REMARK    3  A    between atoms: N_11  and  C_12
REMARK    4  A    between atoms: C_12  and  C_13
REMARK    5  A    between atoms: N_15  and  C_16
REMARK    6  A    between atoms: C_20  and  S_21
REMARK    7  A    between atoms: S_21  and  N_24
REMARK                            x       y       z     vdW  Elec       q    Type
REMARK                         _______ _______ _______ _____ _____    ______ ____
ROOT
ATOM      1  C   UNL     1       2.197   8.264  18.578  0.00  0.00    +0.000 C 
ATOM      2  O   UNL     1       2.179   8.362  17.355  0.00  0.00    +0.000 OA
ATOM      3  N   UNL     1       1.418   9.017  19.444  0.00  0.00    +0.000 N 
ATOM      4  H   UNL     1       1.823   9.173  20.359  0.00  0.00    +0.000 HD
ENDROOT
BRANCH   3   5
ATOM      5  C   UNL     1       0.498  10.000  19.014  0.00  0.00    +0.000 A 
ATOM      6  C   UNL     1       0.629  11.268  19.594  0.00  0.00    +0.000 A 
ATOM      7  C   UNL     1      -0.221  12.309  19.230  0.00  0.00    +0.000 A 
ATOM      8  C   UNL     1      -1.259  12.072  18.337  0.00  0.00    +0.000 A 
ATOM      9  C   UNL     1      -1.430  10.794  17.789  0.00  0.00    +0.000 A 
ATOM     10  C   UNL     1      -0.541   9.751  18.104  0.00  0.00    +0.000 A 
BRANCH   9  11
ATOM     11  S   UNL     1      -2.877  10.514  16.795  0.00  0.00    +0.000 S 
ATOM     12  O   UNL     1      -2.451  10.498  15.411  0.00  0.00    +0.000 OA
ATOM     13  O   UNL     1      -3.610   9.385  17.334  0.00  0.00    +0.000 OA
BRANCH  11  14
ATOM     14  N   UNL     1      -3.879  11.839  16.946  0.00  0.00    +0.000 N 
ATOM     15  C   UNL     1      -5.185  11.808  17.416  0.00  0.00    +0.000 C 
ATOM     16  N   UNL     1      -5.619  10.893  18.212  0.00  0.00    +0.000 NA
ATOM     17  C   UNL     1      -7.020  11.231  18.490  0.00  0.00    +0.000 C 
ATOM     18  C   UNL     1      -7.204  12.673  18.051  0.00  0.00    +0.000 C 
ATOM     19  C   UNL     1      -6.149  12.860  16.986  0.00  0.00    +0.000 C 
ATOM     20  H   UNL     1      -3.545  12.619  16.389  0.00  0.00    +0.000 HD
ENDBRANCH  11  14
ENDBRANCH   9  11
ENDBRANCH   3   5
BRANCH   1  21
ATOM     21  C   UNL     1       3.098   7.258  19.275  0.00  0.00    +0.000 C 
BRANCH  21  30
ATOM     22  C   UNL     1       3.811   5.594  17.501  0.00  0.00    +0.000 A 
ATOM     23  N   UNL     1       3.494   4.374  17.116  0.00  0.00    +0.000 NA
ATOM     24  C   UNL     1       2.576   3.917  18.017  0.00  0.00    +0.000 A 
ATOM     25  C   UNL     1       1.892   2.693  18.033  0.00  0.00    +0.000 A 
ATOM     26  C   UNL     1       0.983   2.445  19.060  0.00  0.00    +0.000 A 
ATOM     27  C   UNL     1       0.753   3.401  20.050  0.00  0.00    +0.000 A 
ATOM     28  C   UNL     1       1.422   4.634  20.048  0.00  0.00    +0.000 A 
ATOM     29  C   UNL     1       2.337   4.865  19.010  0.00  0.00    +0.000 A 
ATOM     30  N   UNL     1       3.138   5.939  18.660  0.00  0.00    +0.000 N 
BRANCH  22  32
ATOM     31  C   UNL     1       5.417   5.740  15.595  0.00  0.00    +0.000 C 
ATOM     32  C   UNL     1       4.756   6.476  16.750  0.00  0.00    +0.000 C 
ENDBRANCH  22  32
ENDBRANCH  21  30
ENDBRANCH   1  21
TORSDOF 6
ENDMDL
MODEL 6
REMARK VINA RESULT:      -8.6      3.308      8.682
REMARK  Name = 
REMARK  7 active torsions:
REMARK  status: ('A' for Active; 'I' for Inactive)
REMARK    1  A    between atoms: C_1  and  C_2
REMARK    2  A    between atoms: C_2  and  C_3
REMARK    3  A    between atoms: N_11  and  C_12
REMARK    4  A    between atoms: C_12  and  C_13
REMARK    5  A    between atoms: N_15  and  C_16
REMARK    6  A    between atoms: C_20  and  S_21
REMARK    7  A    between atoms: S_21  and  N_24
REMARK                            x       y       z     vdW  Elec       q    Type
REMARK                         _______ _______ _______ _____ _____    ______ ____
ROOT
ATOM      1  C   UNL     1       1.609   9.019  18.298  0.00  0.00    +0.000 C 
ATOM      2  O   UNL     1       2.328   9.173  17.314  0.00  0.00    +0.000 OA
ATOM      3  N   UNL     1       1.675   7.938  19.164  0.00  0.00    +0.000 N 
ATOM      4  H   UNL     1       0.802   7.701  19.620  0.00  0.00    +0.000 HD
ENDROOT
BRANCH   3   5
ATOM      5  C   UNL     1       2.589   6.870  19.014  0.00  0.00    +0.000 A 
ATOM      6  C   UNL     1       2.432   5.792  19.894  0.00  0.00    +0.000 A 
ATOM      7  C   UNL     1       3.274   4.685  19.821  0.00  0.00    +0.000 A 
ATOM      8  C   UNL     1       4.328   4.679  18.915  0.00  0.00    +0.000 A 
ATOM      9  C   UNL     1       4.524   5.775  18.064  0.00  0.00    +0.000 A 
ATOM     10  C   UNL     1       3.644   6.871  18.089  0.00  0.00    +0.000 A 
BRANCH   9  11
ATOM     11  S   UNL     1       5.990   5.781  17.058  0.00  0.00    +0.000 S 
ATOM     12  O   UNL     1       6.044   7.062  16.386  0.00  0.00    +0.000 OA
ATOM     13  O   UNL     1       7.116   5.343  17.860  0.00  0.00    +0.000 OA
BRANCH  11  14
ATOM     14  N   UNL     1       5.802   4.643  15.853  0.00  0.00    +0.000 N 
ATOM     15  C   UNL     1       6.395   4.697  14.599  0.00  0.00    +0.000 C 
ATOM     16  N   UNL     1       7.492   5.332  14.373  0.00  0.00    +0.000 NA
ATOM     17  C   UNL     1       7.794   5.124  12.951  0.00  0.00    +0.000 C 
ATOM     18  C   UNL     1       6.924   3.964  12.499  0.00  0.00    +0.000 C 
ATOM     19  C   UNL     1       5.749   4.008  13.447  0.00  0.00    +0.000 C 
ATOM     20  H   UNL     1       4.984   4.064  16.018  0.00  0.00    +0.000 HD
ENDBRANCH  11  14
ENDBRANCH   9  11
ENDBRANCH   3   5
BRANCH   1  21
ATOM     21  C   UNL     1       0.558  10.049  18.676  0.00  0.00    +0.000 C 
BRANCH  21  30
ATOM     22  C   UNL     1       0.587  11.197  20.936  0.00  0.00    +0.000 A 
ATOM     23  N   UNL     1       1.036  12.320  21.461  0.00  0.00    +0.000 NA
ATOM     24  C   UNL     1       1.733  12.950  20.471  0.00  0.00    +0.000 A 
ATOM     25  C   UNL     1       2.372  14.199  20.502  0.00  0.00    +0.000 A 
ATOM     26  C   UNL     1       3.023  14.649  19.355  0.00  0.00    +0.000 A 
ATOM     27  C   UNL     1       3.032  13.873  18.195  0.00  0.00    +0.000 A 
ATOM     28  C   UNL     1       2.393  12.626  18.142  0.00  0.00    +0.000 A 
ATOM     29  C   UNL     1       1.748  12.186  19.306  0.00  0.00    +0.000 A 
ATOM     30  N   UNL     1       1.003  11.063  19.623  0.00  0.00    +0.000 N 
BRANCH  22  32
ATOM     31  C   UNL     1       0.549   9.215  22.453  0.00  0.00    +0.000 C 
ATOM     32  C   UNL     1      -0.277  10.229  21.677  0.00  0.00    +0.000 C 
ENDBRANCH  22  32
ENDBRANCH  21  30
ENDBRANCH   1  21
TORSDOF 6
ENDMDL
MODEL 7
REMARK VINA RESULT:      -8.5      1.595      1.913
REMARK  Name = 
REMARK  7 active torsions:
REMARK  status: ('A' for Active; 'I' for Inactive)
REMARK    1  A    between atoms: C_1  and  C_2
REMARK    2  A    between atoms: C_2  and  C_3
REMARK    3  A    between atoms: N_11  and  C_12
REMARK    4  A    between atoms: C_12  and  C_13
REMARK    5  A    between atoms: N_15  and  C_16
REMARK    6  A    between atoms: C_20  and  S_21
REMARK    7  A    between atoms: S_21  and  N_24
REMARK                            x       y       z     vdW  Elec       q    Type
REMARK                         _______ _______ _______ _____ _____    ______ ____
ROOT
ATOM      1  C   UNL     1       2.130   5.974  20.387  0.00  0.00    +0.000 C 
ATOM      2  O   UNL     1       1.011   5.521  20.606  0.00  0.00    +0.000 OA
ATOM      3  N   UNL     1       2.441   7.325  20.342  0.00  0.00    +0.000 N 
ATOM      4  H   UNL     1       3.220   7.565  19.739  0.00  0.00    +0.000 HD
ENDROOT
BRANCH   3   5
ATOM      5  C   UNL     1       1.493   8.353  20.545  0.00  0.00    +0.000 A 
ATOM      6  C   UNL     1       1.123   8.602  21.873  0.00  0.00    +0.000 A 
ATOM      7  C   UNL     1       0.204   9.602  22.181  0.00  0.00    +0.000 A 
ATOM      8  C   UNL     1      -0.409  10.313  21.158  0.00  0.00    +0.000 A 
ATOM      9  C   UNL     1      -0.083  10.038  19.823  0.00  0.00    +0.000 A 
ATOM     10  C   UNL     1       0.887   9.072  19.504  0.00  0.00    +0.000 A 
BRANCH   9  11
ATOM     11  S   UNL     1      -1.030  10.857  18.561  0.00  0.00    +0.000 S 
ATOM     12  O   UNL     1      -0.508  12.202  18.437  0.00  0.00    +0.000 OA
ATOM     13  O   UNL     1      -1.099  10.003  17.392  0.00  0.00    +0.000 OA
BRANCH  11  14
ATOM     14  N   UNL     1      -2.596  11.027  19.110  0.00  0.00    +0.000 N 
ATOM     15  C   UNL     1      -3.672  11.462  18.348  0.00  0.00    +0.000 C 
ATOM     16  N   UNL     1      -3.715  11.335  17.066  0.00  0.00    +0.000 NA
ATOM     17  C   UNL     1      -5.011  11.885  16.650  0.00  0.00    +0.000 C 
ATOM     18  C   UNL     1      -5.854  11.985  17.910  0.00  0.00    +0.000 C 
ATOM     19  C   UNL     1      -4.832  12.117  19.014  0.00  0.00    +0.000 C 
ATOM     20  H   UNL     1      -2.629  11.063  20.124  0.00  0.00    +0.000 HD
ENDBRANCH  11  14
ENDBRANCH   9  11
ENDBRANCH   3   5
BRANCH   1  21
ATOM     21  C   UNL     1       3.321   5.059  20.154  0.00  0.00    +0.000 C 
BRANCH  21  30
ATOM     22  C   UNL     1       3.003   3.292  18.365  0.00  0.00    +0.000 A 
ATOM     23  N   UNL     1       3.422   3.051  17.138  0.00  0.00    +0.000 NA
ATOM     24  C   UNL     1       4.167   4.134  16.771  0.00  0.00    +0.000 A 
ATOM     25  C   UNL     1       4.871   4.355  15.578  0.00  0.00    +0.000 A 
ATOM     26  C   UNL     1       5.578   5.546  15.426  0.00  0.00    +0.000 A 
ATOM     27  C   UNL     1       5.589   6.499  16.445  0.00  0.00    +0.000 A 
ATOM     28  C   UNL     1       4.897   6.294  17.648  0.00  0.00    +0.000 A 
ATOM     29  C   UNL     1       4.188   5.092  17.782  0.00  0.00    +0.000 A 
ATOM     30  N   UNL     1       3.436   4.532  18.801  0.00  0.00    +0.000 N 
BRANCH  22  32
ATOM     31  C   UNL     1       0.711   2.416  18.826  0.00  0.00    +0.000 C 
ATOM     32  C   UNL     1       2.191   2.324  19.163  0.00  0.00    +0.000 C 
ENDBRANCH  22  32
ENDBRANCH  21  30
ENDBRANCH   1  21
TORSDOF 6
ENDMDL
MODEL 8
REMARK VINA RESULT:      -8.5      3.148      9.272
REMARK  Name = 
REMARK  7 active torsions:
REMARK  status: ('A' for Active; 'I' for Inactive)
REMARK    1  A    between atoms: C_1  and  C_2
REMARK    2  A    between atoms: C_2  and  C_3
REMARK    3  A    between atoms: N_11  and  C_12
REMARK    4  A    between atoms: C_12  and  C_13
REMARK    5  A    between atoms: N_15  and  C_16
REMARK    6  A    between atoms: C_20  and  S_21
REMARK    7  A    between atoms: S_21  and  N_24
REMARK                            x       y       z     vdW  Elec       q    Type
REMARK                         _______ _______ _______ _____ _____    ______ ____
ROOT
ATOM      1  C   UNL     1       1.726   8.816  18.521  0.00  0.00    +0.000 C 
ATOM      2  O   UNL     1       1.824   9.027  17.316  0.00  0.00    +0.000 OA
ATOM      3  N   UNL     1       2.106   7.642  19.152  0.00  0.00    +0.000 N 
ATOM      4  H   UNL     1       1.587   7.420  19.994  0.00  0.00    +0.000 HD
ENDROOT
BRANCH   3   5
ATOM      5  C   UNL     1       2.658   6.533  18.473  0.00  0.00    +0.000 A 
ATOM      6  C   UNL     1       1.873   5.373  18.437  0.00  0.00    +0.000 A 
ATOM      7  C   UNL     1       2.322   4.228  17.784  0.00  0.00    +0.000 A 
ATOM      8  C   UNL     1       3.593   4.209  17.222  0.00  0.00    +0.000 A 
ATOM      9  C   UNL     1       4.407   5.347  17.296  0.00  0.00    +0.000 A 
ATOM     10  C   UNL     1       3.940   6.526  17.902  0.00  0.00    +0.000 A 
BRANCH   9  11
ATOM     11  S   UNL     1       6.081   5.198  16.718  0.00  0.00    +0.000 S 
ATOM     12  O   UNL     1       6.465   6.486  16.178  0.00  0.00    +0.000 OA
ATOM     13  O   UNL     1       6.887   4.586  17.756  0.00  0.00    +0.000 OA
BRANCH  11  14
ATOM     14  N   UNL     1       6.097   4.141  15.427  0.00  0.00    +0.000 N 
ATOM     15  C   UNL     1       6.608   4.420  14.167  0.00  0.00    +0.000 C 
ATOM     16  N   UNL     1       7.527   5.301  13.967  0.00  0.00    +0.000 NA
ATOM     17  C   UNL     1       7.805   5.273  12.525  0.00  0.00    +0.000 C 
ATOM     18  C   UNL     1       7.194   3.985  12.001  0.00  0.00    +0.000 C 
ATOM     19  C   UNL     1       6.081   3.693  12.979  0.00  0.00    +0.000 C 
ATOM     20  H   UNL     1       5.436   3.383  15.565  0.00  0.00    +0.000 HD
ENDBRANCH  11  14
ENDBRANCH   9  11
ENDBRANCH   3   5
BRANCH   1  21
ATOM     21  C   UNL     1       1.174   9.873  19.464  0.00  0.00    +0.000 C 
BRANCH  21  30
ATOM     22  C   UNL     1       0.487  12.226  18.817  0.00  0.00    +0.000 A 
ATOM     23  N   UNL     1      -0.576  12.841  18.339  0.00  0.00    +0.000 NA
ATOM     24  C   UNL     1      -1.491  11.866  18.070  0.00  0.00    +0.000 A 
ATOM     25  C   UNL     1      -2.802  11.997  17.586  0.00  0.00    +0.000 A 
ATOM     26  C   UNL     1      -3.565  10.847  17.394  0.00  0.00    +0.000 A 
ATOM     27  C   UNL     1      -3.037   9.589  17.684  0.00  0.00    +0.000 A 
ATOM     28  C   UNL     1      -1.732   9.437  18.175  0.00  0.00    +0.000 A 
ATOM     29  C   UNL     1      -0.976  10.603  18.358  0.00  0.00    +0.000 A 
ATOM     30  N   UNL     1       0.297  10.855  18.841  0.00  0.00    +0.000 N 
BRANCH  22  32
ATOM     31  C   UNL     1       2.709  13.156  18.162  0.00  0.00    +0.000 C 
ATOM     32  C   UNL     1       1.711  12.941  19.290  0.00  0.00    +0.000 C 
ENDBRANCH  22  32
ENDBRANCH  21  30
ENDBRANCH   1  21
TORSDOF 6
ENDMDL
MODEL 9
REMARK VINA RESULT:      -8.5      2.308      3.941
REMARK  Name = 
REMARK  7 active torsions:
REMARK  status: ('A' for Active; 'I' for Inactive)
REMARK    1  A    between atoms: C_1  and  C_2
REMARK    2  A    between atoms: C_2  and  C_3
REMARK    3  A    between atoms: N_11  and  C_12
REMARK    4  A    between atoms: C_12  and  C_13
REMARK    5  A    between atoms: N_15  and  C_16
REMARK    6  A    between atoms: C_20  and  S_21
REMARK    7  A    between atoms: S_21  and  N_24
REMARK                            x       y       z     vdW  Elec       q    Type
REMARK                         _______ _______ _______ _____ _____    ______ ____
ROOT
ATOM      1  C   UNL     1       2.593   7.614  18.504  0.00  0.00    +0.000 C 
ATOM      2  O   UNL     1       2.295   7.420  19.680  0.00  0.00    +0.000 OA
ATOM      3  N   UNL     1       2.052   8.611  17.706  0.00  0.00    +0.000 N 
ATOM      4  H   UNL     1       2.020   8.397  16.716  0.00  0.00    +0.000 HD
ENDROOT
BRANCH   3   5
ATOM      5  C   UNL     1       1.082   9.533  18.157  0.00  0.00    +0.000 A 
ATOM      6  C   UNL     1       1.451  10.343  19.240  0.00  0.00    +0.000 A 
ATOM      7  C   UNL     1       0.571  11.292  19.753  0.00  0.00    +0.000 A 
ATOM      8  C   UNL     1      -0.715  11.391  19.235  0.00  0.00    +0.000 A 
ATOM      9  C   UNL     1      -1.111  10.552  18.184  0.00  0.00    +0.000 A 
ATOM     10  C   UNL     1      -0.211   9.631  17.621  0.00  0.00    +0.000 A 
BRANCH   9  11
ATOM     11  S   UNL     1      -2.818  10.606  17.690  0.00  0.00    +0.000 S 
ATOM     12  O   UNL     1      -2.884  11.362  16.457  0.00  0.00    +0.000 OA
ATOM     13  O   UNL     1      -3.368   9.266  17.740  0.00  0.00    +0.000 OA
BRANCH  11  14
ATOM     14  N   UNL     1      -3.661  11.502  18.817  0.00  0.00    +0.000 N 
ATOM     15  C   UNL     1      -4.993  11.877  18.711  0.00  0.00    +0.000 C 
ATOM     16  N   UNL     1      -5.850  11.216  18.012  0.00  0.00    +0.000 NA
ATOM     17  C   UNL     1      -7.131  11.913  18.181  0.00  0.00    +0.000 C 
ATOM     18  C   UNL     1      -6.961  12.829  19.380  0.00  0.00    +0.000 C 
ATOM     19  C   UNL     1      -5.474  13.097  19.417  0.00  0.00    +0.000 C 
ATOM     20  H   UNL     1      -3.030  11.992  19.444  0.00  0.00    +0.000 HD
ENDBRANCH  11  14
ENDBRANCH   9  11
ENDBRANCH   3   5
BRANCH   1  21
ATOM     21  C   UNL     1       3.631   6.755  17.801  0.00  0.00    +0.000 C 
BRANCH  21  30
ATOM     22  C   UNL     1       5.156   5.028  18.858  0.00  0.00    +0.000 A 
ATOM     23  N   UNL     1       5.097   3.766  19.234  0.00  0.00    +0.000 NA
ATOM     24  C   UNL     1       3.805   3.371  19.041  0.00  0.00    +0.000 A 
ATOM     25  C   UNL     1       3.230   2.108  19.245  0.00  0.00    +0.000 A 
ATOM     26  C   UNL     1       1.875   1.934  18.969  0.00  0.00    +0.000 A 
ATOM     27  C   UNL     1       1.107   2.997  18.491  0.00  0.00    +0.000 A 
ATOM     28  C   UNL     1       1.664   4.265  18.273  0.00  0.00    +0.000 A 
ATOM     29  C   UNL     1       3.027   4.424  18.562  0.00  0.00    +0.000 A 
ATOM     30  N   UNL     1       3.915   5.481  18.447  0.00  0.00    +0.000 N 
BRANCH  22  32
ATOM     31  C   UNL     1       7.524   5.145  18.075  0.00  0.00    +0.000 C 
ATOM     32  C   UNL     1       6.417   5.831  18.861  0.00  0.00    +0.000 C 
ENDBRANCH  22  32
ENDBRANCH  21  30
ENDBRANCH   1  21
TORSDOF 6
ENDMDL
