MODEL 1
REMARK VINA RESULT:      -8.4      0.000      0.000
REMARK  Name = 
REMARK  3 active torsions:
REMARK  status: ('A' for Active; 'I' for Inactive)
REMARK    1  A    between atoms: C_2  and  C_15
REMARK    2  A    between atoms: N_3  and  C_4
REMARK    3  A    between atoms: C_8  and  N_9
REMARK                            x       y       z     vdW  Elec       q    Type
REMARK                         _______ _______ _______ _____ _____    ______ ____
ROOT
ATOM      1  O   UNL     1       5.823   4.213  18.861  0.00  0.00    +0.000 OA
ATOM      2  C   UNL     1       5.251   4.615  17.852  0.00  0.00    +0.000 C 
ATOM      3  N   UNL     1       3.943   5.069  17.770  0.00  0.00    +0.000 N 
ATOM      4  H   UNL     1       3.612   5.254  16.826  0.00  0.00    +0.000 HD
ENDROOT
BRANCH   2   5
ATOM      5  C   UNL     1       5.997   4.635  16.559  0.00  0.00    +0.000 A 
ATOM      6  C   UNL     1       7.021   5.544  16.371  0.00  0.00    +0.000 A 
ATOM      7  N   UNL     1       7.650   5.692  15.179  0.00  0.00    +0.000 NA
ATOM      8  C   UNL     1       7.195   4.933  14.164  0.00  0.00    +0.000 A 
ATOM      9  C   UNL     1       7.723   5.111  12.892  0.00  0.00    +0.000 A 
ATOM     10  C   UNL     1       7.237   4.393  11.798  0.00  0.00    +0.000 A 
ATOM     11  C   UNL     1       6.229   3.457  11.988  0.00  0.00    +0.000 A 
ATOM     12  C   UNL     1       5.710   3.249  13.269  0.00  0.00    +0.000 A 
ATOM     13  C   UNL     1       6.155   3.982  14.362  0.00  0.00    +0.000 A 
ATOM     14  N   UNL     1       5.567   3.808  15.567  0.00  0.00    +0.000 NA
ENDBRANCH   2   5
BRANCH   3  15
ATOM     15  C   UNL     1       3.050   5.304  18.840  0.00  0.00    +0.000 A 
ATOM     16  C   UNL     1       2.535   4.282  19.640  0.00  0.00    +0.000 A 
ATOM     17  C   UNL     1       1.681   4.570  20.709  0.00  0.00    +0.000 A 
ATOM     18  C   UNL     1       1.326   5.886  20.995  0.00  0.00    +0.000 A 
ATOM     19  C   UNL     1       1.839   6.926  20.209  0.00  0.00    +0.000 A 
ATOM     20  C   UNL     1       2.699   6.629  19.131  0.00  0.00    +0.000 A 
BRANCH  19  21
ATOM     21  N   UNL     1       1.505   8.272  20.501  0.00  0.00    +0.000 N 
ATOM     22  C   UNL     1       1.206   9.303  19.645  0.00  0.00    +0.000 A 
ATOM     23  N   UNL     1       0.945  10.387  20.339  0.00  0.00    +0.000 NA
ATOM     24  N   UNL     1       1.084  10.026  21.653  0.00  0.00    +0.000 NA
ATOM     25  N   UNL     1       1.420   8.746  21.766  0.00  0.00    +0.000 NA
ENDBRANCH  19  21
ENDBRANCH   3  15
TORSDOF 3
ENDMDL
MODEL 2
REMARK VINA RESULT:      -8.3      2.516      8.720
REMARK  Name = 
REMARK  3 active torsions:
REMARK  status: ('A' for Active; 'I' for Inactive)
REMARK    1  A    between atoms: C_2  and  C_15
REMARK    2  A    between atoms: N_3  and  C_4
REMARK    3  A    between atoms: C_8  and  N_9
REMARK                            x       y       z     vdW  Elec       q    Type
REMARK                         _______ _______ _______ _____ _____    ______ ____
ROOT
ATOM      1  O   UNL     1       1.427   6.477  21.162  0.00  0.00    +0.000 OA
ATOM      2  C   UNL     1       1.665   7.375  20.360  0.00  0.00    +0.000 C 
ATOM      3  N   UNL     1       2.327   7.246  19.148  0.00  0.00    +0.000 N 
ATOM      4  H   UNL     1       2.528   8.124  18.674  0.00  0.00    +0.000 HD
ENDROOT
BRANCH   2   5
ATOM      5  C   UNL     1       1.215   8.763  20.676  0.00  0.00    +0.000 A 
ATOM      6  C   UNL     1       1.111   9.169  21.993  0.00  0.00    +0.000 A 
ATOM      7  N   UNL     1       0.592  10.371  22.343  0.00  0.00    +0.000 NA
ATOM      8  C   UNL     1       0.139  11.143  21.337  0.00  0.00    +0.000 A 
ATOM      9  C   UNL     1      -0.501  12.340  21.633  0.00  0.00    +0.000 A 
ATOM     10  C   UNL     1      -1.044  13.140  20.627  0.00  0.00    +0.000 A 
ATOM     11  C   UNL     1      -0.915  12.751  19.300  0.00  0.00    +0.000 A 
ATOM     12  C   UNL     1      -0.249  11.564  18.988  0.00  0.00    +0.000 A 
ATOM     13  C   UNL     1       0.264  10.735  19.979  0.00  0.00    +0.000 A 
ATOM     14  N   UNL     1       0.828   9.555  19.638  0.00  0.00    +0.000 NA
ENDBRANCH   2   5
BRANCH   3  15
ATOM     15  C   UNL     1       2.734   6.048  18.518  0.00  0.00    +0.000 A 
ATOM     16  C   UNL     1       1.838   5.053  18.123  0.00  0.00    +0.000 A 
ATOM     17  C   UNL     1       2.288   3.901  17.471  0.00  0.00    +0.000 A 
ATOM     18  C   UNL     1       3.644   3.724  17.205  0.00  0.00    +0.000 A 
ATOM     19  C   UNL     1       4.557   4.714  17.586  0.00  0.00    +0.000 A 
ATOM     20  C   UNL     1       4.097   5.875  18.244  0.00  0.00    +0.000 A 
BRANCH  19  21
ATOM     21  N   UNL     1       5.937   4.560  17.302  0.00  0.00    +0.000 N 
ATOM     22  C   UNL     1       6.583   4.532  16.091  0.00  0.00    +0.000 A 
ATOM     23  N   UNL     1       7.872   4.380  16.285  0.00  0.00    +0.000 NA
ATOM     24  N   UNL     1       8.036   4.313  17.643  0.00  0.00    +0.000 NA
ATOM     25  N   UNL     1       6.872   4.424  18.272  0.00  0.00    +0.000 NA
ENDBRANCH  19  21
ENDBRANCH   3  15
TORSDOF 3
ENDMDL
MODEL 3
REMARK VINA RESULT:      -8.2      2.559      8.911
REMARK  Name = 
REMARK  3 active torsions:
REMARK  status: ('A' for Active; 'I' for Inactive)
REMARK    1  A    between atoms: C_2  and  C_15
REMARK    2  A    between atoms: N_3  and  C_4
REMARK    3  A    between atoms: C_8  and  N_9
REMARK                            x       y       z     vdW  Elec       q    Type
REMARK                         _______ _______ _______ _____ _____    ______ ____
ROOT
ATOM      1  O   UNL     1       2.341   8.637  18.014  0.00  0.00    +0.000 OA
ATOM      2  C   UNL     1       1.918   8.060  19.011  0.00  0.00    +0.000 C 
ATOM      3  N   UNL     1       1.950   6.695  19.250  0.00  0.00    +0.000 N 
ATOM      4  H   UNL     1       1.449   6.394  20.083  0.00  0.00    +0.000 HD
ENDROOT
BRANCH   2   5
ATOM      5  C   UNL     1       1.299   8.867  20.104  0.00  0.00    +0.000 A 
ATOM      6  C   UNL     1       1.401   8.440  21.415  0.00  0.00    +0.000 A 
ATOM      7  N   UNL     1       0.757   9.063  22.432  0.00  0.00    +0.000 NA
ATOM      8  C   UNL     1      -0.029  10.103  22.096  0.00  0.00    +0.000 A 
ATOM      9  C   UNL     1      -0.800  10.718  23.074  0.00  0.00    +0.000 A 
ATOM     10  C   UNL     1      -1.677  11.756  22.760  0.00  0.00    +0.000 A 
ATOM     11  C   UNL     1      -1.760  12.208  21.450  0.00  0.00    +0.000 A 
ATOM     12  C   UNL     1      -0.969  11.616  20.462  0.00  0.00    +0.000 A 
ATOM     13  C   UNL     1      -0.118  10.556  20.749  0.00  0.00    +0.000 A 
ATOM     14  N   UNL     1       0.567   9.958  19.749  0.00  0.00    +0.000 NA
ENDBRANCH   2   5
BRANCH   3  15
ATOM     15  C   UNL     1       2.598   5.705  18.477  0.00  0.00    +0.000 A 
ATOM     16  C   UNL     1       2.031   4.458  18.204  0.00  0.00    +0.000 A 
ATOM     17  C   UNL     1       2.699   3.526  17.404  0.00  0.00    +0.000 A 
ATOM     18  C   UNL     1       3.947   3.826  16.863  0.00  0.00    +0.000 A 
ATOM     19  C   UNL     1       4.529   5.074  17.118  0.00  0.00    +0.000 A 
ATOM     20  C   UNL     1       3.851   6.010  17.926  0.00  0.00    +0.000 A 
BRANCH  19  21
ATOM     21  N   UNL     1       5.788   5.403  16.556  0.00  0.00    +0.000 N 
ATOM     22  C   UNL     1       6.461   4.814  15.514  0.00  0.00    +0.000 A 
ATOM     23  N   UNL     1       7.596   5.444  15.315  0.00  0.00    +0.000 NA
ATOM     24  N   UNL     1       7.633   6.444  16.249  0.00  0.00    +0.000 NA
ATOM     25  N   UNL     1       6.542   6.434  17.006  0.00  0.00    +0.000 NA
ENDBRANCH  19  21
ENDBRANCH   3  15
TORSDOF 3
ENDMDL
MODEL 4
REMARK VINA RESULT:      -8.1      2.768      8.936
REMARK  Name = 
REMARK  3 active torsions:
REMARK  status: ('A' for Active; 'I' for Inactive)
REMARK    1  A    between atoms: C_2  and  C_15
REMARK    2  A    between atoms: N_3  and  C_4
REMARK    3  A    between atoms: C_8  and  N_9
REMARK                            x       y       z     vdW  Elec       q    Type
REMARK                         _______ _______ _______ _____ _____    ______ ____
ROOT
ATOM      1  O   UNL     1       2.141   8.109  18.683  0.00  0.00    +0.000 OA
ATOM      2  C   UNL     1       1.841   7.857  19.846  0.00  0.00    +0.000 C 
ATOM      3  N   UNL     1       2.074   6.667  20.518  0.00  0.00    +0.000 N 
ATOM      4  H   UNL     1       1.652   6.607  21.442  0.00  0.00    +0.000 HD
ENDROOT
BRANCH   2   5
ATOM      5  C   UNL     1       1.157   8.905  20.659  0.00  0.00    +0.000 A 
ATOM      6  C   UNL     1       1.245   8.871  22.038  0.00  0.00    +0.000 A 
ATOM      7  N   UNL     1       0.545   9.720  22.831  0.00  0.00    +0.000 NA
ATOM      8  C   UNL     1      -0.280  10.580  22.204  0.00  0.00    +0.000 A 
ATOM      9  C   UNL     1      -1.104  11.405  22.960  0.00  0.00    +0.000 A 
ATOM     10  C   UNL     1      -2.021  12.265  22.355  0.00  0.00    +0.000 A 
ATOM     11  C   UNL     1      -2.091  12.324  20.970  0.00  0.00    +0.000 A 
ATOM     12  C   UNL     1      -1.247  11.521  20.199  0.00  0.00    +0.000 A 
ATOM     13  C   UNL     1      -0.355  10.630  20.784  0.00  0.00    +0.000 A 
ATOM     14  N   UNL     1       0.383   9.812  20.002  0.00  0.00    +0.000 NA
ENDBRANCH   2   5
BRANCH   3  15
ATOM     15  C   UNL     1       2.825   5.559  20.064  0.00  0.00    +0.000 A 
ATOM     16  C   UNL     1       2.480   4.236  20.348  0.00  0.00    +0.000 A 
ATOM     17  C   UNL     1       3.238   3.174  19.845  0.00  0.00    +0.000 A 
ATOM     18  C   UNL     1       4.354   3.417  19.049  0.00  0.00    +0.000 A 
ATOM     19  C   UNL     1       4.711   4.737  18.745  0.00  0.00    +0.000 A 
ATOM     20  C   UNL     1       3.944   5.805  19.256  0.00  0.00    +0.000 A 
BRANCH  19  21
ATOM     21  N   UNL     1       5.831   5.001  17.917  0.00  0.00    +0.000 N 
ATOM     22  C   UNL     1       5.968   5.908  16.895  0.00  0.00    +0.000 A 
ATOM     23  N   UNL     1       7.181   5.829  16.399  0.00  0.00    +0.000 NA
ATOM     24  N   UNL     1       7.814   4.855  17.126  0.00  0.00    +0.000 NA
ATOM     25  N   UNL     1       7.009   4.348  18.051  0.00  0.00    +0.000 NA
ENDBRANCH  19  21
ENDBRANCH   3  15
TORSDOF 3
ENDMDL
MODEL 5
REMARK VINA RESULT:      -8.1      3.940      6.777
REMARK  Name = 
REMARK  3 active torsions:
REMARK  status: ('A' for Active; 'I' for Inactive)
REMARK    1  A    between atoms: C_2  and  C_15
REMARK    2  A    between atoms: N_3  and  C_4
REMARK    3  A    between atoms: C_8  and  N_9
REMARK                            x       y       z     vdW  Elec       q    Type
REMARK                         _______ _______ _______ _____ _____    ______ ____
ROOT
ATOM      1  O   UNL     1       2.434   8.902  17.191  0.00  0.00    +0.000 OA
ATOM      2  C   UNL     1       2.140   8.469  18.301  0.00  0.00    +0.000 C 
ATOM      3  N   UNL     1       1.329   9.089  19.240  0.00  0.00    +0.000 N 
ATOM      4  H   UNL     1       1.294   8.628  20.147  0.00  0.00    +0.000 HD
ENDROOT
BRANCH   2   5
ATOM      5  C   UNL     1       2.686   7.148  18.729  0.00  0.00    +0.000 A 
ATOM      6  C   UNL     1       3.649   6.521  17.961  0.00  0.00    +0.000 A 
ATOM      7  N   UNL     1       4.091   5.268  18.232  0.00  0.00    +0.000 NA
ATOM      8  C   UNL     1       3.510   4.640  19.272  0.00  0.00    +0.000 A 
ATOM      9  C   UNL     1       3.840   3.317  19.539  0.00  0.00    +0.000 A 
ATOM     10  C   UNL     1       3.215   2.607  20.565  0.00  0.00    +0.000 A 
ATOM     11  C   UNL     1       2.270   3.243  21.359  0.00  0.00    +0.000 A 
ATOM     12  C   UNL     1       1.951   4.582  21.118  0.00  0.00    +0.000 A 
ATOM     13  C   UNL     1       2.534   5.293  20.076  0.00  0.00    +0.000 A 
ATOM     14  N   UNL     1       2.136   6.560  19.827  0.00  0.00    +0.000 NA
ENDBRANCH   2   5
BRANCH   3  15
ATOM     15  C   UNL     1       0.560  10.262  19.066  0.00  0.00    +0.000 A 
ATOM     16  C   UNL     1       0.930  11.501  19.594  0.00  0.00    +0.000 A 
ATOM     17  C   UNL     1       0.151  12.639  19.364  0.00  0.00    +0.000 A 
ATOM     18  C   UNL     1      -1.012  12.557  18.602  0.00  0.00    +0.000 A 
ATOM     19  C   UNL     1      -1.395  11.326  18.057  0.00  0.00    +0.000 A 
ATOM     20  C   UNL     1      -0.606  10.180  18.293  0.00  0.00    +0.000 A 
BRANCH  19  21
ATOM     21  N   UNL     1      -2.564  11.230  17.261  0.00  0.00    +0.000 N 
ATOM     22  C   UNL     1      -2.701  10.838  15.952  0.00  0.00    +0.000 A 
ATOM     23  N   UNL     1      -3.967  10.886  15.611  0.00  0.00    +0.000 NA
ATOM     24  N   UNL     1      -4.635  11.314  16.727  0.00  0.00    +0.000 NA
ATOM     25  N   UNL     1      -3.798  11.523  17.735  0.00  0.00    +0.000 NA
ENDBRANCH  19  21
ENDBRANCH   3  15
TORSDOF 3
ENDMDL
MODEL 6
REMARK VINA RESULT:      -8.1      2.461      8.703
REMARK  Name = 
REMARK  3 active torsions:
REMARK  status: ('A' for Active; 'I' for Inactive)
REMARK    1  A    between atoms: C_2  and  C_15
REMARK    2  A    between atoms: N_3  and  C_4
REMARK    3  A    between atoms: C_8  and  N_9
REMARK                            x       y       z     vdW  Elec       q    Type
REMARK                         _______ _______ _______ _____ _____    ______ ____
ROOT
ATOM      1  O   UNL     1       2.916   7.883  18.238  0.00  0.00    +0.000 OA
ATOM      2  C   UNL     1       2.223   7.700  19.234  0.00  0.00    +0.000 C 
ATOM      3  N   UNL     1       2.146   6.535  19.983  0.00  0.00    +0.000 N 
ATOM      4  H   UNL     1       1.431   6.538  20.707  0.00  0.00    +0.000 HD
ENDROOT
BRANCH   2   5
ATOM      5  C   UNL     1       1.359   8.813  19.727  0.00  0.00    +0.000 A 
ATOM      6  C   UNL     1       1.314  10.007  19.033  0.00  0.00    +0.000 A 
ATOM      7  N   UNL     1       0.647  11.092  19.498  0.00  0.00    +0.000 NA
ATOM      8  C   UNL     1       0.057  10.961  20.702  0.00  0.00    +0.000 A 
ATOM      9  C   UNL     1      -0.553  12.065  21.284  0.00  0.00    +0.000 A 
ATOM     10  C   UNL     1      -1.119  11.993  22.558  0.00  0.00    +0.000 A 
ATOM     11  C   UNL     1      -1.104  10.786  23.245  0.00  0.00    +0.000 A 
ATOM     12  C   UNL     1      -0.519   9.662  22.657  0.00  0.00    +0.000 A 
ATOM     13  C   UNL     1       0.084   9.725  21.407  0.00  0.00    +0.000 A 
ATOM     14  N   UNL     1       0.712   8.635  20.912  0.00  0.00    +0.000 NA
ENDBRANCH   2   5
BRANCH   3  15
ATOM     15  C   UNL     1       2.947   5.378  19.851  0.00  0.00    +0.000 A 
ATOM     16  C   UNL     1       2.641   4.165  20.472  0.00  0.00    +0.000 A 
ATOM     17  C   UNL     1       3.448   3.039  20.281  0.00  0.00    +0.000 A 
ATOM     18  C   UNL     1       4.576   3.108  19.467  0.00  0.00    +0.000 A 
ATOM     19  C   UNL     1       4.895   4.313  18.829  0.00  0.00    +0.000 A 
ATOM     20  C   UNL     1       4.077   5.446  19.025  0.00  0.00    +0.000 A 
BRANCH  19  21
ATOM     21  N   UNL     1       6.026   4.393  17.979  0.00  0.00    +0.000 N 
ATOM     22  C   UNL     1       6.086   4.479  16.610  0.00  0.00    +0.000 A 
ATOM     23  N   UNL     1       7.341   4.545  16.230  0.00  0.00    +0.000 NA
ATOM     24  N   UNL     1       8.079   4.500  17.383  0.00  0.00    +0.000 NA
ATOM     25  N   UNL     1       7.295   4.412  18.451  0.00  0.00    +0.000 NA
ENDBRANCH  19  21
ENDBRANCH   3  15
TORSDOF 3
ENDMDL
MODEL 7
REMARK VINA RESULT:      -8.0      2.687      8.624
REMARK  Name = 
REMARK  3 active torsions:
REMARK  status: ('A' for Active; 'I' for Inactive)
REMARK    1  A    between atoms: C_2  and  C_15
REMARK    2  A    between atoms: N_3  and  C_4
REMARK    3  A    between atoms: C_8  and  N_9
REMARK                            x       y       z     vdW  Elec       q    Type
REMARK                         _______ _______ _______ _____ _____    ______ ____
ROOT
ATOM      1  O   UNL     1       2.566   8.596  17.213  0.00  0.00    +0.000 OA
ATOM      2  C   UNL     1       2.046   8.305  18.285  0.00  0.00    +0.000 C 
ATOM      3  N   UNL     1       1.923   7.033  18.825  0.00  0.00    +0.000 N 
ATOM      4  H   UNL     1       1.360   6.980  19.671  0.00  0.00    +0.000 HD
ENDROOT
BRANCH   2   5
ATOM      5  C   UNL     1       1.473   9.395  19.129  0.00  0.00    +0.000 A 
ATOM      6  C   UNL     1       1.025   9.112  20.406  0.00  0.00    +0.000 A 
ATOM      7  N   UNL     1       0.385  10.030  21.170  0.00  0.00    +0.000 NA
ATOM      8  C   UNL     1       0.166  11.233  20.604  0.00  0.00    +0.000 A 
ATOM      9  C   UNL     1      -0.576  12.184  21.292  0.00  0.00    +0.000 A 
ATOM     10  C   UNL     1      -0.883  13.418  20.719  0.00  0.00    +0.000 A 
ATOM     11  C   UNL     1      -0.409  13.718  19.448  0.00  0.00    +0.000 A 
ATOM     12  C   UNL     1       0.364  12.781  18.758  0.00  0.00    +0.000 A 
ATOM     13  C   UNL     1       0.646  11.531  19.298  0.00  0.00    +0.000 A 
ATOM     14  N   UNL     1       1.326  10.624  18.563  0.00  0.00    +0.000 NA
ENDBRANCH   2   5
BRANCH   3  15
ATOM     15  C   UNL     1       2.492   5.836  18.334  0.00  0.00    +0.000 A 
ATOM     16  C   UNL     1       1.729   4.751  17.901  0.00  0.00    +0.000 A 
ATOM     17  C   UNL     1       2.341   3.602  17.391  0.00  0.00    +0.000 A 
ATOM     18  C   UNL     1       3.729   3.519  17.308  0.00  0.00    +0.000 A 
ATOM     19  C   UNL     1       4.512   4.600  17.729  0.00  0.00    +0.000 A 
ATOM     20  C   UNL     1       3.889   5.757  18.243  0.00  0.00    +0.000 A 
BRANCH  19  21
ATOM     21  N   UNL     1       5.925   4.541  17.630  0.00  0.00    +0.000 N 
ATOM     22  C   UNL     1       6.719   4.454  16.514  0.00  0.00    +0.000 A 
ATOM     23  N   UNL     1       7.981   4.434  16.875  0.00  0.00    +0.000 NA
ATOM     24  N   UNL     1       7.975   4.510  18.243  0.00  0.00    +0.000 NA
ATOM     25  N   UNL     1       6.736   4.579  18.713  0.00  0.00    +0.000 NA
ENDBRANCH  19  21
ENDBRANCH   3  15
TORSDOF 3
ENDMDL
MODEL 8
REMARK VINA RESULT:      -7.9      2.640      9.079
REMARK  Name = 
REMARK  3 active torsions:
REMARK  status: ('A' for Active; 'I' for Inactive)
REMARK    1  A    between atoms: C_2  and  C_15
REMARK    2  A    between atoms: N_3  and  C_4
REMARK    3  A    between atoms: C_8  and  N_9
REMARK                            x       y       z     vdW  Elec       q    Type
REMARK                         _______ _______ _______ _____ _____    ______ ____
ROOT
ATOM      1  O   UNL     1       1.491   7.068  20.976  0.00  0.00    +0.000 OA
ATOM      2  C   UNL     1       1.533   7.859  20.038  0.00  0.00    +0.000 C 
ATOM      3  N   UNL     1       2.079   7.626  18.785  0.00  0.00    +0.000 N 
ATOM      4  H   UNL     1       2.121   8.441  18.177  0.00  0.00    +0.000 HD
ENDROOT
BRANCH   2   5
ATOM      5  C   UNL     1       0.950   9.222  20.217  0.00  0.00    +0.000 A 
ATOM      6  C   UNL     1       1.278  10.230  19.331  0.00  0.00    +0.000 A 
ATOM      7  N   UNL     1       0.879  11.514  19.512  0.00  0.00    +0.000 NA
ATOM      8  C   UNL     1       0.175  11.769  20.632  0.00  0.00    +0.000 A 
ATOM      9  C   UNL     1      -0.173  13.079  20.932  0.00  0.00    +0.000 A 
ATOM     10  C   UNL     1      -0.845  13.399  22.113  0.00  0.00    +0.000 A 
ATOM     11  C   UNL     1      -1.204  12.384  22.990  0.00  0.00    +0.000 A 
ATOM     12  C   UNL     1      -0.884  11.059  22.685  0.00  0.00    +0.000 A 
ATOM     13  C   UNL     1      -0.181  10.727  21.533  0.00  0.00    +0.000 A 
ATOM     14  N   UNL     1       0.181   9.442  21.318  0.00  0.00    +0.000 NA
ENDBRANCH   2   5
BRANCH   3  15
ATOM     15  C   UNL     1       2.564   6.399  18.278  0.00  0.00    +0.000 A 
ATOM     16  C   UNL     1       1.800   5.231  18.249  0.00  0.00    +0.000 A 
ATOM     17  C   UNL     1       2.314   4.050  17.704  0.00  0.00    +0.000 A 
ATOM     18  C   UNL     1       3.604   4.018  17.179  0.00  0.00    +0.000 A 
ATOM     19  C   UNL     1       4.383   5.182  17.190  0.00  0.00    +0.000 A 
ATOM     20  C   UNL     1       3.859   6.370  17.742  0.00  0.00    +0.000 A 
BRANCH  19  21
ATOM     21  N   UNL     1       5.689   5.172  16.640  0.00  0.00    +0.000 N 
ATOM     22  C   UNL     1       6.714   4.279  16.834  0.00  0.00    +0.000 A 
ATOM     23  N   UNL     1       7.753   4.642  16.119  0.00  0.00    +0.000 NA
ATOM     24  N   UNL     1       7.371   5.782  15.465  0.00  0.00    +0.000 NA
ATOM     25  N   UNL     1       6.122   6.113  15.768  0.00  0.00    +0.000 NA
ENDBRANCH  19  21
ENDBRANCH   3  15
TORSDOF 3
ENDMDL
MODEL 9
REMARK VINA RESULT:      -7.9      2.232      8.827
REMARK  Name = 
REMARK  3 active torsions:
REMARK  status: ('A' for Active; 'I' for Inactive)
REMARK    1  A    between atoms: C_2  and  C_15
REMARK    2  A    between atoms: N_3  and  C_4
REMARK    3  A    between atoms: C_8  and  N_9
REMARK                            x       y       z     vdW  Elec       q    Type
REMARK                         _______ _______ _______ _____ _____    ______ ____
ROOT
ATOM      1  O   UNL     1       1.915   5.848  20.760  0.00  0.00    +0.000 OA
ATOM      2  C   UNL     1       1.994   6.741  19.923  0.00  0.00    +0.000 C 
ATOM      3  N   UNL     1       2.674   6.683  18.715  0.00  0.00    +0.000 N 
ATOM      4  H   UNL     1       2.719   7.563  18.206  0.00  0.00    +0.000 HD
ENDROOT
BRANCH   2   5
ATOM      5  C   UNL     1       1.306   8.040  20.184  0.00  0.00    +0.000 A 
ATOM      6  C   UNL     1       1.507   9.108  19.331  0.00  0.00    +0.000 A 
ATOM      7  N   UNL     1       1.009  10.343  19.585  0.00  0.00    +0.000 NA
ATOM      8  C   UNL     1       0.337  10.491  20.743  0.00  0.00    +0.000 A 
ATOM      9  C   UNL     1      -0.108  11.753  21.115  0.00  0.00    +0.000 A 
ATOM     10  C   UNL     1      -0.751  11.965  22.335  0.00  0.00    +0.000 A 
ATOM     11  C   UNL     1      -0.982  10.889  23.181  0.00  0.00    +0.000 A 
ATOM     12  C   UNL     1      -0.565   9.610  22.805  0.00  0.00    +0.000 A 
ATOM     13  C   UNL     1       0.111   9.387  21.611  0.00  0.00    +0.000 A 
ATOM     14  N   UNL     1       0.571   8.148  21.325  0.00  0.00    +0.000 NA
ENDBRANCH   2   5
BRANCH   3  15
ATOM     15  C   UNL     1       3.287   5.551  18.132  0.00  0.00    +0.000 A 
ATOM     16  C   UNL     1       2.902   4.241  18.423  0.00  0.00    +0.000 A 
ATOM     17  C   UNL     1       3.518   3.156  17.792  0.00  0.00    +0.000 A 
ATOM     18  C   UNL     1       4.532   3.363  16.860  0.00  0.00    +0.000 A 
ATOM     19  C   UNL     1       4.926   4.670  16.547  0.00  0.00    +0.000 A 
ATOM     20  C   UNL     1       4.302   5.761  17.188  0.00  0.00    +0.000 A 
BRANCH  19  21
ATOM     21  N   UNL     1       5.940   4.899  15.584  0.00  0.00    +0.000 N 
ATOM     22  C   UNL     1       5.967   4.576  14.250  0.00  0.00    +0.000 A 
ATOM     23  N   UNL     1       7.100   4.982  13.724  0.00  0.00    +0.000 NA
ATOM     24  N   UNL     1       7.793   5.571  14.748  0.00  0.00    +0.000 NA
ATOM     25  N   UNL     1       7.101   5.531  15.880  0.00  0.00    +0.000 NA
ENDBRANCH  19  21
ENDBRANCH   3  15
TORSDOF 3
ENDMDL
