MODEL 1
REMARK VINA RESULT:      -7.9      0.000      0.000
REMARK  Name = 
REMARK  4 active torsions:
REMARK  status: ('A' for Active; 'I' for Inactive)
REMARK    1  A    between atoms: N_3  and  C_4
REMARK    2  A    between atoms: N_7  and  C_8
REMARK    3  A    between atoms: C_8  and  C_9
REMARK    4  A    between atoms: N_18  and  C_19
REMARK                            x       y       z     vdW  Elec       q    Type
REMARK                         _______ _______ _______ _____ _____    ______ ____
ROOT
ATOM      1  O   UNL     1       0.036  13.520  19.327  0.00  0.00    +0.000 OA
ATOM      2  C   UNL     1       1.137  13.082  19.638  0.00  0.00    +0.000 C 
ATOM      3  N   UNL     1       1.414  11.741  19.777  0.00  0.00    +0.000 N 
ATOM      4  N   UNL     1       2.224  13.881  19.908  0.00  0.00    +0.000 N 
ATOM      5  H   UNL     1       2.383  11.467  19.702  0.00  0.00    +0.000 HD
ATOM      6  H   UNL     1       3.106  13.461  20.160  0.00  0.00    +0.000 HD
ENDROOT
BRANCH   4   7
ATOM      7  C   UNL     1       2.150  15.307  19.786  0.00  0.00    +0.000 C 
ATOM      8  C   UNL     1       2.603  15.983  18.518  0.00  0.00    +0.000 C 
ATOM      9  C   UNL     1       3.512  15.293  17.511  0.00  0.00    +0.000 C 
ATOM     10  C   UNL     1       4.832  15.188  18.240  0.00  0.00    +0.000 A 
ATOM     11  C   UNL     1       6.015  14.657  17.756  0.00  0.00    +0.000 A 
ATOM     12  C   UNL     1       7.132  14.702  18.583  0.00  0.00    +0.000 A 
ATOM     13  F   UNL     1       8.295  14.201  18.142  0.00  0.00    +0.000 F 
ATOM     14  C   UNL     1       7.074  15.262  19.863  0.00  0.00    +0.000 A 
ATOM     15  C   UNL     1       5.869  15.779  20.349  0.00  0.00    +0.000 A 
ATOM     16  C   UNL     1       4.742  15.730  19.540  0.00  0.00    +0.000 A 
ATOM     17  C   UNL     1       3.356  16.218  19.820  0.00  0.00    +0.000 C 
ENDBRANCH   4   7
BRANCH   3  18
ATOM     18  C   UNL     1       0.389  10.740  19.474  0.00  0.00    +0.000 C 
ATOM     19  C   UNL     1       0.152   9.789  20.645  0.00  0.00    +0.000 C 
ATOM     20  C   UNL     1       1.239   8.723  20.782  0.00  0.00    +0.000 C 
ATOM     21  N   UNL     1       1.441   7.980  19.529  0.00  0.00    +0.000 NA
ATOM     22  C   UNL     1       1.789   8.894  18.429  0.00  0.00    +0.000 C 
ATOM     23  C   UNL     1       0.710   9.953  18.201  0.00  0.00    +0.000 C 
BRANCH  21  24
ATOM     24  C   UNL     1       2.495   6.952  19.669  0.00  0.00    +0.000 C 
BRANCH  24  25
ATOM     25  C   UNL     1       2.026   5.535  19.399  0.00  0.00    +0.000 A 
ATOM     26  C   UNL     1       2.137   4.974  18.116  0.00  0.00    +0.000 A 
ATOM     27  C   UNL     1       1.691   3.673  17.870  0.00  0.00    +0.000 A 
ATOM     28  C   UNL     1       1.139   2.931  18.907  0.00  0.00    +0.000 A 
ATOM     29  F   UNL     1       0.700   1.687  18.669  0.00  0.00    +0.000 F 
ATOM     30  C   UNL     1       1.032   3.459  20.188  0.00  0.00    +0.000 A 
ATOM     31  C   UNL     1       1.477   4.759  20.435  0.00  0.00    +0.000 A 
ENDBRANCH  24  25
ENDBRANCH  21  24
ENDBRANCH   3  18
TORSDOF 4
ENDMDL
MODEL 2
REMARK VINA RESULT:      -7.9      4.591      9.813
REMARK  Name = 
REMARK  4 active torsions:
REMARK  status: ('A' for Active; 'I' for Inactive)
REMARK    1  A    between atoms: N_3  and  C_4
REMARK    2  A    between atoms: N_7  and  C_8
REMARK    3  A    between atoms: C_8  and  C_9
REMARK    4  A    between atoms: N_18  and  C_19
REMARK                            x       y       z     vdW  Elec       q    Type
REMARK                         _______ _______ _______ _____ _____    ______ ____
ROOT
ATOM      1  O   UNL     1       2.447   8.646  17.074  0.00  0.00    +0.000 OA
ATOM      2  C   UNL     1       2.233   8.300  18.229  0.00  0.00    +0.000 C 
ATOM      3  N   UNL     1       1.478   9.030  19.118  0.00  0.00    +0.000 N 
ATOM      4  N   UNL     1       2.743   7.149  18.784  0.00  0.00    +0.000 N 
ATOM      5  H   UNL     1       1.087   8.529  19.902  0.00  0.00    +0.000 HD
ATOM      6  H   UNL     1       2.532   6.918  19.743  0.00  0.00    +0.000 HD
ENDROOT
BRANCH   4   7
ATOM      7  C   UNL     1       3.529   6.233  18.011  0.00  0.00    +0.000 C 
ATOM      8  C   UNL     1       2.880   5.035  17.367  0.00  0.00    +0.000 C 
ATOM      9  C   UNL     1       1.525   4.508  17.816  0.00  0.00    +0.000 C 
ATOM     10  C   UNL     1       1.801   3.950  19.193  0.00  0.00    +0.000 A 
ATOM     11  C   UNL     1       0.901   3.323  20.038  0.00  0.00    +0.000 A 
ATOM     12  C   UNL     1       1.380   2.839  21.251  0.00  0.00    +0.000 A 
ATOM     13  F   UNL     1       0.535   2.223  22.089  0.00  0.00    +0.000 F 
ATOM     14  C   UNL     1       2.723   2.976  21.616  0.00  0.00    +0.000 A 
ATOM     15  C   UNL     1       3.619   3.628  20.764  0.00  0.00    +0.000 A 
ATOM     16  C   UNL     1       3.154   4.127  19.554  0.00  0.00    +0.000 A 
ATOM     17  C   UNL     1       3.904   4.845  18.478  0.00  0.00    +0.000 C 
ENDBRANCH   4   7
BRANCH   3  18
ATOM     18  C   UNL     1       0.808  10.259  18.683  0.00  0.00    +0.000 C 
ATOM     19  C   UNL     1       1.441  11.505  19.299  0.00  0.00    +0.000 C 
ATOM     20  C   UNL     1       1.035  11.727  20.755  0.00  0.00    +0.000 C 
ATOM     21  N   UNL     1      -0.427  11.737  20.923  0.00  0.00    +0.000 NA
ATOM     22  C   UNL     1      -1.017  10.478  20.438  0.00  0.00    +0.000 C 
ATOM     23  C   UNL     1      -0.696  10.226  18.964  0.00  0.00    +0.000 C 
BRANCH  21  24
ATOM     24  C   UNL     1      -0.811  11.951  22.335  0.00  0.00    +0.000 C 
BRANCH  24  25
ATOM     25  C   UNL     1      -2.180  12.574  22.522  0.00  0.00    +0.000 A 
ATOM     26  C   UNL     1      -3.000  12.198  23.599  0.00  0.00    +0.000 A 
ATOM     27  C   UNL     1      -4.266  12.766  23.758  0.00  0.00    +0.000 A 
ATOM     28  C   UNL     1      -4.711  13.715  22.845  0.00  0.00    +0.000 A 
ATOM     29  F   UNL     1      -5.931  14.251  22.991  0.00  0.00    +0.000 F 
ATOM     30  C   UNL     1      -3.913  14.114  21.780  0.00  0.00    +0.000 A 
ATOM     31  C   UNL     1      -2.647  13.546  21.620  0.00  0.00    +0.000 A 
ENDBRANCH  24  25
ENDBRANCH  21  24
ENDBRANCH   3  18
TORSDOF 4
ENDMDL
MODEL 3
REMARK VINA RESULT:      -7.6      4.578      9.939
REMARK  Name = 
REMARK  4 active torsions:
REMARK  status: ('A' for Active; 'I' for Inactive)
REMARK    1  A    between atoms: N_3  and  C_4
REMARK    2  A    between atoms: N_7  and  C_8
REMARK    3  A    between atoms: C_8  and  C_9
REMARK    4  A    between atoms: N_18  and  C_19
REMARK                            x       y       z     vdW  Elec       q    Type
REMARK                         _______ _______ _______ _____ _____    ______ ____
ROOT
ATOM      1  O   UNL     1       2.213   8.422  17.137  0.00  0.00    +0.000 OA
ATOM      2  C   UNL     1       2.277   8.137  18.326  0.00  0.00    +0.000 C 
ATOM      3  N   UNL     1       1.736   8.911  19.327  0.00  0.00    +0.000 N 
ATOM      4  N   UNL     1       2.920   7.019  18.806  0.00  0.00    +0.000 N 
ATOM      5  H   UNL     1       1.544   8.450  20.205  0.00  0.00    +0.000 HD
ATOM      6  H   UNL     1       2.940   6.838  19.798  0.00  0.00    +0.000 HD
ENDROOT
BRANCH   4   7
ATOM      7  C   UNL     1       3.522   6.067  17.920  0.00  0.00    +0.000 C 
ATOM      8  C   UNL     1       2.693   4.959  17.324  0.00  0.00    +0.000 C 
ATOM      9  C   UNL     1       1.355   4.539  17.915  0.00  0.00    +0.000 C 
ATOM     10  C   UNL     1       1.734   3.905  19.234  0.00  0.00    +0.000 A 
ATOM     11  C   UNL     1       0.882   3.329  20.161  0.00  0.00    +0.000 A 
ATOM     12  C   UNL     1       1.450   2.758  21.295  0.00  0.00    +0.000 A 
ATOM     13  F   UNL     1       0.653   2.188  22.210  0.00  0.00    +0.000 F 
ATOM     14  C   UNL     1       2.832   2.758  21.502  0.00  0.00    +0.000 A 
ATOM     15  C   UNL     1       3.682   3.359  20.568  0.00  0.00    +0.000 A 
ATOM     16  C   UNL     1       3.129   3.944  19.437  0.00  0.00    +0.000 A 
ATOM     17  C   UNL     1       3.815   4.633  18.300  0.00  0.00    +0.000 C 
ENDBRANCH   4   7
BRANCH   3  18
ATOM     18  C   UNL     1       0.964  10.111  18.998  0.00  0.00    +0.000 C 
ATOM     19  C   UNL     1       1.456  11.337  19.765  0.00  0.00    +0.000 C 
ATOM     20  C   UNL     1       0.987  11.362  21.219  0.00  0.00    +0.000 C 
ATOM     21  N   UNL     1      -0.473  11.219  21.329  0.00  0.00    +0.000 NA
ATOM     22  C   UNL     1      -0.925   9.971  20.691  0.00  0.00    +0.000 C 
ATOM     23  C   UNL     1      -0.537   9.909  19.214  0.00  0.00    +0.000 C 
BRANCH  21  24
ATOM     24  C   UNL     1      -0.918  11.242  22.739  0.00  0.00    +0.000 C 
BRANCH  24  25
ATOM     25  C   UNL     1      -1.790  12.429  23.100  0.00  0.00    +0.000 A 
ATOM     26  C   UNL     1      -1.244  13.721  23.192  0.00  0.00    +0.000 A 
ATOM     27  C   UNL     1      -2.050  14.807  23.539  0.00  0.00    +0.000 A 
ATOM     28  C   UNL     1      -3.402  14.606  23.786  0.00  0.00    +0.000 A 
ATOM     29  F   UNL     1      -4.174  15.647  24.131  0.00  0.00    +0.000 F 
ATOM     30  C   UNL     1      -3.968  13.341  23.687  0.00  0.00    +0.000 A 
ATOM     31  C   UNL     1      -3.164  12.253  23.341  0.00  0.00    +0.000 A 
ENDBRANCH  24  25
ENDBRANCH  21  24
ENDBRANCH   3  18
TORSDOF 4
ENDMDL
MODEL 4
REMARK VINA RESULT:      -7.4      1.134      1.401
REMARK  Name = 
REMARK  4 active torsions:
REMARK  status: ('A' for Active; 'I' for Inactive)
REMARK    1  A    between atoms: N_3  and  C_4
REMARK    2  A    between atoms: N_7  and  C_8
REMARK    3  A    between atoms: C_8  and  C_9
REMARK    4  A    between atoms: N_18  and  C_19
REMARK                            x       y       z     vdW  Elec       q    Type
REMARK                         _______ _______ _______ _____ _____    ______ ____
ROOT
ATOM      1  O   UNL     1      -0.311  12.818  19.846  0.00  0.00    +0.000 OA
ATOM      2  C   UNL     1       0.834  12.510  20.157  0.00  0.00    +0.000 C 
ATOM      3  N   UNL     1       1.299  11.215  20.171  0.00  0.00    +0.000 N 
ATOM      4  N   UNL     1       1.784  13.422  20.554  0.00  0.00    +0.000 N 
ATOM      5  H   UNL     1       2.299  11.091  20.110  0.00  0.00    +0.000 HD
ATOM      6  H   UNL     1       2.711  13.107  20.799  0.00  0.00    +0.000 HD
ENDROOT
BRANCH   4   7
ATOM      7  C   UNL     1       1.507  14.828  20.575  0.00  0.00    +0.000 C 
ATOM      8  C   UNL     1       1.625  15.642  19.312  0.00  0.00    +0.000 C 
ATOM      9  C   UNL     1       2.412  15.155  18.104  0.00  0.00    +0.000 C 
ATOM     10  C   UNL     1       3.847  15.192  18.578  0.00  0.00    +0.000 A 
ATOM     11  C   UNL     1       4.978  14.867  17.849  0.00  0.00    +0.000 A 
ATOM     12  C   UNL     1       6.214  15.018  18.468  0.00  0.00    +0.000 A 
ATOM     13  F   UNL     1       7.329  14.717  17.787  0.00  0.00    +0.000 F 
ATOM     14  C   UNL     1       6.323  15.480  19.783  0.00  0.00    +0.000 A 
ATOM     15  C   UNL     1       5.173  15.787  20.517  0.00  0.00    +0.000 A 
ATOM     16  C   UNL     1       3.932  15.631  19.916  0.00  0.00    +0.000 A 
ATOM     17  C   UNL     1       2.571  15.897  20.478  0.00  0.00    +0.000 C 
ENDBRANCH   4   7
BRANCH   3  18
ATOM     18  C   UNL     1       0.440  10.116  19.724  0.00  0.00    +0.000 C 
ATOM     19  C   UNL     1       0.719   8.823  20.487  0.00  0.00    +0.000 C 
ATOM     20  C   UNL     1       1.983   8.108  20.013  0.00  0.00    +0.000 C 
ATOM     21  N   UNL     1       1.970   7.874  18.560  0.00  0.00    +0.000 NA
ATOM     22  C   UNL     1       1.823   9.143  17.828  0.00  0.00    +0.000 C 
ATOM     23  C   UNL     1       0.542   9.882  18.215  0.00  0.00    +0.000 C 
BRANCH  21  24
ATOM     24  C   UNL     1       3.198   7.183  18.110  0.00  0.00    +0.000 C 
BRANCH  24  25
ATOM     25  C   UNL     1       3.037   5.687  17.915  0.00  0.00    +0.000 A 
ATOM     26  C   UNL     1       4.136   4.886  17.562  0.00  0.00    +0.000 A 
ATOM     27  C   UNL     1       3.978   3.512  17.371  0.00  0.00    +0.000 A 
ATOM     28  C   UNL     1       2.725   2.936  17.538  0.00  0.00    +0.000 A 
ATOM     29  F   UNL     1       2.571   1.619  17.343  0.00  0.00    +0.000 F 
ATOM     30  C   UNL     1       1.626   3.705  17.901  0.00  0.00    +0.000 A 
ATOM     31  C   UNL     1       1.782   5.079  18.092  0.00  0.00    +0.000 A 
ENDBRANCH  24  25
ENDBRANCH  21  24
ENDBRANCH   3  18
TORSDOF 4
ENDMDL
MODEL 5
REMARK VINA RESULT:      -7.4      0.985      1.288
REMARK  Name = 
REMARK  4 active torsions:
REMARK  status: ('A' for Active; 'I' for Inactive)
REMARK    1  A    between atoms: N_3  and  C_4
REMARK    2  A    between atoms: N_7  and  C_8
REMARK    3  A    between atoms: C_8  and  C_9
REMARK    4  A    between atoms: N_18  and  C_19
REMARK                            x       y       z     vdW  Elec       q    Type
REMARK                         _______ _______ _______ _____ _____    ______ ____
ROOT
ATOM      1  O   UNL     1       0.157  13.385  18.329  0.00  0.00    +0.000 OA
ATOM      2  C   UNL     1       1.140  13.083  18.994  0.00  0.00    +0.000 C 
ATOM      3  N   UNL     1       1.282  11.877  19.642  0.00  0.00    +0.000 N 
ATOM      4  N   UNL     1       2.209  13.925  19.194  0.00  0.00    +0.000 N 
ATOM      5  H   UNL     1       2.224  11.593  19.871  0.00  0.00    +0.000 HD
ATOM      6  H   UNL     1       2.991  13.620  19.755  0.00  0.00    +0.000 HD
ENDROOT
BRANCH   4   7
ATOM      7  C   UNL     1       2.268  15.216  18.576  0.00  0.00    +0.000 C 
ATOM      8  C   UNL     1       3.486  15.624  17.789  0.00  0.00    +0.000 C 
ATOM      9  C   UNL     1       4.825  14.919  17.944  0.00  0.00    +0.000 C 
ATOM     10  C   UNL     1       5.270  15.304  19.336  0.00  0.00    +0.000 A 
ATOM     11  C   UNL     1       6.448  14.945  19.969  0.00  0.00    +0.000 A 
ATOM     12  C   UNL     1       6.680  15.452  21.242  0.00  0.00    +0.000 A 
ATOM     13  F   UNL     1       7.814  15.128  21.880  0.00  0.00    +0.000 F 
ATOM     14  C   UNL     1       5.763  16.298  21.874  0.00  0.00    +0.000 A 
ATOM     15  C   UNL     1       4.567  16.639  21.233  0.00  0.00    +0.000 A 
ATOM     16  C   UNL     1       4.315  16.131  19.966  0.00  0.00    +0.000 A 
ATOM     17  C   UNL     1       3.132  16.351  19.079  0.00  0.00    +0.000 C 
ENDBRANCH   4   7
BRANCH   3  18
ATOM     18  C   UNL     1       0.264  10.834  19.495  0.00  0.00    +0.000 C 
ATOM     19  C   UNL     1       0.198   9.921  20.717  0.00  0.00    +0.000 C 
ATOM     20  C   UNL     1       1.329   8.895  20.762  0.00  0.00    +0.000 C 
ATOM     21  N   UNL     1       1.410   8.112  19.519  0.00  0.00    +0.000 NA
ATOM     22  C   UNL     1       1.597   8.995  18.356  0.00  0.00    +0.000 C 
ATOM     23  C   UNL     1       0.463  10.011  18.220  0.00  0.00    +0.000 C 
BRANCH  21  24
ATOM     24  C   UNL     1       2.508   7.122  19.570  0.00  0.00    +0.000 C 
BRANCH  24  25
ATOM     25  C   UNL     1       2.068   5.689  19.347  0.00  0.00    +0.000 A 
ATOM     26  C   UNL     1       2.228   5.074  18.093  0.00  0.00    +0.000 A 
ATOM     27  C   UNL     1       1.807   3.758  17.891  0.00  0.00    +0.000 A 
ATOM     28  C   UNL     1       1.234   3.052  18.942  0.00  0.00    +0.000 A 
ATOM     29  F   UNL     1       0.819   1.793  18.745  0.00  0.00    +0.000 F 
ATOM     30  C   UNL     1       1.078   3.634  20.195  0.00  0.00    +0.000 A 
ATOM     31  C   UNL     1       1.497   4.950  20.398  0.00  0.00    +0.000 A 
ENDBRANCH  24  25
ENDBRANCH  21  24
ENDBRANCH   3  18
TORSDOF 4
ENDMDL
MODEL 6
REMARK VINA RESULT:      -7.3      1.118      1.698
REMARK  Name = 
REMARK  4 active torsions:
REMARK  status: ('A' for Active; 'I' for Inactive)
REMARK    1  A    between atoms: N_3  and  C_4
REMARK    2  A    between atoms: N_7  and  C_8
REMARK    3  A    between atoms: C_8  and  C_9
REMARK    4  A    between atoms: N_18  and  C_19
REMARK                            x       y       z     vdW  Elec       q    Type
REMARK                         _______ _______ _______ _____ _____    ______ ____
ROOT
ATOM      1  O   UNL     1       0.489  13.442  18.433  0.00  0.00    +0.000 OA
ATOM      2  C   UNL     1       1.601  12.953  18.595  0.00  0.00    +0.000 C 
ATOM      3  N   UNL     1       1.815  11.626  18.890  0.00  0.00    +0.000 N 
ATOM      4  N   UNL     1       2.767  13.678  18.525  0.00  0.00    +0.000 N 
ATOM      5  H   UNL     1       2.730  11.255  18.677  0.00  0.00    +0.000 HD
ATOM      6  H   UNL     1       3.654  13.219  18.669  0.00  0.00    +0.000 HD
ENDROOT
BRANCH   4   7
ATOM      7  C   UNL     1       2.760  15.073  18.196  0.00  0.00    +0.000 C 
ATOM      8  C   UNL     1       4.014  15.737  17.687  0.00  0.00    +0.000 C 
ATOM      9  C   UNL     1       5.393  15.124  17.883  0.00  0.00    +0.000 C 
ATOM     10  C   UNL     1       5.621  15.236  19.373  0.00  0.00    +0.000 A 
ATOM     11  C   UNL     1       6.747  14.845  20.079  0.00  0.00    +0.000 A 
ATOM     12  C   UNL     1       6.768  15.084  21.448  0.00  0.00    +0.000 A 
ATOM     13  F   UNL     1       7.844  14.721  22.160  0.00  0.00    +0.000 F 
ATOM     14  C   UNL     1       5.694  15.697  22.102  0.00  0.00    +0.000 A 
ATOM     15  C   UNL     1       4.555  16.071  21.382  0.00  0.00    +0.000 A 
ATOM     16  C   UNL     1       4.514  15.828  20.016  0.00  0.00    +0.000 A 
ATOM     17  C   UNL     1       3.429  16.139  19.034  0.00  0.00    +0.000 C 
ENDBRANCH   4   7
BRANCH   3  18
ATOM     18  C   UNL     1       0.689  10.691  18.948  0.00  0.00    +0.000 C 
ATOM     19  C   UNL     1       0.549  10.047  20.326  0.00  0.00    +0.000 C 
ATOM     20  C   UNL     1       1.565   8.933  20.573  0.00  0.00    +0.000 C 
ATOM     21  N   UNL     1       1.538   7.918  19.509  0.00  0.00    +0.000 NA
ATOM     22  C   UNL     1       1.796   8.531  18.195  0.00  0.00    +0.000 C 
ATOM     23  C   UNL     1       0.774   9.618  17.860  0.00  0.00    +0.000 C 
BRANCH  21  24
ATOM     24  C   UNL     1       2.526   6.844  19.755  0.00  0.00    +0.000 C 
BRANCH  24  25
ATOM     25  C   UNL     1       2.015   5.447  19.464  0.00  0.00    +0.000 A 
ATOM     26  C   UNL     1       1.413   4.677  20.474  0.00  0.00    +0.000 A 
ATOM     27  C   UNL     1       0.957   3.385  20.203  0.00  0.00    +0.000 A 
ATOM     28  C   UNL     1       1.096   2.863  18.923  0.00  0.00    +0.000 A 
ATOM     29  F   UNL     1       0.670   1.619  18.666  0.00  0.00    +0.000 F 
ATOM     30  C   UNL     1       1.675   3.610  17.904  0.00  0.00    +0.000 A 
ATOM     31  C   UNL     1       2.132   4.902  18.174  0.00  0.00    +0.000 A 
ENDBRANCH  24  25
ENDBRANCH  21  24
ENDBRANCH   3  18
TORSDOF 4
ENDMDL
MODEL 7
REMARK VINA RESULT:      -7.3      4.563      7.197
REMARK  Name = 
REMARK  4 active torsions:
REMARK  status: ('A' for Active; 'I' for Inactive)
REMARK    1  A    between atoms: N_3  and  C_4
REMARK    2  A    between atoms: N_7  and  C_8
REMARK    3  A    between atoms: C_8  and  C_9
REMARK    4  A    between atoms: N_18  and  C_19
REMARK                            x       y       z     vdW  Elec       q    Type
REMARK                         _______ _______ _______ _____ _____    ______ ____
ROOT
ATOM      1  O   UNL     1       1.802   5.659  21.371  0.00  0.00    +0.000 OA
ATOM      2  C   UNL     1       1.943   6.407  20.411  0.00  0.00    +0.000 C 
ATOM      3  N   UNL     1       2.233   5.970  19.139  0.00  0.00    +0.000 N 
ATOM      4  N   UNL     1       1.852   7.777  20.496  0.00  0.00    +0.000 N 
ATOM      5  H   UNL     1       2.003   6.594  18.380  0.00  0.00    +0.000 HD
ATOM      6  H   UNL     1       1.979   8.340  19.669  0.00  0.00    +0.000 HD
ENDROOT
BRANCH   4   7
ATOM      7  C   UNL     1       1.523   8.428  21.729  0.00  0.00    +0.000 C 
ATOM      8  C   UNL     1       0.093   8.789  22.037  0.00  0.00    +0.000 C 
ATOM      9  C   UNL     1      -0.972   8.877  20.954  0.00  0.00    +0.000 C 
ATOM     10  C   UNL     1      -0.561  10.090  20.150  0.00  0.00    +0.000 A 
ATOM     11  C   UNL     1      -1.214  10.629  19.054  0.00  0.00    +0.000 A 
ATOM     12  C   UNL     1      -0.686  11.784  18.489  0.00  0.00    +0.000 A 
ATOM     13  F   UNL     1      -1.297  12.334  17.431  0.00  0.00    +0.000 F 
ATOM     14  C   UNL     1       0.466  12.390  19.001  0.00  0.00    +0.000 A 
ATOM     15  C   UNL     1       1.128  11.827  20.096  0.00  0.00    +0.000 A 
ATOM     16  C   UNL     1       0.619  10.666  20.665  0.00  0.00    +0.000 A 
ATOM     17  C   UNL     1       1.130   9.884  21.833  0.00  0.00    +0.000 C 
ENDBRANCH   4   7
BRANCH   3  18
ATOM     18  C   UNL     1       2.312   4.535  18.851  0.00  0.00    +0.000 C 
ATOM     19  C   UNL     1       3.457   3.861  19.603  0.00  0.00    +0.000 C 
ATOM     20  C   UNL     1       4.825   4.124  18.974  0.00  0.00    +0.000 C 
ATOM     21  N   UNL     1       4.850   3.773  17.546  0.00  0.00    +0.000 NA
ATOM     22  C   UNL     1       3.820   4.521  16.806  0.00  0.00    +0.000 C 
ATOM     23  C   UNL     1       2.416   4.254  17.350  0.00  0.00    +0.000 C 
BRANCH  21  24
ATOM     24  C   UNL     1       6.176   4.031  16.945  0.00  0.00    +0.000 C 
BRANCH  24  25
ATOM     25  C   UNL     1       6.867   5.275  17.468  0.00  0.00    +0.000 A 
ATOM     26  C   UNL     1       6.739   6.505  16.800  0.00  0.00    +0.000 A 
ATOM     27  C   UNL     1       7.390   7.643  17.280  0.00  0.00    +0.000 A 
ATOM     28  C   UNL     1       8.164   7.557  18.431  0.00  0.00    +0.000 A 
ATOM     29  F   UNL     1       8.798   8.647  18.884  0.00  0.00    +0.000 F 
ATOM     30  C   UNL     1       8.295   6.356  19.117  0.00  0.00    +0.000 A 
ATOM     31  C   UNL     1       7.645   5.216  18.638  0.00  0.00    +0.000 A 
ENDBRANCH  24  25
ENDBRANCH  21  24
ENDBRANCH   3  18
TORSDOF 4
ENDMDL
MODEL 8
REMARK VINA RESULT:      -7.2      5.076      8.850
REMARK  Name = 
REMARK  4 active torsions:
REMARK  status: ('A' for Active; 'I' for Inactive)
REMARK    1  A    between atoms: N_3  and  C_4
REMARK    2  A    between atoms: N_7  and  C_8
REMARK    3  A    between atoms: C_8  and  C_9
REMARK    4  A    between atoms: N_18  and  C_19
REMARK                            x       y       z     vdW  Elec       q    Type
REMARK                         _______ _______ _______ _____ _____    ______ ____
ROOT
ATOM      1  O   UNL     1       1.331   5.443  20.462  0.00  0.00    +0.000 OA
ATOM      2  C   UNL     1       1.833   6.394  19.875  0.00  0.00    +0.000 C 
ATOM      3  N   UNL     1       1.775   7.690  20.332  0.00  0.00    +0.000 N 
ATOM      4  N   UNL     1       2.497   6.281  18.675  0.00  0.00    +0.000 N 
ATOM      5  H   UNL     1       2.475   8.328  19.982  0.00  0.00    +0.000 HD
ATOM      6  H   UNL     1       2.889   7.102  18.240  0.00  0.00    +0.000 HD
ENDROOT
BRANCH   4   7
ATOM      7  C   UNL     1       2.695   5.008  18.049  0.00  0.00    +0.000 C 
ATOM      8  C   UNL     1       3.630   3.999  18.664  0.00  0.00    +0.000 C 
ATOM      9  C   UNL     1       4.689   4.390  19.683  0.00  0.00    +0.000 C 
ATOM     10  C   UNL     1       5.673   5.205  18.876  0.00  0.00    +0.000 A 
ATOM     11  C   UNL     1       6.848   5.784  19.326  0.00  0.00    +0.000 A 
ATOM     12  C   UNL     1       7.636   6.456  18.397  0.00  0.00    +0.000 A 
ATOM     13  F   UNL     1       8.782   7.023  18.800  0.00  0.00    +0.000 F 
ATOM     14  C   UNL     1       7.264   6.551  17.053  0.00  0.00    +0.000 A 
ATOM     15  C   UNL     1       6.066   5.979  16.613  0.00  0.00    +0.000 A 
ATOM     16  C   UNL     1       5.263   5.315  17.531  0.00  0.00    +0.000 A 
ATOM     17  C   UNL     1       3.957   4.620  17.312  0.00  0.00    +0.000 C 
ENDBRANCH   4   7
BRANCH   3  18
ATOM     18  C   UNL     1       1.155   7.991  21.625  0.00  0.00    +0.000 C 
ATOM     19  C   UNL     1      -0.362   8.131  21.514  0.00  0.00    +0.000 C 
ATOM     20  C   UNL     1      -0.799   9.471  20.925  0.00  0.00    +0.000 C 
ATOM     21  N   UNL     1      -0.214  10.609  21.651  0.00  0.00    +0.000 NA
ATOM     22  C   UNL     1       1.257  10.530  21.648  0.00  0.00    +0.000 C 
ATOM     23  C   UNL     1       1.762   9.233  22.281  0.00  0.00    +0.000 C 
BRANCH  21  24
ATOM     24  C   UNL     1      -0.640  11.902  21.074  0.00  0.00    +0.000 C 
BRANCH  24  25
ATOM     25  C   UNL     1      -2.051  12.317  21.445  0.00  0.00    +0.000 A 
ATOM     26  C   UNL     1      -2.486  12.272  22.780  0.00  0.00    +0.000 A 
ATOM     27  C   UNL     1      -3.790  12.642  23.113  0.00  0.00    +0.000 A 
ATOM     28  C   UNL     1      -4.659  13.065  22.114  0.00  0.00    +0.000 A 
ATOM     29  F   UNL     1      -5.915  13.409  22.432  0.00  0.00    +0.000 F 
ATOM     30  C   UNL     1      -4.248  13.132  20.789  0.00  0.00    +0.000 A 
ATOM     31  C   UNL     1      -2.944  12.761  20.454  0.00  0.00    +0.000 A 
ENDBRANCH  24  25
ENDBRANCH  21  24
ENDBRANCH   3  18
TORSDOF 4
ENDMDL
MODEL 9
REMARK VINA RESULT:      -7.1      2.446     10.153
REMARK  Name = 
REMARK  4 active torsions:
REMARK  status: ('A' for Active; 'I' for Inactive)
REMARK    1  A    between atoms: N_3  and  C_4
REMARK    2  A    between atoms: N_7  and  C_8
REMARK    3  A    between atoms: C_8  and  C_9
REMARK    4  A    between atoms: N_18  and  C_19
REMARK                            x       y       z     vdW  Elec       q    Type
REMARK                         _______ _______ _______ _____ _____    ______ ____
ROOT
ATOM      1  O   UNL     1       1.683   7.929  17.459  0.00  0.00    +0.000 OA
ATOM      2  C   UNL     1       2.074   7.845  18.616  0.00  0.00    +0.000 C 
ATOM      3  N   UNL     1       1.616   8.646  19.637  0.00  0.00    +0.000 N 
ATOM      4  N   UNL     1       3.039   6.955  19.029  0.00  0.00    +0.000 N 
ATOM      5  H   UNL     1       1.734   8.296  20.577  0.00  0.00    +0.000 HD
ATOM      6  H   UNL     1       3.321   6.934  19.998  0.00  0.00    +0.000 HD
ENDROOT
BRANCH   4   7
ATOM      7  C   UNL     1       3.619   6.010  18.122  0.00  0.00    +0.000 C 
ATOM      8  C   UNL     1       2.766   4.935  17.500  0.00  0.00    +0.000 C 
ATOM      9  C   UNL     1       1.418   4.533  18.079  0.00  0.00    +0.000 C 
ATOM     10  C   UNL     1       1.780   3.860  19.384  0.00  0.00    +0.000 A 
ATOM     11  C   UNL     1       0.914   3.283  20.297  0.00  0.00    +0.000 A 
ATOM     12  C   UNL     1       1.466   2.672  21.417  0.00  0.00    +0.000 A 
ATOM     13  F   UNL     1       0.655   2.099  22.317  0.00  0.00    +0.000 F 
ATOM     14  C   UNL     1       2.848   2.636  21.626  0.00  0.00    +0.000 A 
ATOM     15  C   UNL     1       3.713   3.238  20.707  0.00  0.00    +0.000 A 
ATOM     16  C   UNL     1       3.176   3.862  19.589  0.00  0.00    +0.000 A 
ATOM     17  C   UNL     1       3.879   4.561  18.469  0.00  0.00    +0.000 C 
ENDBRANCH   4   7
BRANCH   3  18
ATOM     18  C   UNL     1       0.545   9.615  19.392  0.00  0.00    +0.000 C 
ATOM     19  C   UNL     1       0.892  10.578  18.259  0.00  0.00    +0.000 C 
ATOM     20  C   UNL     1       1.869  11.674  18.680  0.00  0.00    +0.000 C 
ATOM     21  N   UNL     1       1.400  12.402  19.869  0.00  0.00    +0.000 NA
ATOM     22  C   UNL     1       1.185  11.479  20.996  0.00  0.00    +0.000 C 
ATOM     23  C   UNL     1       0.168  10.389  20.658  0.00  0.00    +0.000 C 
BRANCH  21  24
ATOM     24  C   UNL     1       2.352  13.460  20.271  0.00  0.00    +0.000 C 
BRANCH  24  25
ATOM     25  C   UNL     1       2.488  14.592  19.272  0.00  0.00    +0.000 A 
ATOM     26  C   UNL     1       1.529  15.617  19.212  0.00  0.00    +0.000 A 
ATOM     27  C   UNL     1       1.653  16.649  18.279  0.00  0.00    +0.000 A 
ATOM     28  C   UNL     1       2.737  16.661  17.410  0.00  0.00    +0.000 A 
ATOM     29  F   UNL     1       2.850  17.645  16.507  0.00  0.00    +0.000 F 
ATOM     30  C   UNL     1       3.706  15.666  17.460  0.00  0.00    +0.000 A 
ATOM     31  C   UNL     1       3.583  14.633  18.391  0.00  0.00    +0.000 A 
ENDBRANCH  24  25
ENDBRANCH  21  24
ENDBRANCH   3  18
TORSDOF 4
ENDMDL
