MODEL 1
REMARK VINA RESULT:      -8.1      0.000      0.000
REMARK  Name = 
REMARK  7 active torsions:
REMARK  status: ('A' for Active; 'I' for Inactive)
REMARK    1  A    between atoms: C_1  and  N_2
REMARK    2  A    between atoms: C_6  and  C_7
REMARK    3  A    between atoms: C_7  and  C_8
REMARK    4  A    between atoms: C_8  and  C_9
REMARK    5  A    between atoms: C_13  and  N_14
REMARK    6  A    between atoms: C_15  and  C_17
REMARK    7  A    between atoms: C_17  and  C_18
REMARK                            x       y       z     vdW  Elec       q    Type
REMARK                         _______ _______ _______ _____ _____    ______ ____
ROOT
ATOM      1  C   UNL     1       2.433   7.498  18.566  0.00  0.00    +0.000 A 
ATOM      2  C   UNL     1       2.640   8.512  17.611  0.00  0.00    +0.000 A 
ATOM      3  C   UNL     1       2.085   9.781  17.755  0.00  0.00    +0.000 A 
ATOM      4  C   UNL     1       1.302  10.077  18.868  0.00  0.00    +0.000 A 
ATOM      5  C   UNL     1       1.064   9.108  19.840  0.00  0.00    +0.000 A 
ATOM      6  C   UNL     1       1.634   7.836  19.682  0.00  0.00    +0.000 A 
ENDROOT
BRANCH   1   7
ATOM      7  C   UNL     1       3.082   6.041  18.387  0.00  0.00    +0.000 C 
ATOM      8  C   UNL     1       4.317   5.899  17.454  0.00  0.00    +0.000 C 
ATOM      9  O   UNL     1       5.161   5.442  18.532  0.00  0.00    +0.000 OA
ATOM     10  C   UNL     1       4.102   5.626  19.489  0.00  0.00    +0.000 C 
BRANCH   7  11
ATOM     11  C   UNL     1       1.981   4.978  18.206  0.00  0.00    +0.000 C 
BRANCH  11  17
ATOM     12  C   UNL     1       3.250   2.051  18.530  0.00  0.00    +0.000 C 
ATOM     13  N   UNL     1       2.356   2.740  19.423  0.00  0.00    +0.000 N 
ATOM     14  C   UNL     1       1.834   2.195  20.559  0.00  0.00    +0.000 A 
ATOM     15  N   UNL     1       1.071   3.075  21.159  0.00  0.00    +0.000 NA
ATOM     16  N   UNL     1       1.075   4.214  20.395  0.00  0.00    +0.000 NA
ATOM     17  C   UNL     1       1.834   4.010  19.335  0.00  0.00    +0.000 A 
ENDBRANCH  11  17
ENDBRANCH   7  11
ENDBRANCH   1   7
BRANCH   5  18
ATOM     18  N   UNL     1       0.253   9.320  20.972  0.00  0.00    +0.000 N 
ATOM     19  C   UNL     1       0.672   9.501  22.276  0.00  0.00    +0.000 C 
ATOM     20  O   UNL     1       1.826   9.429  22.696  0.00  0.00    +0.000 OA
ATOM     21  H   UNL     1      -0.743   9.450  20.796  0.00  0.00    +0.000 HD
BRANCH  19  22
ATOM     22  C   UNL     1      -0.449   9.866  23.217  0.00  0.00    +0.000 C 
BRANCH  22  23
ATOM     23  C   UNL     1      -0.965  11.246  22.889  0.00  0.00    +0.000 C 
ATOM     24  N   UNL     1      -0.168  12.038  22.265  0.00  0.00    +0.000 NA
ATOM     25  C   UNL     1      -0.567  13.424  22.002  0.00  0.00    +0.000 C 
ATOM     26  C   UNL     1      -1.950  13.863  22.493  0.00  0.00    +0.000 C 
ATOM     27  C   UNL     1      -2.761  12.826  23.194  0.00  0.00    +0.000 C 
ATOM     28  C   UNL     1      -2.320  11.581  23.383  0.00  0.00    +0.000 C 
ENDBRANCH  22  23
ENDBRANCH  19  22
ENDBRANCH   5  18
TORSDOF 6
ENDMDL
MODEL 2
REMARK VINA RESULT:      -7.9      0.730      1.322
REMARK  Name = 
REMARK  7 active torsions:
REMARK  status: ('A' for Active; 'I' for Inactive)
REMARK    1  A    between atoms: C_1  and  N_2
REMARK    2  A    between atoms: C_6  and  C_7
REMARK    3  A    between atoms: C_7  and  C_8
REMARK    4  A    between atoms: C_8  and  C_9
REMARK    5  A    between atoms: C_13  and  N_14
REMARK    6  A    between atoms: C_15  and  C_17
REMARK    7  A    between atoms: C_17  and  C_18
REMARK                            x       y       z     vdW  Elec       q    Type
REMARK                         _______ _______ _______ _____ _____    ______ ____
ROOT
ATOM      1  C   UNL     1       2.389   7.614  18.582  0.00  0.00    +0.000 A 
ATOM      2  C   UNL     1       2.594   8.629  17.626  0.00  0.00    +0.000 A 
ATOM      3  C   UNL     1       2.026   9.892  17.764  0.00  0.00    +0.000 A 
ATOM      4  C   UNL     1       1.233  10.184  18.870  0.00  0.00    +0.000 A 
ATOM      5  C   UNL     1       0.996   9.215  19.842  0.00  0.00    +0.000 A 
ATOM      6  C   UNL     1       1.579   7.947  19.691  0.00  0.00    +0.000 A 
ENDROOT
BRANCH   1   7
ATOM      7  C   UNL     1       3.053   6.163  18.410  0.00  0.00    +0.000 C 
ATOM      8  C   UNL     1       4.464   6.075  17.763  0.00  0.00    +0.000 C 
ATOM      9  O   UNL     1       5.043   5.497  18.952  0.00  0.00    +0.000 OA
ATOM     10  C   UNL     1       3.801   5.620  19.665  0.00  0.00    +0.000 C 
BRANCH   7  11
ATOM     11  C   UNL     1       2.013   5.152  17.889  0.00  0.00    +0.000 C 
BRANCH  11  17
ATOM     12  C   UNL     1       0.991   3.219  20.235  0.00  0.00    +0.000 C 
ATOM     13  N   UNL     1       1.920   2.924  19.176  0.00  0.00    +0.000 N 
ATOM     14  C   UNL     1       2.591   1.743  19.049  0.00  0.00    +0.000 A 
ATOM     15  N   UNL     1       3.347   1.779  17.980  0.00  0.00    +0.000 NA
ATOM     16  N   UNL     1       3.186   3.011  17.401  0.00  0.00    +0.000 NA
ATOM     17  C   UNL     1       2.340   3.714  18.132  0.00  0.00    +0.000 A 
ENDBRANCH  11  17
ENDBRANCH   7  11
ENDBRANCH   1   7
BRANCH   5  18
ATOM     18  N   UNL     1       0.174   9.421  20.968  0.00  0.00    +0.000 N 
ATOM     19  C   UNL     1       0.581   9.589  22.278  0.00  0.00    +0.000 C 
ATOM     20  O   UNL     1       1.731   9.506  22.708  0.00  0.00    +0.000 OA
ATOM     21  H   UNL     1      -0.818   9.558  20.783  0.00  0.00    +0.000 HD
BRANCH  19  22
ATOM     22  C   UNL     1      -0.547   9.952  23.211  0.00  0.00    +0.000 C 
BRANCH  22  23
ATOM     23  C   UNL     1      -1.039  11.345  22.902  0.00  0.00    +0.000 C 
ATOM     24  N   UNL     1      -0.226  12.133  22.294  0.00  0.00    +0.000 NA
ATOM     25  C   UNL     1      -0.601  13.529  22.051  0.00  0.00    +0.000 C 
ATOM     26  C   UNL     1      -1.978  13.984  22.545  0.00  0.00    +0.000 C 
ATOM     27  C   UNL     1      -2.808  12.950  23.227  0.00  0.00    +0.000 C 
ATOM     28  C   UNL     1      -2.389  11.695  23.398  0.00  0.00    +0.000 C 
ENDBRANCH  22  23
ENDBRANCH  19  22
ENDBRANCH   5  18
TORSDOF 6
ENDMDL
MODEL 3
REMARK VINA RESULT:      -7.6      1.038      1.110
REMARK  Name = 
REMARK  7 active torsions:
REMARK  status: ('A' for Active; 'I' for Inactive)
REMARK    1  A    between atoms: C_1  and  N_2
REMARK    2  A    between atoms: C_6  and  C_7
REMARK    3  A    between atoms: C_7  and  C_8
REMARK    4  A    between atoms: C_8  and  C_9
REMARK    5  A    between atoms: C_13  and  N_14
REMARK    6  A    between atoms: C_15  and  C_17
REMARK    7  A    between atoms: C_17  and  C_18
REMARK                            x       y       z     vdW  Elec       q    Type
REMARK                         _______ _______ _______ _____ _____    ______ ____
ROOT
ATOM      1  C   UNL     1       2.471   7.364  18.944  0.00  0.00    +0.000 A 
ATOM      2  C   UNL     1       2.409   8.092  17.740  0.00  0.00    +0.000 A 
ATOM      3  C   UNL     1       1.808   9.346  17.669  0.00  0.00    +0.000 A 
ATOM      4  C   UNL     1       1.249   9.916  18.810  0.00  0.00    +0.000 A 
ATOM      5  C   UNL     1       1.280   9.237  20.026  0.00  0.00    +0.000 A 
ATOM      6  C   UNL     1       1.894   7.976  20.080  0.00  0.00    +0.000 A 
ENDROOT
BRANCH   1   7
ATOM      7  C   UNL     1       3.169   5.921  19.009  0.00  0.00    +0.000 C 
ATOM      8  C   UNL     1       3.385   5.151  17.676  0.00  0.00    +0.000 C 
ATOM      9  O   UNL     1       4.820   5.146  17.837  0.00  0.00    +0.000 OA
ATOM     10  C   UNL     1       4.727   5.935  19.035  0.00  0.00    +0.000 C 
BRANCH   7  11
ATOM     11  C   UNL     1       2.592   5.094  20.174  0.00  0.00    +0.000 C 
BRANCH  11  17
ATOM     12  C   UNL     1       4.189   2.322  19.957  0.00  0.00    +0.000 C 
ATOM     13  N   UNL     1       2.801   2.577  19.677  0.00  0.00    +0.000 N 
ATOM     14  C   UNL     1       1.933   1.646  19.184  0.00  0.00    +0.000 A 
ATOM     15  N   UNL     1       0.744   2.179  19.052  0.00  0.00    +0.000 NA
ATOM     16  N   UNL     1       0.833   3.490  19.446  0.00  0.00    +0.000 NA
ATOM     17  C   UNL     1       2.078   3.740  19.805  0.00  0.00    +0.000 A 
ENDBRANCH  11  17
ENDBRANCH   7  11
ENDBRANCH   1   7
BRANCH   5  18
ATOM     18  N   UNL     1       0.703   9.730  21.212  0.00  0.00    +0.000 N 
ATOM     19  C   UNL     1      -0.280   9.128  21.975  0.00  0.00    +0.000 C 
ATOM     20  O   UNL     1      -0.885   8.090  21.710  0.00  0.00    +0.000 OA
ATOM     21  H   UNL     1       1.122  10.574  21.600  0.00  0.00    +0.000 HD
BRANCH  19  22
ATOM     22  C   UNL     1      -0.553   9.849  23.271  0.00  0.00    +0.000 C 
BRANCH  22  23
ATOM     23  C   UNL     1      -1.013  11.258  22.986  0.00  0.00    +0.000 C 
ATOM     24  N   UNL     1      -0.126  12.094  22.580  0.00  0.00    +0.000 NA
ATOM     25  C   UNL     1      -0.482  13.502  22.379  0.00  0.00    +0.000 C 
ATOM     26  C   UNL     1      -1.930  13.910  22.669  0.00  0.00    +0.000 C 
ATOM     27  C   UNL     1      -2.842  12.822  23.127  0.00  0.00    +0.000 C 
ATOM     28  C   UNL     1      -2.433  11.561  23.274  0.00  0.00    +0.000 C 
ENDBRANCH  22  23
ENDBRANCH  19  22
ENDBRANCH   5  18
TORSDOF 6
ENDMDL
MODEL 4
REMARK VINA RESULT:      -7.5      2.218      3.240
REMARK  Name = 
REMARK  7 active torsions:
REMARK  status: ('A' for Active; 'I' for Inactive)
REMARK    1  A    between atoms: C_1  and  N_2
REMARK    2  A    between atoms: C_6  and  C_7
REMARK    3  A    between atoms: C_7  and  C_8
REMARK    4  A    between atoms: C_8  and  C_9
REMARK    5  A    between atoms: C_13  and  N_14
REMARK    6  A    between atoms: C_15  and  C_17
REMARK    7  A    between atoms: C_17  and  C_18
REMARK                            x       y       z     vdW  Elec       q    Type
REMARK                         _______ _______ _______ _____ _____    ______ ____
ROOT
ATOM      1  C   UNL     1       2.300   5.448  19.332  0.00  0.00    +0.000 A 
ATOM      2  C   UNL     1       2.544   5.989  18.055  0.00  0.00    +0.000 A 
ATOM      3  C   UNL     1       2.443   7.355  17.804  0.00  0.00    +0.000 A 
ATOM      4  C   UNL     1       2.096   8.228  18.832  0.00  0.00    +0.000 A 
ATOM      5  C   UNL     1       1.841   7.744  20.113  0.00  0.00    +0.000 A 
ATOM      6  C   UNL     1       1.951   6.365  20.349  0.00  0.00    +0.000 A 
ENDROOT
BRANCH   1   7
ATOM      7  C   UNL     1       2.423   3.871  19.605  0.00  0.00    +0.000 C 
ATOM      8  C   UNL     1       2.535   3.389  21.079  0.00  0.00    +0.000 C 
ATOM      9  O   UNL     1       1.309   2.632  20.991  0.00  0.00    +0.000 OA
ATOM     10  C   UNL     1       1.073   3.095  19.651  0.00  0.00    +0.000 C 
BRANCH   7  11
ATOM     11  C   UNL     1       3.412   3.227  18.613  0.00  0.00    +0.000 C 
BRANCH  11  17
ATOM     12  C   UNL     1       5.034   4.139  16.002  0.00  0.00    +0.000 C 
ATOM     13  N   UNL     1       5.438   4.227  17.380  0.00  0.00    +0.000 N 
ATOM     14  C   UNL     1       6.662   4.666  17.795  0.00  0.00    +0.000 A 
ATOM     15  N   UNL     1       6.718   4.641  19.103  0.00  0.00    +0.000 NA
ATOM     16  N   UNL     1       5.517   4.160  19.559  0.00  0.00    +0.000 NA
ATOM     17  C   UNL     1       4.749   3.889  18.521  0.00  0.00    +0.000 A 
ENDBRANCH  11  17
ENDBRANCH   7  11
ENDBRANCH   1   7
BRANCH   5  18
ATOM     18  N   UNL     1       1.448   8.559  21.192  0.00  0.00    +0.000 N 
ATOM     19  C   UNL     1       0.202   8.609  21.789  0.00  0.00    +0.000 C 
ATOM     20  O   UNL     1      -0.810   8.009  21.432  0.00  0.00    +0.000 OA
ATOM     21  H   UNL     1       2.186   9.098  21.643  0.00  0.00    +0.000 HD
BRANCH  19  22
ATOM     22  C   UNL     1       0.168   9.473  23.025  0.00  0.00    +0.000 C 
BRANCH  22  23
ATOM     23  C   UNL     1      -0.586  10.748  22.739  0.00  0.00    +0.000 C 
ATOM     24  N   UNL     1      -1.664  10.955  23.408  0.00  0.00    +0.000 NA
ATOM     25  C   UNL     1      -2.498  12.124  23.112  0.00  0.00    +0.000 C 
ATOM     26  C   UNL     1      -2.026  13.061  21.996  0.00  0.00    +0.000 C 
ATOM     27  C   UNL     1      -0.751  12.689  21.318  0.00  0.00    +0.000 C 
ATOM     28  C   UNL     1      -0.049  11.607  21.660  0.00  0.00    +0.000 C 
ENDBRANCH  22  23
ENDBRANCH  19  22
ENDBRANCH   5  18
TORSDOF 6
ENDMDL
MODEL 5
REMARK VINA RESULT:      -7.5      2.191      3.150
REMARK  Name = 
REMARK  7 active torsions:
REMARK  status: ('A' for Active; 'I' for Inactive)
REMARK    1  A    between atoms: C_1  and  N_2
REMARK    2  A    between atoms: C_6  and  C_7
REMARK    3  A    between atoms: C_7  and  C_8
REMARK    4  A    between atoms: C_8  and  C_9
REMARK    5  A    between atoms: C_13  and  N_14
REMARK    6  A    between atoms: C_15  and  C_17
REMARK    7  A    between atoms: C_17  and  C_18
REMARK                            x       y       z     vdW  Elec       q    Type
REMARK                         _______ _______ _______ _____ _____    ______ ____
ROOT
ATOM      1  C   UNL     1       2.410   5.310  19.378  0.00  0.00    +0.000 A 
ATOM      2  C   UNL     1       2.638   5.877  18.109  0.00  0.00    +0.000 A 
ATOM      3  C   UNL     1       2.497   7.242  17.879  0.00  0.00    +0.000 A 
ATOM      4  C   UNL     1       2.124   8.090  18.918  0.00  0.00    +0.000 A 
ATOM      5  C   UNL     1       1.883   7.580  20.192  0.00  0.00    +0.000 A 
ATOM      6  C   UNL     1       2.033   6.201  20.408  0.00  0.00    +0.000 A 
ENDROOT
BRANCH   1   7
ATOM      7  C   UNL     1       2.579   3.734  19.628  0.00  0.00    +0.000 C 
ATOM      8  C   UNL     1       2.566   3.218  21.094  0.00  0.00    +0.000 C 
ATOM      9  O   UNL     1       1.392   2.409  20.867  0.00  0.00    +0.000 OA
ATOM     10  C   UNL     1       1.269   2.897  19.520  0.00  0.00    +0.000 C 
BRANCH   7  11
ATOM     11  C   UNL     1       3.691   3.161  18.726  0.00  0.00    +0.000 C 
BRANCH  11  17
ATOM     12  C   UNL     1       5.401   4.104  16.183  0.00  0.00    +0.000 C 
ATOM     13  N   UNL     1       5.691   4.305  17.578  0.00  0.00    +0.000 N 
ATOM     14  C   UNL     1       6.828   4.892  18.050  0.00  0.00    +0.000 A 
ATOM     15  N   UNL     1       6.789   4.941  19.358  0.00  0.00    +0.000 NA
ATOM     16  N   UNL     1       5.614   4.360  19.758  0.00  0.00    +0.000 NA
ATOM     17  C   UNL     1       4.956   3.955  18.687  0.00  0.00    +0.000 A 
ENDBRANCH  11  17
ENDBRANCH   7  11
ENDBRANCH   1   7
BRANCH   5  18
ATOM     18  N   UNL     1       1.465   8.366  21.283  0.00  0.00    +0.000 N 
ATOM     19  C   UNL     1       0.319   9.135  21.367  0.00  0.00    +0.000 C 
ATOM     20  O   UNL     1      -0.501   9.335  20.472  0.00  0.00    +0.000 OA
ATOM     21  H   UNL     1       2.017   8.284  22.136  0.00  0.00    +0.000 HD
BRANCH  19  22
ATOM     22  C   UNL     1       0.095   9.721  22.739  0.00  0.00    +0.000 C 
BRANCH  22  23
ATOM     23  C   UNL     1      -0.553  11.080  22.616  0.00  0.00    +0.000 C 
ATOM     24  N   UNL     1       0.134  12.008  22.053  0.00  0.00    +0.000 NA
ATOM     25  C   UNL     1      -0.393  13.375  21.989  0.00  0.00    +0.000 C 
ATOM     26  C   UNL     1      -1.771  13.626  22.610  0.00  0.00    +0.000 C 
ATOM     27  C   UNL     1      -2.446  12.444  23.219  0.00  0.00    +0.000 C 
ATOM     28  C   UNL     1      -1.894  11.230  23.224  0.00  0.00    +0.000 C 
ENDBRANCH  22  23
ENDBRANCH  19  22
ENDBRANCH   5  18
TORSDOF 6
ENDMDL
MODEL 6
REMARK VINA RESULT:      -7.5      2.093      8.632
REMARK  Name = 
REMARK  7 active torsions:
REMARK  status: ('A' for Active; 'I' for Inactive)
REMARK    1  A    between atoms: C_1  and  N_2
REMARK    2  A    between atoms: C_6  and  C_7
REMARK    3  A    between atoms: C_7  and  C_8
REMARK    4  A    between atoms: C_8  and  C_9
REMARK    5  A    between atoms: C_13  and  N_14
REMARK    6  A    between atoms: C_15  and  C_17
REMARK    7  A    between atoms: C_17  and  C_18
REMARK                            x       y       z     vdW  Elec       q    Type
REMARK                         _______ _______ _______ _____ _____    ______ ____
ROOT
ATOM      1  C   UNL     1       1.230   9.077  20.060  0.00  0.00    +0.000 A 
ATOM      2  C   UNL     1       1.114   9.630  18.769  0.00  0.00    +0.000 A 
ATOM      3  C   UNL     1       1.668   9.010  17.653  0.00  0.00    +0.000 A 
ATOM      4  C   UNL     1       2.358   7.809  17.793  0.00  0.00    +0.000 A 
ATOM      5  C   UNL     1       2.505   7.222  19.048  0.00  0.00    +0.000 A 
ATOM      6  C   UNL     1       1.936   7.857  20.162  0.00  0.00    +0.000 A 
ENDROOT
BRANCH   1   7
ATOM      7  C   UNL     1       0.582   9.803  21.336  0.00  0.00    +0.000 C 
ATOM      8  C   UNL     1      -0.680   9.165  21.980  0.00  0.00    +0.000 C 
ATOM      9  O   UNL     1      -0.009   8.952  23.240  0.00  0.00    +0.000 OA
ATOM     10  C   UNL     1       1.232   9.446  22.707  0.00  0.00    +0.000 C 
BRANCH   7  11
ATOM     11  C   UNL     1       0.524  11.328  21.118  0.00  0.00    +0.000 C 
BRANCH  11  17
ATOM     12  C   UNL     1      -2.274  12.177  19.803  0.00  0.00    +0.000 C 
ATOM     13  N   UNL     1      -1.811  12.412  21.144  0.00  0.00    +0.000 N 
ATOM     14  C   UNL     1      -2.498  13.131  22.079  0.00  0.00    +0.000 A 
ATOM     15  N   UNL     1      -1.822  13.153  23.201  0.00  0.00    +0.000 NA
ATOM     16  N   UNL     1      -0.660  12.453  22.997  0.00  0.00    +0.000 NA
ATOM     17  C   UNL     1      -0.640  12.021  21.750  0.00  0.00    +0.000 A 
ENDBRANCH  11  17
ENDBRANCH   7  11
ENDBRANCH   1   7
BRANCH   5  18
ATOM     18  N   UNL     1       3.220   6.030  19.275  0.00  0.00    +0.000 N 
ATOM     19  C   UNL     1       2.771   4.737  19.081  0.00  0.00    +0.000 C 
ATOM     20  O   UNL     1       1.637   4.394  18.753  0.00  0.00    +0.000 OA
ATOM     21  H   UNL     1       4.205   6.134  19.515  0.00  0.00    +0.000 HD
BRANCH  19  22
ATOM     22  C   UNL     1       3.849   3.699  19.266  0.00  0.00    +0.000 C 
BRANCH  22  23
ATOM     23  C   UNL     1       4.982   3.959  18.303  0.00  0.00    +0.000 C 
ATOM     24  N   UNL     1       6.088   4.385  18.801  0.00  0.00    +0.000 NA
ATOM     25  C   UNL     1       7.198   4.752  17.915  0.00  0.00    +0.000 C 
ATOM     26  C   UNL     1       6.974   4.601  16.407  0.00  0.00    +0.000 C 
ATOM     27  C   UNL     1       5.638   4.087  15.987  0.00  0.00    +0.000 C 
ATOM     28  C   UNL     1       4.686   3.768  16.866  0.00  0.00    +0.000 C 
ENDBRANCH  22  23
ENDBRANCH  19  22
ENDBRANCH   5  18
TORSDOF 6
ENDMDL
MODEL 7
REMARK VINA RESULT:      -7.5      2.202      2.946
REMARK  Name = 
REMARK  7 active torsions:
REMARK  status: ('A' for Active; 'I' for Inactive)
REMARK    1  A    between atoms: C_1  and  N_2
REMARK    2  A    between atoms: C_6  and  C_7
REMARK    3  A    between atoms: C_7  and  C_8
REMARK    4  A    between atoms: C_8  and  C_9
REMARK    5  A    between atoms: C_13  and  N_14
REMARK    6  A    between atoms: C_15  and  C_17
REMARK    7  A    between atoms: C_17  and  C_18
REMARK                            x       y       z     vdW  Elec       q    Type
REMARK                         _______ _______ _______ _____ _____    ______ ____
ROOT
ATOM      1  C   UNL     1       2.532   6.569  18.814  0.00  0.00    +0.000 A 
ATOM      2  C   UNL     1       2.853   7.500  17.807  0.00  0.00    +0.000 A 
ATOM      3  C   UNL     1       2.426   8.823  17.868  0.00  0.00    +0.000 A 
ATOM      4  C   UNL     1       1.663   9.261  18.947  0.00  0.00    +0.000 A 
ATOM      5  C   UNL     1       1.315   8.380  19.968  0.00  0.00    +0.000 A 
ATOM      6  C   UNL     1       1.757   7.050  19.893  0.00  0.00    +0.000 A 
ENDROOT
BRANCH   1   7
ATOM      7  C   UNL     1       3.034   5.047  18.730  0.00  0.00    +0.000 C 
ATOM      8  C   UNL     1       3.216   4.261  20.059  0.00  0.00    +0.000 C 
ATOM      9  O   UNL     1       2.220   3.282  19.692  0.00  0.00    +0.000 OA
ATOM     10  C   UNL     1       1.918   3.990  18.476  0.00  0.00    +0.000 C 
BRANCH   7  11
ATOM     11  C   UNL     1       4.182   4.912  17.711  0.00  0.00    +0.000 C 
BRANCH  11  17
ATOM     12  C   UNL     1       7.015   4.562  16.250  0.00  0.00    +0.000 C 
ATOM     13  N   UNL     1       6.755   4.915  17.621  0.00  0.00    +0.000 N 
ATOM     14  C   UNL     1       7.723   5.090  18.566  0.00  0.00    +0.000 A 
ATOM     15  N   UNL     1       7.171   5.418  19.707  0.00  0.00    +0.000 NA
ATOM     16  N   UNL     1       5.813   5.442  19.516  0.00  0.00    +0.000 NA
ATOM     17  C   UNL     1       5.556   5.118  18.262  0.00  0.00    +0.000 A 
ENDBRANCH  11  17
ENDBRANCH   7  11
ENDBRANCH   1   7
BRANCH   5  18
ATOM     18  N   UNL     1       0.515   8.737  21.070  0.00  0.00    +0.000 N 
ATOM     19  C   UNL     1       0.936   9.302  22.259  0.00  0.00    +0.000 C 
ATOM     20  O   UNL     1       2.098   9.519  22.600  0.00  0.00    +0.000 OA
ATOM     21  H   UNL     1      -0.493   8.660  20.940  0.00  0.00    +0.000 HD
BRANCH  19  22
ATOM     22  C   UNL     1      -0.201   9.709  23.162  0.00  0.00    +0.000 C 
BRANCH  22  23
ATOM     23  C   UNL     1      -0.839  10.975  22.643  0.00  0.00    +0.000 C 
ATOM     24  N   UNL     1      -0.259  11.564  21.660  0.00  0.00    +0.000 NA
ATOM     25  C   UNL     1      -0.767  12.850  21.170  0.00  0.00    +0.000 C 
ATOM     26  C   UNL     1      -1.997  13.433  21.874  0.00  0.00    +0.000 C 
ATOM     27  C   UNL     1      -2.561  12.626  22.994  0.00  0.00    +0.000 C 
ATOM     28  C   UNL     1      -2.037  11.457  23.367  0.00  0.00    +0.000 C 
ENDBRANCH  22  23
ENDBRANCH  19  22
ENDBRANCH   5  18
TORSDOF 6
ENDMDL
MODEL 8
REMARK VINA RESULT:      -7.4      5.240      7.555
REMARK  Name = 
REMARK  7 active torsions:
REMARK  status: ('A' for Active; 'I' for Inactive)
REMARK    1  A    between atoms: C_1  and  N_2
REMARK    2  A    between atoms: C_6  and  C_7
REMARK    3  A    between atoms: C_7  and  C_8
REMARK    4  A    between atoms: C_8  and  C_9
REMARK    5  A    between atoms: C_13  and  N_14
REMARK    6  A    between atoms: C_15  and  C_17
REMARK    7  A    between atoms: C_17  and  C_18
REMARK                            x       y       z     vdW  Elec       q    Type
REMARK                         _______ _______ _______ _____ _____    ______ ____
ROOT
ATOM      1  C   UNL     1       5.119   5.317  17.934  0.00  0.00    +0.000 A 
ATOM      2  C   UNL     1       5.957   4.343  17.355  0.00  0.00    +0.000 A 
ATOM      3  C   UNL     1       7.173   4.676  16.767  0.00  0.00    +0.000 A 
ATOM      4  C   UNL     1       7.595   6.003  16.741  0.00  0.00    +0.000 A 
ATOM      5  C   UNL     1       6.802   7.006  17.296  0.00  0.00    +0.000 A 
ATOM      6  C   UNL     1       5.581   6.652  17.889  0.00  0.00    +0.000 A 
ENDROOT
BRANCH   1   7
ATOM      7  C   UNL     1       3.720   4.915  18.610  0.00  0.00    +0.000 C 
ATOM      8  C   UNL     1       3.216   5.765  19.810  0.00  0.00    +0.000 C 
ATOM      9  O   UNL     1       2.027   6.175  19.102  0.00  0.00    +0.000 OA
ATOM     10  C   UNL     1       2.452   5.491  17.911  0.00  0.00    +0.000 C 
BRANCH   7  11
ATOM     11  C   UNL     1       3.625   3.387  18.786  0.00  0.00    +0.000 C 
BRANCH  11  17
ATOM     12  C   UNL     1       0.503   2.775  19.188  0.00  0.00    +0.000 C 
ATOM     13  N   UNL     1       1.557   2.717  20.166  0.00  0.00    +0.000 N 
ATOM     14  C   UNL     1       1.364   2.450  21.489  0.00  0.00    +0.000 A 
ATOM     15  N   UNL     1       2.515   2.454  22.113  0.00  0.00    +0.000 NA
ATOM     16  N   UNL     1       3.484   2.747  21.188  0.00  0.00    +0.000 NA
ATOM     17  C   UNL     1       2.908   2.927  20.014  0.00  0.00    +0.000 A 
ENDBRANCH  11  17
ENDBRANCH   7  11
ENDBRANCH   1   7
BRANCH   5  18
ATOM     18  N   UNL     1       7.142   8.372  17.274  0.00  0.00    +0.000 N 
ATOM     19  C   UNL     1       8.127   8.999  18.014  0.00  0.00    +0.000 C 
ATOM     20  O   UNL     1       8.831   8.489  18.884  0.00  0.00    +0.000 OA
ATOM     21  H   UNL     1       6.677   8.941  16.568  0.00  0.00    +0.000 HD
BRANCH  19  22
ATOM     22  C   UNL     1       8.335  10.442  17.628  0.00  0.00    +0.000 C 
BRANCH  22  23
ATOM     23  C   UNL     1       9.499  11.017  18.398  0.00  0.00    +0.000 C 
ATOM     24  N   UNL     1      10.596  11.200  17.753  0.00  0.00    +0.000 NA
ATOM     25  C   UNL     1      11.794  11.662  18.460  0.00  0.00    +0.000 C 
ATOM     26  C   UNL     1      11.670  11.910  19.967  0.00  0.00    +0.000 C 
ATOM     27  C   UNL     1      10.328  11.659  20.568  0.00  0.00    +0.000 C 
ATOM     28  C   UNL     1       9.286  11.247  19.844  0.00  0.00    +0.000 C 
ENDBRANCH  22  23
ENDBRANCH  19  22
ENDBRANCH   5  18
TORSDOF 6
ENDMDL
MODEL 9
REMARK VINA RESULT:      -7.4      2.149      3.074
REMARK  Name = 
REMARK  7 active torsions:
REMARK  status: ('A' for Active; 'I' for Inactive)
REMARK    1  A    between atoms: C_1  and  N_2
REMARK    2  A    between atoms: C_6  and  C_7
REMARK    3  A    between atoms: C_7  and  C_8
REMARK    4  A    between atoms: C_8  and  C_9
REMARK    5  A    between atoms: C_13  and  N_14
REMARK    6  A    between atoms: C_15  and  C_17
REMARK    7  A    between atoms: C_17  and  C_18
REMARK                            x       y       z     vdW  Elec       q    Type
REMARK                         _______ _______ _______ _____ _____    ______ ____
ROOT
ATOM      1  C   UNL     1       2.326   5.583  19.346  0.00  0.00    +0.000 A 
ATOM      2  C   UNL     1       2.827   6.379  18.298  0.00  0.00    +0.000 A 
ATOM      3  C   UNL     1       2.629   7.756  18.262  0.00  0.00    +0.000 A 
ATOM      4  C   UNL     1       1.919   8.385  19.282  0.00  0.00    +0.000 A 
ATOM      5  C   UNL     1       1.398   7.643  20.340  0.00  0.00    +0.000 A 
ATOM      6  C   UNL     1       1.612   6.257  20.363  0.00  0.00    +0.000 A 
ENDROOT
BRANCH   1   7
ATOM      7  C   UNL     1       2.566   3.996  19.375  0.00  0.00    +0.000 C 
ATOM      8  C   UNL     1       2.881   3.327  20.741  0.00  0.00    +0.000 C 
ATOM      9  O   UNL     1       1.697   2.504  20.684  0.00  0.00    +0.000 OA
ATOM     10  C   UNL     1       1.275   3.128  19.459  0.00  0.00    +0.000 C 
BRANCH   7  11
ATOM     11  C   UNL     1       3.462   3.565  18.196  0.00  0.00    +0.000 C 
BRANCH  11  17
ATOM     12  C   UNL     1       5.292   4.543  15.752  0.00  0.00    +0.000 C 
ATOM     13  N   UNL     1       5.632   4.471  17.148  0.00  0.00    +0.000 N 
ATOM     14  C   UNL     1       6.867   4.753  17.653  0.00  0.00    +0.000 A 
ATOM     15  N   UNL     1       6.854   4.609  18.955  0.00  0.00    +0.000 NA
ATOM     16  N   UNL     1       5.593   4.207  19.313  0.00  0.00    +0.000 NA
ATOM     17  C   UNL     1       4.856   4.102  18.222  0.00  0.00    +0.000 A 
ENDBRANCH  11  17
ENDBRANCH   7  11
ENDBRANCH   1   7
BRANCH   5  18
ATOM     18  N   UNL     1       0.638   8.201  21.386  0.00  0.00    +0.000 N 
ATOM     19  C   UNL     1       1.073   9.090  22.352  0.00  0.00    +0.000 C 
ATOM     20  O   UNL     1       2.224   9.490  22.519  0.00  0.00    +0.000 OA
ATOM     21  H   UNL     1      -0.362   8.004  21.372  0.00  0.00    +0.000 HD
BRANCH  19  22
ATOM     22  C   UNL     1      -0.041   9.613  23.224  0.00  0.00    +0.000 C 
BRANCH  22  23
ATOM     23  C   UNL     1      -0.820  10.671  22.480  0.00  0.00    +0.000 C 
ATOM     24  N   UNL     1      -0.505  10.877  21.252  0.00  0.00    +0.000 NA
ATOM     25  C   UNL     1      -1.152  11.956  20.499  0.00  0.00    +0.000 C 
ATOM     26  C   UNL     1      -2.198  12.799  21.236  0.00  0.00    +0.000 C 
ATOM     27  C   UNL     1      -2.458  12.431  22.658  0.00  0.00    +0.000 C 
ATOM     28  C   UNL     1      -1.826  11.424  23.263  0.00  0.00    +0.000 C 
ENDBRANCH  22  23
ENDBRANCH  19  22
ENDBRANCH   5  18
TORSDOF 6
ENDMDL
