MODEL 1
REMARK VINA RESULT:      -8.5      0.000      0.000
REMARK  Name = 
REMARK  7 active torsions:
REMARK  status: ('A' for Active; 'I' for Inactive)
REMARK    1  A    between atoms: C_1  and  N_2
REMARK    2  A    between atoms: N_2  and  C_3
REMARK    3  A    between atoms: N_2  and  S_9
REMARK    4  A    between atoms: S_9  and  C_12
REMARK    5  A    between atoms: C_16  and  N_17
REMARK    6  A    between atoms: C_18  and  C_20
REMARK    7  A    between atoms: C_20  and  N_21
REMARK                            x       y       z     vdW  Elec       q    Type
REMARK                         _______ _______ _______ _____ _____    ______ ____
ROOT
ATOM      1  C   UNL     1       6.357   6.397  17.532  0.00  0.00    +0.000 A 
ATOM      2  C   UNL     1       6.964   5.490  18.410  0.00  0.00    +0.000 A 
ATOM      3  C   UNL     1       8.042   5.921  19.186  0.00  0.00    +0.000 A 
ATOM      4  C   UNL     1       8.531   7.227  19.050  0.00  0.00    +0.000 A 
ATOM      5  C   UNL     1       7.969   8.115  18.133  0.00  0.00    +0.000 A 
ATOM      6  C   UNL     1       6.859   7.691  17.382  0.00  0.00    +0.000 A 
ENDROOT
BRANCH   5   7
ATOM      7  N   UNL     1       8.486   9.399  17.861  0.00  0.00    +0.000 N 
ATOM      8  C   UNL     1       9.129  10.260  18.745  0.00  0.00    +0.000 C 
ATOM      9  O   UNL     1       9.250  10.095  19.957  0.00  0.00    +0.000 OA
ATOM     10  H   UNL     1       8.516   9.670  16.885  0.00  0.00    +0.000 HD
BRANCH   8  11
ATOM     11  C   UNL     1       9.797  11.454  18.029  0.00  0.00    +0.000 C 
BRANCH  11  12
ATOM     12  N   UNL     1       9.116  12.647  18.487  0.00  0.00    +0.000 N 
ATOM     13  C   UNL     1       8.282  13.410  17.539  0.00  0.00    +0.000 C 
ATOM     14  C   UNL     1       7.457  14.310  18.456  0.00  0.00    +0.000 C 
ATOM     15  C   UNL     1       8.594  14.698  19.348  0.00  0.00    +0.000 A 
ATOM     16  C   UNL     1       8.853  15.912  19.942  0.00  0.00    +0.000 A 
ATOM     17  C   UNL     1      10.046  16.031  20.651  0.00  0.00    +0.000 A 
ATOM     18  C   UNL     1      10.886  14.919  20.834  0.00  0.00    +0.000 A 
ATOM     19  C   UNL     1      10.608  13.688  20.220  0.00  0.00    +0.000 A 
ATOM     20  C   UNL     1       9.504  13.617  19.397  0.00  0.00    +0.000 A 
ENDBRANCH  11  12
ENDBRANCH   8  11
ENDBRANCH   5   7
BRANCH   1  21
ATOM     21  S   UNL     1       4.998   5.858  16.478  0.00  0.00    +0.000 S 
ATOM     22  O   UNL     1       5.127   4.409  16.376  0.00  0.00    +0.000 OA
ATOM     23  O   UNL     1       5.030   6.692  15.295  0.00  0.00    +0.000 OA
BRANCH  21  25
ATOM     24  C   UNL     1       3.231   7.604  17.597  0.00  0.00    +0.000 C 
ATOM     25  N   UNL     1       3.635   6.207  17.401  0.00  0.00    +0.000 N 
BRANCH  25  26
ATOM     26  C   UNL     1       3.041   5.220  18.238  0.00  0.00    +0.000 A 
ATOM     27  C   UNL     1       3.312   5.211  19.610  0.00  0.00    +0.000 A 
ATOM     28  C   UNL     1       2.548   4.416  20.474  0.00  0.00    +0.000 A 
ATOM     29  C   UNL     1       1.510   3.640  19.958  0.00  0.00    +0.000 A 
ATOM     30  C   UNL     1       1.249   3.636  18.586  0.00  0.00    +0.000 A 
ATOM     31  C   UNL     1       2.011   4.428  17.727  0.00  0.00    +0.000 A 
ENDBRANCH  25  26
ENDBRANCH  21  25
ENDBRANCH   1  21
TORSDOF 6
ENDMDL
MODEL 2
REMARK VINA RESULT:      -8.5      1.202      1.287
REMARK  Name = 
REMARK  7 active torsions:
REMARK  status: ('A' for Active; 'I' for Inactive)
REMARK    1  A    between atoms: C_1  and  N_2
REMARK    2  A    between atoms: N_2  and  C_3
REMARK    3  A    between atoms: N_2  and  S_9
REMARK    4  A    between atoms: S_9  and  C_12
REMARK    5  A    between atoms: C_16  and  N_17
REMARK    6  A    between atoms: C_18  and  C_20
REMARK    7  A    between atoms: C_20  and  N_21
REMARK                            x       y       z     vdW  Elec       q    Type
REMARK                         _______ _______ _______ _____ _____    ______ ____
ROOT
ATOM      1  C   UNL     1       6.398   6.331  17.402  0.00  0.00    +0.000 A 
ATOM      2  C   UNL     1       6.901   5.461  18.377  0.00  0.00    +0.000 A 
ATOM      3  C   UNL     1       7.927   5.907  19.214  0.00  0.00    +0.000 A 
ATOM      4  C   UNL     1       8.469   7.187  19.044  0.00  0.00    +0.000 A 
ATOM      5  C   UNL     1       8.013   8.034  18.035  0.00  0.00    +0.000 A 
ATOM      6  C   UNL     1       6.953   7.598  17.220  0.00  0.00    +0.000 A 
ENDROOT
BRANCH   5   7
ATOM      7  N   UNL     1       8.593   9.284  17.733  0.00  0.00    +0.000 N 
ATOM      8  C   UNL     1       9.043  10.250  18.628  0.00  0.00    +0.000 C 
ATOM      9  O   UNL     1       8.896  10.229  19.849  0.00  0.00    +0.000 OA
ATOM     10  H   UNL     1       8.837   9.440  16.761  0.00  0.00    +0.000 HD
BRANCH   8  11
ATOM     11  C   UNL     1       9.864  11.361  17.940  0.00  0.00    +0.000 C 
BRANCH  11  12
ATOM     12  N   UNL     1       9.086  12.577  18.039  0.00  0.00    +0.000 N 
ATOM     13  C   UNL     1       7.871  12.726  17.213  0.00  0.00    +0.000 C 
ATOM     14  C   UNL     1       7.150  13.900  17.871  0.00  0.00    +0.000 C 
ATOM     15  C   UNL     1       8.371  14.748  18.044  0.00  0.00    +0.000 A 
ATOM     16  C   UNL     1       8.504  16.111  17.917  0.00  0.00    +0.000 A 
ATOM     17  C   UNL     1       9.786  16.640  18.035  0.00  0.00    +0.000 A 
ATOM     18  C   UNL     1      10.873  15.816  18.377  0.00  0.00    +0.000 A 
ATOM     19  C   UNL     1      10.722  14.426  18.501  0.00  0.00    +0.000 A 
ATOM     20  C   UNL     1       9.480  13.891  18.236  0.00  0.00    +0.000 A 
ENDBRANCH  11  12
ENDBRANCH   8  11
ENDBRANCH   5   7
BRANCH   1  21
ATOM     21  S   UNL     1       5.111   5.770  16.272  0.00  0.00    +0.000 S 
ATOM     22  O   UNL     1       5.500   4.423  15.866  0.00  0.00    +0.000 OA
ATOM     23  O   UNL     1       4.929   6.818  15.290  0.00  0.00    +0.000 OA
BRANCH  21  25
ATOM     24  C   UNL     1       3.316   6.829  18.027  0.00  0.00    +0.000 C 
ATOM     25  N   UNL     1       3.755   5.655  17.261  0.00  0.00    +0.000 N 
BRANCH  25  26
ATOM     26  C   UNL     1       3.202   4.390  17.610  0.00  0.00    +0.000 A 
ATOM     27  C   UNL     1       4.037   3.364  18.062  0.00  0.00    +0.000 A 
ATOM     28  C   UNL     1       3.486   2.212  18.642  0.00  0.00    +0.000 A 
ATOM     29  C   UNL     1       2.102   2.102  18.772  0.00  0.00    +0.000 A 
ATOM     30  C   UNL     1       1.268   3.119  18.305  0.00  0.00    +0.000 A 
ATOM     31  C   UNL     1       1.816   4.265  17.729  0.00  0.00    +0.000 A 
ENDBRANCH  25  26
ENDBRANCH  21  25
ENDBRANCH   1  21
TORSDOF 6
ENDMDL
MODEL 3
REMARK VINA RESULT:      -8.5      6.615     10.519
REMARK  Name = 
REMARK  7 active torsions:
REMARK  status: ('A' for Active; 'I' for Inactive)
REMARK    1  A    between atoms: C_1  and  N_2
REMARK    2  A    between atoms: N_2  and  C_3
REMARK    3  A    between atoms: N_2  and  S_9
REMARK    4  A    between atoms: S_9  and  C_12
REMARK    5  A    between atoms: C_16  and  N_17
REMARK    6  A    between atoms: C_18  and  C_20
REMARK    7  A    between atoms: C_20  and  N_21
REMARK                            x       y       z     vdW  Elec       q    Type
REMARK                         _______ _______ _______ _____ _____    ______ ____
ROOT
ATOM      1  C   UNL     1      -0.235  11.595  19.860  0.00  0.00    +0.000 A 
ATOM      2  C   UNL     1      -1.515  11.521  19.294  0.00  0.00    +0.000 A 
ATOM      3  C   UNL     1      -1.752  10.587  18.283  0.00  0.00    +0.000 A 
ATOM      4  C   UNL     1      -0.711   9.775  17.816  0.00  0.00    +0.000 A 
ATOM      5  C   UNL     1       0.579   9.888  18.333  0.00  0.00    +0.000 A 
ATOM      6  C   UNL     1       0.806  10.800  19.378  0.00  0.00    +0.000 A 
ENDROOT
BRANCH   5   7
ATOM      7  N   UNL     1       1.695   9.188  17.828  0.00  0.00    +0.000 N 
ATOM      8  C   UNL     1       2.374   8.130  18.423  0.00  0.00    +0.000 C 
ATOM      9  O   UNL     1       2.190   7.700  19.560  0.00  0.00    +0.000 OA
ATOM     10  H   UNL     1       1.946   9.384  16.865  0.00  0.00    +0.000 HD
BRANCH   8  11
ATOM     11  C   UNL     1       3.364   7.442  17.459  0.00  0.00    +0.000 C 
BRANCH  11  12
ATOM     12  N   UNL     1       3.817   6.235  18.118  0.00  0.00    +0.000 N 
ATOM     13  C   UNL     1       5.254   5.899  18.098  0.00  0.00    +0.000 C 
ATOM     14  C   UNL     1       5.371   4.834  19.188  0.00  0.00    +0.000 C 
ATOM     15  C   UNL     1       4.145   4.075  18.788  0.00  0.00    +0.000 A 
ATOM     16  C   UNL     1       3.929   2.716  18.790  0.00  0.00    +0.000 A 
ATOM     17  C   UNL     1       2.719   2.264  18.270  0.00  0.00    +0.000 A 
ATOM     18  C   UNL     1       1.727   3.175  17.864  0.00  0.00    +0.000 A 
ATOM     19  C   UNL     1       1.964   4.558  17.868  0.00  0.00    +0.000 A 
ATOM     20  C   UNL     1       3.217   4.992  18.242  0.00  0.00    +0.000 A 
ENDBRANCH  11  12
ENDBRANCH   8  11
ENDBRANCH   5   7
BRANCH   1  21
ATOM     21  S   UNL     1       0.118  12.824  21.130  0.00  0.00    +0.000 S 
ATOM     22  O   UNL     1      -0.529  14.053  20.682  0.00  0.00    +0.000 OA
ATOM     23  O   UNL     1       1.545  12.781  21.369  0.00  0.00    +0.000 OA
BRANCH  21  25
ATOM     24  C   UNL     1      -0.665  10.809  22.789  0.00  0.00    +0.000 C 
ATOM     25  N   UNL     1      -0.717  12.242  22.470  0.00  0.00    +0.000 N 
BRANCH  25  26
ATOM     26  C   UNL     1      -1.704  13.032  23.123  0.00  0.00    +0.000 A 
ATOM     27  C   UNL     1      -3.000  12.535  23.288  0.00  0.00    +0.000 A 
ATOM     28  C   UNL     1      -3.902  13.187  24.141  0.00  0.00    +0.000 A 
ATOM     29  C   UNL     1      -3.494  14.329  24.829  0.00  0.00    +0.000 A 
ATOM     30  C   UNL     1      -2.205  14.835  24.652  0.00  0.00    +0.000 A 
ATOM     31  C   UNL     1      -1.308  14.185  23.803  0.00  0.00    +0.000 A 
ENDBRANCH  25  26
ENDBRANCH  21  25
ENDBRANCH   1  21
TORSDOF 6
ENDMDL
MODEL 4
REMARK VINA RESULT:      -8.4      5.894      8.933
REMARK  Name = 
REMARK  7 active torsions:
REMARK  status: ('A' for Active; 'I' for Inactive)
REMARK    1  A    between atoms: C_1  and  N_2
REMARK    2  A    between atoms: N_2  and  C_3
REMARK    3  A    between atoms: N_2  and  S_9
REMARK    4  A    between atoms: S_9  and  C_12
REMARK    5  A    between atoms: C_16  and  N_17
REMARK    6  A    between atoms: C_18  and  C_20
REMARK    7  A    between atoms: C_20  and  N_21
REMARK                            x       y       z     vdW  Elec       q    Type
REMARK                         _______ _______ _______ _____ _____    ______ ____
ROOT
ATOM      1  C   UNL     1       1.226   9.126  19.817  0.00  0.00    +0.000 A 
ATOM      2  C   UNL     1       1.417   9.764  18.584  0.00  0.00    +0.000 A 
ATOM      3  C   UNL     1       2.186   9.126  17.607  0.00  0.00    +0.000 A 
ATOM      4  C   UNL     1       2.791   7.893  17.880  0.00  0.00    +0.000 A 
ATOM      5  C   UNL     1       2.654   7.284  19.127  0.00  0.00    +0.000 A 
ATOM      6  C   UNL     1       1.847   7.908  20.095  0.00  0.00    +0.000 A 
ENDROOT
BRANCH   5   7
ATOM      7  N   UNL     1       3.331   6.106  19.507  0.00  0.00    +0.000 N 
ATOM      8  C   UNL     1       3.090   4.808  19.067  0.00  0.00    +0.000 C 
ATOM      9  O   UNL     1       2.155   4.448  18.354  0.00  0.00    +0.000 OA
ATOM     10  H   UNL     1       4.174   6.233  20.056  0.00  0.00    +0.000 HD
BRANCH   8  11
ATOM     11  C   UNL     1       4.201   3.822  19.488  0.00  0.00    +0.000 C 
BRANCH  11  12
ATOM     12  N   UNL     1       5.383   4.180  18.733  0.00  0.00    +0.000 N 
ATOM     13  C   UNL     1       6.256   5.262  19.230  0.00  0.00    +0.000 C 
ATOM     14  C   UNL     1       7.537   5.068  18.420  0.00  0.00    +0.000 C 
ATOM     15  C   UNL     1       6.852   4.837  17.110  0.00  0.00    +0.000 A 
ATOM     16  C   UNL     1       7.229   5.246  15.851  0.00  0.00    +0.000 A 
ATOM     17  C   UNL     1       6.351   4.979  14.805  0.00  0.00    +0.000 A 
ATOM     18  C   UNL     1       5.182   4.227  15.024  0.00  0.00    +0.000 A 
ATOM     19  C   UNL     1       4.811   3.818  16.314  0.00  0.00    +0.000 A 
ATOM     20  C   UNL     1       5.608   4.214  17.366  0.00  0.00    +0.000 A 
ENDBRANCH  11  12
ENDBRANCH   8  11
ENDBRANCH   5   7
BRANCH   1  21
ATOM     21  S   UNL     1       0.284   9.945  21.117  0.00  0.00    +0.000 S 
ATOM     22  O   UNL     1       1.233  10.197  22.196  0.00  0.00    +0.000 OA
ATOM     23  O   UNL     1      -0.901   9.144  21.342  0.00  0.00    +0.000 OA
BRANCH  21  25
ATOM     24  C   UNL     1       0.600  12.632  20.802  0.00  0.00    +0.000 C 
ATOM     25  N   UNL     1      -0.132  11.418  20.419  0.00  0.00    +0.000 N 
BRANCH  25  26
ATOM     26  C   UNL     1      -1.353  11.577  19.705  0.00  0.00    +0.000 A 
ATOM     27  C   UNL     1      -1.647  10.736  18.627  0.00  0.00    +0.000 A 
ATOM     28  C   UNL     1      -2.938  10.714  18.083  0.00  0.00    +0.000 A 
ATOM     29  C   UNL     1      -3.929  11.530  18.628  0.00  0.00    +0.000 A 
ATOM     30  C   UNL     1      -3.632  12.381  19.693  0.00  0.00    +0.000 A 
ATOM     31  C   UNL     1      -2.346  12.403  20.235  0.00  0.00    +0.000 A 
ENDBRANCH  25  26
ENDBRANCH  21  25
ENDBRANCH   1  21
TORSDOF 6
ENDMDL
MODEL 5
REMARK VINA RESULT:      -8.3      5.849      9.845
REMARK  Name = 
REMARK  7 active torsions:
REMARK  status: ('A' for Active; 'I' for Inactive)
REMARK    1  A    between atoms: C_1  and  N_2
REMARK    2  A    between atoms: N_2  and  C_3
REMARK    3  A    between atoms: N_2  and  S_9
REMARK    4  A    between atoms: S_9  and  C_12
REMARK    5  A    between atoms: C_16  and  N_17
REMARK    6  A    between atoms: C_18  and  C_20
REMARK    7  A    between atoms: C_20  and  N_21
REMARK                            x       y       z     vdW  Elec       q    Type
REMARK                         _______ _______ _______ _____ _____    ______ ____
ROOT
ATOM      1  C   UNL     1       1.127   9.127  20.107  0.00  0.00    +0.000 A 
ATOM      2  C   UNL     1       0.945   9.964  18.999  0.00  0.00    +0.000 A 
ATOM      3  C   UNL     1       1.462   9.566  17.763  0.00  0.00    +0.000 A 
ATOM      4  C   UNL     1       2.187   8.373  17.653  0.00  0.00    +0.000 A 
ATOM      5  C   UNL     1       2.423   7.568  18.767  0.00  0.00    +0.000 A 
ATOM      6  C   UNL     1       1.868   7.949  20.001  0.00  0.00    +0.000 A 
ENDROOT
BRANCH   5   7
ATOM      7  N   UNL     1       3.243   6.419  18.750  0.00  0.00    +0.000 N 
ATOM      8  C   UNL     1       4.389   6.206  17.992  0.00  0.00    +0.000 C 
ATOM      9  O   UNL     1       4.819   6.943  17.107  0.00  0.00    +0.000 OA
ATOM     10  H   UNL     1       3.057   5.728  19.468  0.00  0.00    +0.000 HD
BRANCH   8  11
ATOM     11  C   UNL     1       5.172   4.952  18.439  0.00  0.00    +0.000 C 
BRANCH  11  12
ATOM     12  N   UNL     1       4.215   3.868  18.507  0.00  0.00    +0.000 N 
ATOM     13  C   UNL     1       3.480   3.476  17.288  0.00  0.00    +0.000 C 
ATOM     14  C   UNL     1       2.907   2.109  17.659  0.00  0.00    +0.000 C 
ATOM     15  C   UNL     1       2.460   2.502  19.032  0.00  0.00    +0.000 A 
ATOM     16  C   UNL     1       1.329   2.120  19.716  0.00  0.00    +0.000 A 
ATOM     17  C   UNL     1       1.102   2.716  20.954  0.00  0.00    +0.000 A 
ATOM     18  C   UNL     1       2.053   3.587  21.516  0.00  0.00    +0.000 A 
ATOM     19  C   UNL     1       3.202   3.967  20.804  0.00  0.00    +0.000 A 
ATOM     20  C   UNL     1       3.346   3.491  19.519  0.00  0.00    +0.000 A 
ENDBRANCH  11  12
ENDBRANCH   8  11
ENDBRANCH   5   7
BRANCH   1  21
ATOM     21  S   UNL     1       0.519   9.635  21.727  0.00  0.00    +0.000 S 
ATOM     22  O   UNL     1       1.689   9.664  22.598  0.00  0.00    +0.000 OA
ATOM     23  O   UNL     1      -0.614   8.788  22.033  0.00  0.00    +0.000 OA
BRANCH  21  25
ATOM     24  C   UNL     1       1.009  12.271  21.243  0.00  0.00    +0.000 C 
ATOM     25  N   UNL     1       0.011  11.218  21.466  0.00  0.00    +0.000 N 
BRANCH  25  26
ATOM     26  C   UNL     1      -1.325  11.618  21.751  0.00  0.00    +0.000 A 
ATOM     27  C   UNL     1      -1.777  11.656  23.074  0.00  0.00    +0.000 A 
ATOM     28  C   UNL     1      -2.991  12.282  23.387  0.00  0.00    +0.000 A 
ATOM     29  C   UNL     1      -3.741  12.874  22.370  0.00  0.00    +0.000 A 
ATOM     30  C   UNL     1      -3.299  12.822  21.048  0.00  0.00    +0.000 A 
ATOM     31  C   UNL     1      -2.090  12.199  20.737  0.00  0.00    +0.000 A 
ENDBRANCH  25  26
ENDBRANCH  21  25
ENDBRANCH   1  21
TORSDOF 6
ENDMDL
MODEL 6
REMARK VINA RESULT:      -8.2      1.264      1.833
REMARK  Name = 
REMARK  7 active torsions:
REMARK  status: ('A' for Active; 'I' for Inactive)
REMARK    1  A    between atoms: C_1  and  N_2
REMARK    2  A    between atoms: N_2  and  C_3
REMARK    3  A    between atoms: N_2  and  S_9
REMARK    4  A    between atoms: S_9  and  C_12
REMARK    5  A    between atoms: C_16  and  N_17
REMARK    6  A    between atoms: C_18  and  C_20
REMARK    7  A    between atoms: C_20  and  N_21
REMARK                            x       y       z     vdW  Elec       q    Type
REMARK                         _______ _______ _______ _____ _____    ______ ____
ROOT
ATOM      1  C   UNL     1       6.464   6.282  17.430  0.00  0.00    +0.000 A 
ATOM      2  C   UNL     1       7.148   5.419  18.296  0.00  0.00    +0.000 A 
ATOM      3  C   UNL     1       8.166   5.939  19.100  0.00  0.00    +0.000 A 
ATOM      4  C   UNL     1       8.520   7.290  19.002  0.00  0.00    +0.000 A 
ATOM      5  C   UNL     1       7.883   8.139  18.097  0.00  0.00    +0.000 A 
ATOM      6  C   UNL     1       6.833   7.623  17.318  0.00  0.00    +0.000 A 
ENDROOT
BRANCH   5   7
ATOM      7  N   UNL     1       8.270   9.476  17.864  0.00  0.00    +0.000 N 
ATOM      8  C   UNL     1       9.029  10.297  18.691  0.00  0.00    +0.000 C 
ATOM      9  O   UNL     1       9.394  10.033  19.835  0.00  0.00    +0.000 OA
ATOM     10  H   UNL     1       8.093   9.835  16.932  0.00  0.00    +0.000 HD
BRANCH   8  11
ATOM     11  C   UNL     1       9.481  11.595  17.987  0.00  0.00    +0.000 C 
BRANCH  11  12
ATOM     12  N   UNL     1       9.900  12.509  19.028  0.00  0.00    +0.000 N 
ATOM     13  C   UNL     1       8.907  12.988  20.010  0.00  0.00    +0.000 C 
ATOM     14  C   UNL     1       9.779  13.572  21.120  0.00  0.00    +0.000 C 
ATOM     15  C   UNL     1      10.728  14.282  20.207  0.00  0.00    +0.000 A 
ATOM     16  C   UNL     1      11.333  15.507  20.370  0.00  0.00    +0.000 A 
ATOM     17  C   UNL     1      12.102  15.983  19.311  0.00  0.00    +0.000 A 
ATOM     18  C   UNL     1      12.332  15.185  18.176  0.00  0.00    +0.000 A 
ATOM     19  C   UNL     1      11.706  13.938  18.025  0.00  0.00    +0.000 A 
ATOM     20  C   UNL     1      10.827  13.538  19.008  0.00  0.00    +0.000 A 
ENDBRANCH  11  12
ENDBRANCH   8  11
ENDBRANCH   5   7
BRANCH   1  21
ATOM     21  S   UNL     1       5.182   5.633  16.342  0.00  0.00    +0.000 S 
ATOM     22  O   UNL     1       5.570   4.258  16.048  0.00  0.00    +0.000 OA
ATOM     23  O   UNL     1       5.008   6.599  15.278  0.00  0.00    +0.000 OA
BRANCH  21  25
ATOM     24  C   UNL     1       3.255   6.863  17.824  0.00  0.00    +0.000 C 
ATOM     25  N   UNL     1       3.820   5.601  17.330  0.00  0.00    +0.000 N 
BRANCH  25  26
ATOM     26  C   UNL     1       3.382   4.393  17.940  0.00  0.00    +0.000 A 
ATOM     27  C   UNL     1       2.621   3.476  17.208  0.00  0.00    +0.000 A 
ATOM     28  C   UNL     1       2.400   2.185  17.709  0.00  0.00    +0.000 A 
ATOM     29  C   UNL     1       2.951   1.820  18.938  0.00  0.00    +0.000 A 
ATOM     30  C   UNL     1       3.696   2.741  19.676  0.00  0.00    +0.000 A 
ATOM     31  C   UNL     1       3.916   4.025  19.177  0.00  0.00    +0.000 A 
ENDBRANCH  25  26
ENDBRANCH  21  25
ENDBRANCH   1  21
TORSDOF 6
ENDMDL
MODEL 7
REMARK VINA RESULT:      -8.2      5.953      9.080
REMARK  Name = 
REMARK  7 active torsions:
REMARK  status: ('A' for Active; 'I' for Inactive)
REMARK    1  A    between atoms: C_1  and  N_2
REMARK    2  A    between atoms: N_2  and  C_3
REMARK    3  A    between atoms: N_2  and  S_9
REMARK    4  A    between atoms: S_9  and  C_12
REMARK    5  A    between atoms: C_16  and  N_17
REMARK    6  A    between atoms: C_18  and  C_20
REMARK    7  A    between atoms: C_20  and  N_21
REMARK                            x       y       z     vdW  Elec       q    Type
REMARK                         _______ _______ _______ _____ _____    ______ ____
ROOT
ATOM      1  C   UNL     1       1.053   9.723  19.655  0.00  0.00    +0.000 A 
ATOM      2  C   UNL     1       1.385  10.337  18.441  0.00  0.00    +0.000 A 
ATOM      3  C   UNL     1       2.134   9.618  17.505  0.00  0.00    +0.000 A 
ATOM      4  C   UNL     1       2.582   8.325  17.804  0.00  0.00    +0.000 A 
ATOM      5  C   UNL     1       2.306   7.734  19.036  0.00  0.00    +0.000 A 
ATOM      6  C   UNL     1       1.518   8.443  19.960  0.00  0.00    +0.000 A 
ENDROOT
BRANCH   5   7
ATOM      7  N   UNL     1       2.825   6.488  19.446  0.00  0.00    +0.000 N 
ATOM      8  C   UNL     1       2.668   5.255  18.820  0.00  0.00    +0.000 C 
ATOM      9  O   UNL     1       1.940   5.020  17.858  0.00  0.00    +0.000 OA
ATOM     10  H   UNL     1       3.500   6.513  20.203  0.00  0.00    +0.000 HD
BRANCH   8  11
ATOM     11  C   UNL     1       3.602   4.171  19.401  0.00  0.00    +0.000 C 
BRANCH  11  12
ATOM     12  N   UNL     1       4.911   4.400  18.830  0.00  0.00    +0.000 N 
ATOM     13  C   UNL     1       5.758   5.478  19.377  0.00  0.00    +0.000 C 
ATOM     14  C   UNL     1       7.139   5.148  18.813  0.00  0.00    +0.000 C 
ATOM     15  C   UNL     1       6.665   4.832  17.430  0.00  0.00    +0.000 A 
ATOM     16  C   UNL     1       7.268   5.106  16.224  0.00  0.00    +0.000 A 
ATOM     17  C   UNL     1       6.557   4.788  15.069  0.00  0.00    +0.000 A 
ATOM     18  C   UNL     1       5.324   4.118  15.149  0.00  0.00    +0.000 A 
ATOM     19  C   UNL     1       4.721   3.847  16.387  0.00  0.00    +0.000 A 
ATOM     20  C   UNL     1       5.359   4.298  17.522  0.00  0.00    +0.000 A 
ENDBRANCH  11  12
ENDBRANCH   8  11
ENDBRANCH   5   7
BRANCH   1  21
ATOM     21  S   UNL     1       0.133  10.640  20.905  0.00  0.00    +0.000 S 
ATOM     22  O   UNL     1       1.137  11.305  21.728  0.00  0.00    +0.000 OA
ATOM     23  O   UNL     1      -0.813   9.714  21.491  0.00  0.00    +0.000 OA
BRANCH  21  25
ATOM     24  C   UNL     1      -0.165  13.186  19.982  0.00  0.00    +0.000 C 
ATOM     25  N   UNL     1      -0.675  11.809  20.004  0.00  0.00    +0.000 N 
BRANCH  25  26
ATOM     26  C   UNL     1      -1.991  11.581  19.513  0.00  0.00    +0.000 A 
ATOM     27  C   UNL     1      -3.061  12.336  20.001  0.00  0.00    +0.000 A 
ATOM     28  C   UNL     1      -4.304  12.299  19.353  0.00  0.00    +0.000 A 
ATOM     29  C   UNL     1      -4.462  11.509  18.215  0.00  0.00    +0.000 A 
ATOM     30  C   UNL     1      -3.399  10.742  17.737  0.00  0.00    +0.000 A 
ATOM     31  C   UNL     1      -2.163  10.780  18.381  0.00  0.00    +0.000 A 
ENDBRANCH  25  26
ENDBRANCH  21  25
ENDBRANCH   1  21
TORSDOF 6
ENDMDL
MODEL 8
REMARK VINA RESULT:      -8.2      4.723      7.549
REMARK  Name = 
REMARK  7 active torsions:
REMARK  status: ('A' for Active; 'I' for Inactive)
REMARK    1  A    between atoms: C_1  and  N_2
REMARK    2  A    between atoms: N_2  and  C_3
REMARK    3  A    between atoms: N_2  and  S_9
REMARK    4  A    between atoms: S_9  and  C_12
REMARK    5  A    between atoms: C_16  and  N_17
REMARK    6  A    between atoms: C_18  and  C_20
REMARK    7  A    between atoms: C_20  and  N_21
REMARK                            x       y       z     vdW  Elec       q    Type
REMARK                         _______ _______ _______ _____ _____    ______ ____
ROOT
ATOM      1  C   UNL     1       3.199   4.835  19.134  0.00  0.00    +0.000 A 
ATOM      2  C   UNL     1       2.387   4.258  20.119  0.00  0.00    +0.000 A 
ATOM      3  C   UNL     1       1.465   5.065  20.790  0.00  0.00    +0.000 A 
ATOM      4  C   UNL     1       1.392   6.435  20.509  0.00  0.00    +0.000 A 
ATOM      5  C   UNL     1       2.240   7.025  19.573  0.00  0.00    +0.000 A 
ATOM      6  C   UNL     1       3.140   6.204  18.870  0.00  0.00    +0.000 A 
ENDROOT
BRANCH   5   7
ATOM      7  N   UNL     1       2.302   8.414  19.329  0.00  0.00    +0.000 N 
ATOM      8  C   UNL     1       1.591   9.141  18.380  0.00  0.00    +0.000 C 
ATOM      9  O   UNL     1       0.872   8.673  17.500  0.00  0.00    +0.000 OA
ATOM     10  H   UNL     1       2.815   8.964  20.009  0.00  0.00    +0.000 HD
BRANCH   8  11
ATOM     11  C   UNL     1       1.711  10.666  18.589  0.00  0.00    +0.000 C 
BRANCH  11  12
ATOM     12  N   UNL     1       0.436  11.116  19.105  0.00  0.00    +0.000 N 
ATOM     13  C   UNL     1      -0.117  12.403  18.640  0.00  0.00    +0.000 C 
ATOM     14  C   UNL     1      -1.578  12.327  19.079  0.00  0.00    +0.000 C 
ATOM     15  C   UNL     1      -1.297  11.776  20.441  0.00  0.00    +0.000 A 
ATOM     16  C   UNL     1      -1.927  12.051  21.634  0.00  0.00    +0.000 A 
ATOM     17  C   UNL     1      -1.396  11.470  22.783  0.00  0.00    +0.000 A 
ATOM     18  C   UNL     1      -0.329  10.558  22.698  0.00  0.00    +0.000 A 
ATOM     19  C   UNL     1       0.304  10.290  21.474  0.00  0.00    +0.000 A 
ATOM     20  C   UNL     1      -0.129  10.982  20.364  0.00  0.00    +0.000 A 
ENDBRANCH  11  12
ENDBRANCH   8  11
ENDBRANCH   5   7
BRANCH   1  21
ATOM     21  S   UNL     1       4.435   3.834  18.287  0.00  0.00    +0.000 S 
ATOM     22  O   UNL     1       3.686   2.900  17.453  0.00  0.00    +0.000 OA
ATOM     23  O   UNL     1       5.351   3.354  19.300  0.00  0.00    +0.000 OA
BRANCH  21  25
ATOM     24  C   UNL     1       5.156   4.758  15.827  0.00  0.00    +0.000 C 
ATOM     25  N   UNL     1       5.205   4.943  17.283  0.00  0.00    +0.000 N 
BRANCH  25  26
ATOM     26  C   UNL     1       6.145   5.877  17.802  0.00  0.00    +0.000 A 
ATOM     27  C   UNL     1       7.005   5.501  18.838  0.00  0.00    +0.000 A 
ATOM     28  C   UNL     1       8.092   6.316  19.183  0.00  0.00    +0.000 A 
ATOM     29  C   UNL     1       8.314   7.500  18.479  0.00  0.00    +0.000 A 
ATOM     30  C   UNL     1       7.447   7.884  17.455  0.00  0.00    +0.000 A 
ATOM     31  C   UNL     1       6.365   7.072  17.113  0.00  0.00    +0.000 A 
ENDBRANCH  25  26
ENDBRANCH  21  25
ENDBRANCH   1  21
TORSDOF 6
ENDMDL
MODEL 9
REMARK VINA RESULT:      -8.1      5.836      9.071
REMARK  Name = 
REMARK  7 active torsions:
REMARK  status: ('A' for Active; 'I' for Inactive)
REMARK    1  A    between atoms: C_1  and  N_2
REMARK    2  A    between atoms: N_2  and  C_3
REMARK    3  A    between atoms: N_2  and  S_9
REMARK    4  A    between atoms: S_9  and  C_12
REMARK    5  A    between atoms: C_16  and  N_17
REMARK    6  A    between atoms: C_18  and  C_20
REMARK    7  A    between atoms: C_20  and  N_21
REMARK                            x       y       z     vdW  Elec       q    Type
REMARK                         _______ _______ _______ _____ _____    ______ ____
ROOT
ATOM      1  C   UNL     1       1.116   8.736  20.113  0.00  0.00    +0.000 A 
ATOM      2  C   UNL     1       1.242   9.456  18.918  0.00  0.00    +0.000 A 
ATOM      3  C   UNL     1       2.049   8.940  17.901  0.00  0.00    +0.000 A 
ATOM      4  C   UNL     1       2.752   7.745  18.098  0.00  0.00    +0.000 A 
ATOM      5  C   UNL     1       2.678   7.056  19.308  0.00  0.00    +0.000 A 
ATOM      6  C   UNL     1       1.835   7.556  20.315  0.00  0.00    +0.000 A 
ENDROOT
BRANCH   5   7
ATOM      7  N   UNL     1       3.451   5.916  19.615  0.00  0.00    +0.000 N 
ATOM      8  C   UNL     1       3.253   4.612  19.171  0.00  0.00    +0.000 C 
ATOM      9  O   UNL     1       2.288   4.205  18.527  0.00  0.00    +0.000 OA
ATOM     10  H   UNL     1       4.325   6.086  20.099  0.00  0.00    +0.000 HD
BRANCH   8  11
ATOM     11  C   UNL     1       4.449   3.689  19.489  0.00  0.00    +0.000 C 
BRANCH  11  12
ATOM     12  N   UNL     1       5.566   4.171  18.704  0.00  0.00    +0.000 N 
ATOM     13  C   UNL     1       6.344   5.327  19.192  0.00  0.00    +0.000 C 
ATOM     14  C   UNL     1       7.611   5.271  18.342  0.00  0.00    +0.000 C 
ATOM     15  C   UNL     1       6.911   4.990  17.049  0.00  0.00    +0.000 A 
ATOM     16  C   UNL     1       7.207   5.450  15.786  0.00  0.00    +0.000 A 
ATOM     17  C   UNL     1       6.326   5.111  14.762  0.00  0.00    +0.000 A 
ATOM     18  C   UNL     1       5.245   4.245  15.004  0.00  0.00    +0.000 A 
ATOM     19  C   UNL     1       4.956   3.786  16.298  0.00  0.00    +0.000 A 
ATOM     20  C   UNL     1       5.743   4.245  17.332  0.00  0.00    +0.000 A 
ENDBRANCH  11  12
ENDBRANCH   8  11
ENDBRANCH   5   7
BRANCH   1  21
ATOM     21  S   UNL     1       0.126   9.400  21.464  0.00  0.00    +0.000 S 
ATOM     22  O   UNL     1       1.077   9.993  22.398  0.00  0.00    +0.000 OA
ATOM     23  O   UNL     1      -0.768   8.343  21.887  0.00  0.00    +0.000 OA
BRANCH  21  25
ATOM     24  C   UNL     1      -1.345  10.419  19.409  0.00  0.00    +0.000 C 
ATOM     25  N   UNL     1      -0.742  10.640  20.730  0.00  0.00    +0.000 N 
BRANCH  25  26
ATOM     26  C   UNL     1      -0.659  11.979  21.206  0.00  0.00    +0.000 A 
ATOM     27  C   UNL     1      -1.323  12.347  22.379  0.00  0.00    +0.000 A 
ATOM     28  C   UNL     1      -1.048  13.579  22.989  0.00  0.00    +0.000 A 
ATOM     29  C   UNL     1      -0.101  14.430  22.421  0.00  0.00    +0.000 A 
ATOM     30  C   UNL     1       0.551  14.071  21.240  0.00  0.00    +0.000 A 
ATOM     31  C   UNL     1       0.276  12.845  20.634  0.00  0.00    +0.000 A 
ENDBRANCH  25  26
ENDBRANCH  21  25
ENDBRANCH   1  21
TORSDOF 6
ENDMDL
