MODEL 1
REMARK VINA RESULT:      -8.3      0.000      0.000
REMARK  Name = 
REMARK  9 active torsions:
REMARK  status: ('A' for Active; 'I' for Inactive)
REMARK    1  A    between atoms: C_1  and  C_2
REMARK    2  A    between atoms: C_2  and  C_3
REMARK    3  A    between atoms: C_10  and  C_11
REMARK    4  A    between atoms: N_13  and  C_14
REMARK    5  A    between atoms: C_14  and  C_15
REMARK    6  A    between atoms: N_19  and  C_20
REMARK    7  A    between atoms: C_20  and  C_21
REMARK    8  A    between atoms: C_21  and  C_22
REMARK    9  A    between atoms: C_22  and  C_23
REMARK                            x       y       z     vdW  Elec       q    Type
REMARK                         _______ _______ _______ _____ _____    ______ ____
ROOT
ATOM      1  C   UNL     1       2.686   8.199  18.001  0.00  0.00    +0.000 C 
ATOM      2  O   UNL     1       2.394   8.819  16.984  0.00  0.00    +0.000 OA
ATOM      3  N   UNL     1       3.722   7.299  18.055  0.00  0.00    +0.000 N 
ATOM      4  H   UNL     1       3.759   6.621  18.806  0.00  0.00    +0.000 HD
ENDROOT
BRANCH   1  14
ATOM      5  C   UNL     1      -1.393  11.396  19.936  0.00  0.00    +0.000 C 
ATOM      6  C   UNL     1      -0.238  11.125  20.898  0.00  0.00    +0.000 C 
ATOM      7  C   UNL     1       0.720  12.310  21.003  0.00  0.00    +0.000 C 
ATOM      8  C   UNL     1      -0.768  10.730  22.300  0.00  0.00    +0.000 C 
ATOM      9  O   UNL     1      -1.449  11.409  23.046  0.00  0.00    +0.000 OA
ATOM     10  N   UNL     1      -0.315   9.439  22.570  0.00  0.00    +0.000 N 
ATOM     11  C   UNL     1       0.436   8.930  21.522  0.00  0.00    +0.000 A 
ATOM     12  C   UNL     1       1.057   7.701  21.429  0.00  0.00    +0.000 A 
ATOM     13  C   UNL     1       1.787   7.427  20.262  0.00  0.00    +0.000 A 
ATOM     14  C   UNL     1       1.870   8.384  19.227  0.00  0.00    +0.000 A 
ATOM     15  C   UNL     1       1.219   9.617  19.350  0.00  0.00    +0.000 A 
ATOM     16  C   UNL     1       0.510   9.875  20.503  0.00  0.00    +0.000 A 
ATOM     17  H   UNL     1      -0.523   8.966  23.438  0.00  0.00    +0.000 HD
ENDBRANCH   1  14
BRANCH   3  18
ATOM     18  C   UNL     1       4.363   6.922  16.817  0.00  0.00    +0.000 C 
BRANCH  18  19
ATOM     19  C   UNL     1       5.666   6.273  17.113  0.00  0.00    +0.000 A 
ATOM     20  N   UNL     1       6.687   6.864  17.708  0.00  0.00    +0.000 NA
ATOM     21  C   UNL     1       7.627   5.890  17.902  0.00  0.00    +0.000 A 
ATOM     22  C   UNL     1       7.198   4.696  17.381  0.00  0.00    +0.000 A 
ATOM     23  N   UNL     1       5.967   4.955  16.842  0.00  0.00    +0.000 N 
BRANCH  23  24
ATOM     24  C   UNL     1       5.134   3.963  16.189  0.00  0.00    +0.000 C 
BRANCH  24  25
ATOM     25  C   UNL     1       4.244   3.160  17.135  0.00  0.00    +0.000 C 
BRANCH  25  26
ATOM     26  C   UNL     1       2.857   3.767  17.388  0.00  0.00    +0.000 C 
BRANCH  26  27
ATOM     27  C   UNL     1       2.514   3.615  18.852  0.00  0.00    +0.000 A 
ATOM     28  C   UNL     1       3.433   3.020  19.727  0.00  0.00    +0.000 A 
ATOM     29  C   UNL     1       3.066   2.716  21.038  0.00  0.00    +0.000 A 
ATOM     30  C   UNL     1       1.782   3.015  21.488  0.00  0.00    +0.000 A 
ATOM     31  C   UNL     1       0.873   3.643  20.638  0.00  0.00    +0.000 A 
ATOM     32  C   UNL     1       1.237   3.945  19.325  0.00  0.00    +0.000 A 
ENDBRANCH  26  27
ENDBRANCH  25  26
ENDBRANCH  24  25
ENDBRANCH  23  24
ENDBRANCH  18  19
ENDBRANCH   3  18
TORSDOF 7
ENDMDL
MODEL 2
REMARK VINA RESULT:      -8.2      2.485      4.695
REMARK  Name = 
REMARK  9 active torsions:
REMARK  status: ('A' for Active; 'I' for Inactive)
REMARK    1  A    between atoms: C_1  and  C_2
REMARK    2  A    between atoms: C_2  and  C_3
REMARK    3  A    between atoms: C_10  and  C_11
REMARK    4  A    between atoms: N_13  and  C_14
REMARK    5  A    between atoms: C_14  and  C_15
REMARK    6  A    between atoms: N_19  and  C_20
REMARK    7  A    between atoms: C_20  and  C_21
REMARK    8  A    between atoms: C_21  and  C_22
REMARK    9  A    between atoms: C_22  and  C_23
REMARK                            x       y       z     vdW  Elec       q    Type
REMARK                         _______ _______ _______ _____ _____    ______ ____
ROOT
ATOM      1  C   UNL     1       1.673   9.078  18.260  0.00  0.00    +0.000 C 
ATOM      2  O   UNL     1       2.387   9.320  17.293  0.00  0.00    +0.000 OA
ATOM      3  N   UNL     1       1.858   7.984  19.070  0.00  0.00    +0.000 N 
ATOM      4  H   UNL     1       1.106   7.673  19.673  0.00  0.00    +0.000 HD
ENDROOT
BRANCH   1  14
ATOM      5  C   UNL     1      -3.829   9.255  17.707  0.00  0.00    +0.000 C 
ATOM      6  C   UNL     1      -3.077  10.541  17.367  0.00  0.00    +0.000 C 
ATOM      7  C   UNL     1      -2.934  10.748  15.860  0.00  0.00    +0.000 C 
ATOM      8  C   UNL     1      -3.761  11.769  18.021  0.00  0.00    +0.000 C 
ATOM      9  O   UNL     1      -4.889  12.177  17.818  0.00  0.00    +0.000 OA
ATOM     10  N   UNL     1      -2.839  12.343  18.896  0.00  0.00    +0.000 N 
ATOM     11  C   UNL     1      -1.642  11.645  18.910  0.00  0.00    +0.000 A 
ATOM     12  C   UNL     1      -0.498  11.916  19.634  0.00  0.00    +0.000 A 
ATOM     13  C   UNL     1       0.603  11.065  19.454  0.00  0.00    +0.000 A 
ATOM     14  C   UNL     1       0.527   9.972  18.563  0.00  0.00    +0.000 A 
ATOM     15  C   UNL     1      -0.651   9.720  17.852  0.00  0.00    +0.000 A 
ATOM     16  C   UNL     1      -1.724  10.567  18.034  0.00  0.00    +0.000 A 
ATOM     17  H   UNL     1      -3.051  13.171  19.435  0.00  0.00    +0.000 HD
ENDBRANCH   1  14
BRANCH   3  18
ATOM     18  C   UNL     1       2.803   6.977  18.648  0.00  0.00    +0.000 C 
BRANCH  18  19
ATOM     19  C   UNL     1       2.545   5.716  19.393  0.00  0.00    +0.000 A 
ATOM     20  N   UNL     1       2.233   5.646  20.675  0.00  0.00    +0.000 NA
ATOM     21  C   UNL     1       1.956   4.330  20.923  0.00  0.00    +0.000 A 
ATOM     22  C   UNL     1       2.143   3.575  19.794  0.00  0.00    +0.000 A 
ATOM     23  N   UNL     1       2.559   4.457  18.832  0.00  0.00    +0.000 N 
BRANCH  23  24
ATOM     24  C   UNL     1       2.864   4.089  17.463  0.00  0.00    +0.000 C 
BRANCH  24  25
ATOM     25  C   UNL     1       4.340   3.803  17.196  0.00  0.00    +0.000 C 
BRANCH  25  26
ATOM     26  C   UNL     1       5.031   4.799  16.255  0.00  0.00    +0.000 C 
BRANCH  26  27
ATOM     27  C   UNL     1       6.161   5.475  16.997  0.00  0.00    +0.000 A 
ATOM     28  C   UNL     1       6.848   4.782  18.003  0.00  0.00    +0.000 A 
ATOM     29  C   UNL     1       7.772   5.444  18.812  0.00  0.00    +0.000 A 
ATOM     30  C   UNL     1       8.025   6.800  18.615  0.00  0.00    +0.000 A 
ATOM     31  C   UNL     1       7.376   7.489  17.591  0.00  0.00    +0.000 A 
ATOM     32  C   UNL     1       6.449   6.830  16.782  0.00  0.00    +0.000 A 
ENDBRANCH  26  27
ENDBRANCH  25  26
ENDBRANCH  24  25
ENDBRANCH  23  24
ENDBRANCH  18  19
ENDBRANCH   3  18
TORSDOF 7
ENDMDL
MODEL 3
REMARK VINA RESULT:      -8.2      2.450      8.695
REMARK  Name = 
REMARK  9 active torsions:
REMARK  status: ('A' for Active; 'I' for Inactive)
REMARK    1  A    between atoms: C_1  and  C_2
REMARK    2  A    between atoms: C_2  and  C_3
REMARK    3  A    between atoms: C_10  and  C_11
REMARK    4  A    between atoms: N_13  and  C_14
REMARK    5  A    between atoms: C_14  and  C_15
REMARK    6  A    between atoms: N_19  and  C_20
REMARK    7  A    between atoms: C_20  and  C_21
REMARK    8  A    between atoms: C_21  and  C_22
REMARK    9  A    between atoms: C_22  and  C_23
REMARK                            x       y       z     vdW  Elec       q    Type
REMARK                         _______ _______ _______ _____ _____    ______ ____
ROOT
ATOM      1  C   UNL     1       2.069   7.833  18.695  0.00  0.00    +0.000 C 
ATOM      2  O   UNL     1       1.564   8.089  17.607  0.00  0.00    +0.000 OA
ATOM      3  N   UNL     1       1.721   8.486  19.852  0.00  0.00    +0.000 N 
ATOM      4  H   UNL     1       2.335   8.445  20.655  0.00  0.00    +0.000 HD
ENDROOT
BRANCH   1  14
ATOM      5  C   UNL     1       7.397   7.132  17.380  0.00  0.00    +0.000 C 
ATOM      6  C   UNL     1       6.468   5.962  17.066  0.00  0.00    +0.000 C 
ATOM      7  C   UNL     1       6.108   5.889  15.583  0.00  0.00    +0.000 C 
ATOM      8  C   UNL     1       7.087   4.623  17.540  0.00  0.00    +0.000 C 
ATOM      9  O   UNL     1       8.126   4.117  17.158  0.00  0.00    +0.000 OA
ATOM     10  N   UNL     1       6.228   4.080  18.495  0.00  0.00    +0.000 N 
ATOM     11  C   UNL     1       5.129   4.895  18.718  0.00  0.00    +0.000 A 
ATOM     12  C   UNL     1       4.065   4.687  19.573  0.00  0.00    +0.000 A 
ATOM     13  C   UNL     1       3.053   5.659  19.601  0.00  0.00    +0.000 A 
ATOM     14  C   UNL     1       3.136   6.804  18.779  0.00  0.00    +0.000 A 
ATOM     15  C   UNL     1       4.233   6.988  17.930  0.00  0.00    +0.000 A 
ATOM     16  C   UNL     1       5.218   6.024  17.909  0.00  0.00    +0.000 A 
ATOM     17  H   UNL     1       6.413   3.195  18.945  0.00  0.00    +0.000 HD
ENDBRANCH   1  14
BRANCH   3  18
ATOM     18  C   UNL     1       0.874   9.651  19.749  0.00  0.00    +0.000 C 
BRANCH  18  19
ATOM     19  C   UNL     1       0.165   9.862  21.038  0.00  0.00    +0.000 A 
ATOM     20  N   UNL     1      -0.165   8.903  21.885  0.00  0.00    +0.000 NA
ATOM     21  C   UNL     1      -0.676   9.533  22.986  0.00  0.00    +0.000 A 
ATOM     22  C   UNL     1      -0.703  10.891  22.797  0.00  0.00    +0.000 A 
ATOM     23  N   UNL     1      -0.205  11.093  21.537  0.00  0.00    +0.000 N 
BRANCH  23  24
ATOM     24  C   UNL     1      -0.040  12.396  20.922  0.00  0.00    +0.000 C 
BRANCH  24  25
ATOM     25  C   UNL     1      -0.840  12.597  19.638  0.00  0.00    +0.000 C 
BRANCH  25  26
ATOM     26  C   UNL     1      -2.302  12.134  19.708  0.00  0.00    +0.000 C 
BRANCH  26  27
ATOM     27  C   UNL     1      -2.698  11.555  18.369  0.00  0.00    +0.000 A 
ATOM     28  C   UNL     1      -3.988  11.774  17.868  0.00  0.00    +0.000 A 
ATOM     29  C   UNL     1      -4.424  11.106  16.723  0.00  0.00    +0.000 A 
ATOM     30  C   UNL     1      -3.570  10.225  16.063  0.00  0.00    +0.000 A 
ATOM     31  C   UNL     1      -2.271  10.030  16.531  0.00  0.00    +0.000 A 
ATOM     32  C   UNL     1      -1.834  10.694  17.678  0.00  0.00    +0.000 A 
ENDBRANCH  26  27
ENDBRANCH  25  26
ENDBRANCH  24  25
ENDBRANCH  23  24
ENDBRANCH  18  19
ENDBRANCH   3  18
TORSDOF 7
ENDMDL
MODEL 4
REMARK VINA RESULT:      -8.1      1.880      4.108
REMARK  Name = 
REMARK  9 active torsions:
REMARK  status: ('A' for Active; 'I' for Inactive)
REMARK    1  A    between atoms: C_1  and  C_2
REMARK    2  A    between atoms: C_2  and  C_3
REMARK    3  A    between atoms: C_10  and  C_11
REMARK    4  A    between atoms: N_13  and  C_14
REMARK    5  A    between atoms: C_14  and  C_15
REMARK    6  A    between atoms: N_19  and  C_20
REMARK    7  A    between atoms: C_20  and  C_21
REMARK    8  A    between atoms: C_21  and  C_22
REMARK    9  A    between atoms: C_22  and  C_23
REMARK                            x       y       z     vdW  Elec       q    Type
REMARK                         _______ _______ _______ _____ _____    ______ ____
ROOT
ATOM      1  C   UNL     1       1.743   8.167  19.928  0.00  0.00    +0.000 C 
ATOM      2  O   UNL     1       1.935   8.478  18.758  0.00  0.00    +0.000 OA
ATOM      3  N   UNL     1       2.248   7.019  20.488  0.00  0.00    +0.000 N 
ATOM      4  H   UNL     1       1.851   6.665  21.350  0.00  0.00    +0.000 HD
ENDROOT
BRANCH   1  14
ATOM      5  C   UNL     1      -2.216  12.004  19.469  0.00  0.00    +0.000 C 
ATOM      6  C   UNL     1      -1.113  12.295  20.485  0.00  0.00    +0.000 C 
ATOM      7  C   UNL     1      -0.094  13.305  19.962  0.00  0.00    +0.000 C 
ATOM      8  C   UNL     1      -1.715  12.777  21.830  0.00  0.00    +0.000 C 
ATOM      9  O   UNL     1      -2.383  13.776  22.020  0.00  0.00    +0.000 OA
ATOM     10  N   UNL     1      -1.345  11.854  22.808  0.00  0.00    +0.000 N 
ATOM     11  C   UNL     1      -0.587  10.821  22.278  0.00  0.00    +0.000 A 
ATOM     12  C   UNL     1      -0.033   9.740  22.932  0.00  0.00    +0.000 A 
ATOM     13  C   UNL     1       0.721   8.835  22.170  0.00  0.00    +0.000 A 
ATOM     14  C   UNL     1       0.895   9.035  20.783  0.00  0.00    +0.000 A 
ATOM     15  C   UNL     1       0.311  10.138  20.150  0.00  0.00    +0.000 A 
ATOM     16  C   UNL     1      -0.423  11.022  20.910  0.00  0.00    +0.000 A 
ATOM     17  H   UNL     1      -1.610  11.960  23.776  0.00  0.00    +0.000 HD
ENDBRANCH   1  14
BRANCH   3  18
ATOM     18  C   UNL     1       2.858   6.046  19.614  0.00  0.00    +0.000 C 
BRANCH  18  19
ATOM     19  C   UNL     1       2.333   4.693  19.936  0.00  0.00    +0.000 A 
ATOM     20  N   UNL     1       1.848   4.331  21.111  0.00  0.00    +0.000 NA
ATOM     21  C   UNL     1       1.360   3.065  20.943  0.00  0.00    +0.000 A 
ATOM     22  C   UNL     1       1.587   2.626  19.664  0.00  0.00    +0.000 A 
ATOM     23  N   UNL     1       2.245   3.651  19.038  0.00  0.00    +0.000 N 
BRANCH  23  24
ATOM     24  C   UNL     1       2.673   3.623  17.653  0.00  0.00    +0.000 C 
BRANCH  24  25
ATOM     25  C   UNL     1       4.187   3.634  17.456  0.00  0.00    +0.000 C 
BRANCH  25  26
ATOM     26  C   UNL     1       4.702   4.689  16.467  0.00  0.00    +0.000 C 
BRANCH  26  27
ATOM     27  C   UNL     1       5.897   5.388  17.074  0.00  0.00    +0.000 A 
ATOM     28  C   UNL     1       6.683   4.728  18.027  0.00  0.00    +0.000 A 
ATOM     29  C   UNL     1       7.680   5.416  18.720  0.00  0.00    +0.000 A 
ATOM     30  C   UNL     1       7.906   6.765  18.457  0.00  0.00    +0.000 A 
ATOM     31  C   UNL     1       7.155   7.421  17.482  0.00  0.00    +0.000 A 
ATOM     32  C   UNL     1       6.156   6.736  16.790  0.00  0.00    +0.000 A 
ENDBRANCH  26  27
ENDBRANCH  25  26
ENDBRANCH  24  25
ENDBRANCH  23  24
ENDBRANCH  18  19
ENDBRANCH   3  18
TORSDOF 7
ENDMDL
MODEL 5
REMARK VINA RESULT:      -8.1      2.824      9.123
REMARK  Name = 
REMARK  9 active torsions:
REMARK  status: ('A' for Active; 'I' for Inactive)
REMARK    1  A    between atoms: C_1  and  C_2
REMARK    2  A    between atoms: C_2  and  C_3
REMARK    3  A    between atoms: C_10  and  C_11
REMARK    4  A    between atoms: N_13  and  C_14
REMARK    5  A    between atoms: C_14  and  C_15
REMARK    6  A    between atoms: N_19  and  C_20
REMARK    7  A    between atoms: C_20  and  C_21
REMARK    8  A    between atoms: C_21  and  C_22
REMARK    9  A    between atoms: C_22  and  C_23
REMARK                            x       y       z     vdW  Elec       q    Type
REMARK                         _______ _______ _______ _____ _____    ______ ____
ROOT
ATOM      1  C   UNL     1       2.055   5.645  20.181  0.00  0.00    +0.000 C 
ATOM      2  O   UNL     1       1.136   4.994  20.667  0.00  0.00    +0.000 OA
ATOM      3  N   UNL     1       2.258   6.974  20.461  0.00  0.00    +0.000 N 
ATOM      4  H   UNL     1       2.838   7.533  19.847  0.00  0.00    +0.000 HD
ENDROOT
BRANCH   1  14
ATOM      5  C   UNL     1       7.428   5.513  18.872  0.00  0.00    +0.000 C 
ATOM      6  C   UNL     1       6.453   5.593  17.699  0.00  0.00    +0.000 C 
ATOM      7  C   UNL     1       6.361   7.002  17.116  0.00  0.00    +0.000 C 
ATOM      8  C   UNL     1       6.831   4.573  16.595  0.00  0.00    +0.000 C 
ATOM      9  O   UNL     1       7.863   4.537  15.951  0.00  0.00    +0.000 OA
ATOM     10  N   UNL     1       5.761   3.689  16.458  0.00  0.00    +0.000 N 
ATOM     11  C   UNL     1       4.732   3.990  17.337  0.00  0.00    +0.000 A 
ATOM     12  C   UNL     1       3.516   3.354  17.485  0.00  0.00    +0.000 A 
ATOM     13  C   UNL     1       2.624   3.869  18.438  0.00  0.00    +0.000 A 
ATOM     14  C   UNL     1       2.974   4.997  19.213  0.00  0.00    +0.000 A 
ATOM     15  C   UNL     1       4.220   5.611  19.044  0.00  0.00    +0.000 A 
ATOM     16  C   UNL     1       5.085   5.099  18.101  0.00  0.00    +0.000 A 
ATOM     17  H   UNL     1       5.767   2.936  15.785  0.00  0.00    +0.000 HD
ENDBRANCH   1  14
BRANCH   3  18
ATOM     18  C   UNL     1       1.236   7.680  21.197  0.00  0.00    +0.000 C 
BRANCH  18  19
ATOM     19  C   UNL     1       1.004   9.008  20.572  0.00  0.00    +0.000 A 
ATOM     20  N   UNL     1       1.164   9.277  19.288  0.00  0.00    +0.000 NA
ATOM     21  C   UNL     1       0.725  10.560  19.114  0.00  0.00    +0.000 A 
ATOM     22  C   UNL     1       0.332  11.102  20.311  0.00  0.00    +0.000 A 
ATOM     23  N   UNL     1       0.552  10.124  21.243  0.00  0.00    +0.000 N 
BRANCH  23  24
ATOM     24  C   UNL     1       0.263  10.262  22.658  0.00  0.00    +0.000 C 
BRANCH  24  25
ATOM     25  C   UNL     1      -1.183  10.634  22.976  0.00  0.00    +0.000 C 
BRANCH  25  26
ATOM     26  C   UNL     1      -1.462  12.141  23.048  0.00  0.00    +0.000 C 
BRANCH  26  27
ATOM     27  C   UNL     1      -2.955  12.368  22.989  0.00  0.00    +0.000 A 
ATOM     28  C   UNL     1      -3.573  12.641  21.761  0.00  0.00    +0.000 A 
ATOM     29  C   UNL     1      -4.914  13.021  21.714  0.00  0.00    +0.000 A 
ATOM     30  C   UNL     1      -5.652  13.121  22.892  0.00  0.00    +0.000 A 
ATOM     31  C   UNL     1      -5.057  12.813  24.115  0.00  0.00    +0.000 A 
ATOM     32  C   UNL     1      -3.715  12.435  24.165  0.00  0.00    +0.000 A 
ENDBRANCH  26  27
ENDBRANCH  25  26
ENDBRANCH  24  25
ENDBRANCH  23  24
ENDBRANCH  18  19
ENDBRANCH   3  18
TORSDOF 7
ENDMDL
MODEL 6
REMARK VINA RESULT:      -8.1      2.097      4.113
REMARK  Name = 
REMARK  9 active torsions:
REMARK  status: ('A' for Active; 'I' for Inactive)
REMARK    1  A    between atoms: C_1  and  C_2
REMARK    2  A    between atoms: C_2  and  C_3
REMARK    3  A    between atoms: C_10  and  C_11
REMARK    4  A    between atoms: N_13  and  C_14
REMARK    5  A    between atoms: C_14  and  C_15
REMARK    6  A    between atoms: N_19  and  C_20
REMARK    7  A    between atoms: C_20  and  C_21
REMARK    8  A    between atoms: C_21  and  C_22
REMARK    9  A    between atoms: C_22  and  C_23
REMARK                            x       y       z     vdW  Elec       q    Type
REMARK                         _______ _______ _______ _____ _____    ______ ____
ROOT
ATOM      1  C   UNL     1       1.477   8.333  20.193  0.00  0.00    +0.000 C 
ATOM      2  O   UNL     1       1.781   8.712  19.067  0.00  0.00    +0.000 OA
ATOM      3  N   UNL     1       1.872   7.121  20.705  0.00  0.00    +0.000 N 
ATOM      4  H   UNL     1       1.388   6.732  21.504  0.00  0.00    +0.000 HD
ENDROOT
BRANCH   1  14
ATOM      5  C   UNL     1      -2.454  12.194  19.698  0.00  0.00    +0.000 C 
ATOM      6  C   UNL     1      -1.379  12.461  20.749  0.00  0.00    +0.000 C 
ATOM      7  C   UNL     1      -0.342  13.477  20.274  0.00  0.00    +0.000 C 
ATOM      8  C   UNL     1      -2.015  12.920  22.086  0.00  0.00    +0.000 C 
ATOM      9  O   UNL     1      -2.684  13.919  22.276  0.00  0.00    +0.000 OA
ATOM     10  N   UNL     1      -1.675  11.978  23.056  0.00  0.00    +0.000 N 
ATOM     11  C   UNL     1      -0.907  10.952  22.528  0.00  0.00    +0.000 A 
ATOM     12  C   UNL     1      -0.375   9.856  23.177  0.00  0.00    +0.000 A 
ATOM     13  C   UNL     1       0.396   8.962  22.419  0.00  0.00    +0.000 A 
ATOM     14  C   UNL     1       0.609   9.188  21.041  0.00  0.00    +0.000 A 
ATOM     15  C   UNL     1       0.046  10.305  20.412  0.00  0.00    +0.000 A 
ATOM     16  C   UNL     1      -0.705  11.178  21.169  0.00  0.00    +0.000 A 
ATOM     17  H   UNL     1      -1.967  12.067  24.019  0.00  0.00    +0.000 HD
ENDBRANCH   1  14
BRANCH   3  18
ATOM     18  C   UNL     1       2.500   6.176  19.811  0.00  0.00    +0.000 C 
BRANCH  18  19
ATOM     19  C   UNL     1       2.196   4.793  20.262  0.00  0.00    +0.000 A 
ATOM     20  N   UNL     1       2.306   4.362  21.506  0.00  0.00    +0.000 NA
ATOM     21  C   UNL     1       1.810   3.088  21.508  0.00  0.00    +0.000 A 
ATOM     22  C   UNL     1       1.432   2.714  20.244  0.00  0.00    +0.000 A 
ATOM     23  N   UNL     1       1.719   3.789  19.446  0.00  0.00    +0.000 N 
BRANCH  23  24
ATOM     24  C   UNL     1       1.466   3.839  18.019  0.00  0.00    +0.000 C 
BRANCH  24  25
ATOM     25  C   UNL     1       2.677   3.515  17.148  0.00  0.00    +0.000 C 
BRANCH  25  26
ATOM     26  C   UNL     1       3.963   3.193  17.923  0.00  0.00    +0.000 C 
BRANCH  26  27
ATOM     27  C   UNL     1       4.986   4.269  17.646  0.00  0.00    +0.000 A 
ATOM     28  C   UNL     1       5.215   4.694  16.330  0.00  0.00    +0.000 A 
ATOM     29  C   UNL     1       6.272   5.557  16.039  0.00  0.00    +0.000 A 
ATOM     30  C   UNL     1       7.100   6.012  17.063  0.00  0.00    +0.000 A 
ATOM     31  C   UNL     1       6.857   5.627  18.381  0.00  0.00    +0.000 A 
ATOM     32  C   UNL     1       5.803   4.761  18.673  0.00  0.00    +0.000 A 
ENDBRANCH  26  27
ENDBRANCH  25  26
ENDBRANCH  24  25
ENDBRANCH  23  24
ENDBRANCH  18  19
ENDBRANCH   3  18
TORSDOF 7
ENDMDL
MODEL 7
REMARK VINA RESULT:      -8.1      2.659      8.374
REMARK  Name = 
REMARK  9 active torsions:
REMARK  status: ('A' for Active; 'I' for Inactive)
REMARK    1  A    between atoms: C_1  and  C_2
REMARK    2  A    between atoms: C_2  and  C_3
REMARK    3  A    between atoms: C_10  and  C_11
REMARK    4  A    between atoms: N_13  and  C_14
REMARK    5  A    between atoms: C_14  and  C_15
REMARK    6  A    between atoms: N_19  and  C_20
REMARK    7  A    between atoms: C_20  and  C_21
REMARK    8  A    between atoms: C_21  and  C_22
REMARK    9  A    between atoms: C_22  and  C_23
REMARK                            x       y       z     vdW  Elec       q    Type
REMARK                         _______ _______ _______ _____ _____    ______ ____
ROOT
ATOM      1  C   UNL     1       2.258   8.345  18.290  0.00  0.00    +0.000 C 
ATOM      2  O   UNL     1       2.182   9.182  17.397  0.00  0.00    +0.000 OA
ATOM      3  N   UNL     1       1.804   8.573  19.566  0.00  0.00    +0.000 N 
ATOM      4  H   UNL     1       2.124   7.983  20.325  0.00  0.00    +0.000 HD
ENDROOT
BRANCH   1  14
ATOM      5  C   UNL     1       1.133   2.933  18.506  0.00  0.00    +0.000 C 
ATOM      6  C   UNL     1       2.505   3.355  19.026  0.00  0.00    +0.000 C 
ATOM      7  C   UNL     1       2.562   3.389  20.553  0.00  0.00    +0.000 C 
ATOM      8  C   UNL     1       3.616   2.434  18.463  0.00  0.00    +0.000 C 
ATOM      9  O   UNL     1       3.735   1.235  18.635  0.00  0.00    +0.000 OA
ATOM     10  N   UNL     1       4.481   3.232  17.714  0.00  0.00    +0.000 N 
ATOM     11  C   UNL     1       4.075   4.557  17.703  0.00  0.00    +0.000 A 
ATOM     12  C   UNL     1       4.678   5.635  17.086  0.00  0.00    +0.000 A 
ATOM     13  C   UNL     1       4.081   6.894  17.246  0.00  0.00    +0.000 A 
ATOM     14  C   UNL     1       2.902   7.037  18.011  0.00  0.00    +0.000 A 
ATOM     15  C   UNL     1       2.311   5.922  18.614  0.00  0.00    +0.000 A 
ATOM     16  C   UNL     1       2.911   4.691  18.454  0.00  0.00    +0.000 A 
ATOM     17  H   UNL     1       5.297   2.856  17.253  0.00  0.00    +0.000 HD
ENDBRANCH   1  14
BRANCH   3  18
ATOM     18  C   UNL     1       1.407   9.916  19.919  0.00  0.00    +0.000 C 
BRANCH  18  19
ATOM     19  C   UNL     1       0.654   9.888  21.200  0.00  0.00    +0.000 A 
ATOM     20  N   UNL     1       0.829   8.996  22.160  0.00  0.00    +0.000 NA
ATOM     21  C   UNL     1       0.042   9.404  23.201  0.00  0.00    +0.000 A 
ATOM     22  C   UNL     1      -0.659  10.533  22.863  0.00  0.00    +0.000 A 
ATOM     23  N   UNL     1      -0.297  10.813  21.572  0.00  0.00    +0.000 N 
BRANCH  23  24
ATOM     24  C   UNL     1      -0.793  11.943  20.810  0.00  0.00    +0.000 C 
BRANCH  24  25
ATOM     25  C   UNL     1      -1.892  11.599  19.807  0.00  0.00    +0.000 C 
BRANCH  25  26
ATOM     26  C   UNL     1      -1.547  10.462  18.836  0.00  0.00    +0.000 C 
BRANCH  26  27
ATOM     27  C   UNL     1      -2.495  10.516  17.660  0.00  0.00    +0.000 A 
ATOM     28  C   UNL     1      -2.176   9.842  16.474  0.00  0.00    +0.000 A 
ATOM     29  C   UNL     1      -2.951  10.022  15.328  0.00  0.00    +0.000 A 
ATOM     30  C   UNL     1      -4.058  10.868  15.362  0.00  0.00    +0.000 A 
ATOM     31  C   UNL     1      -4.406  11.513  16.548  0.00  0.00    +0.000 A 
ATOM     32  C   UNL     1      -3.631  11.337  17.695  0.00  0.00    +0.000 A 
ENDBRANCH  26  27
ENDBRANCH  25  26
ENDBRANCH  24  25
ENDBRANCH  23  24
ENDBRANCH  18  19
ENDBRANCH   3  18
TORSDOF 7
ENDMDL
MODEL 8
REMARK VINA RESULT:      -8.1      1.988      4.196
REMARK  Name = 
REMARK  9 active torsions:
REMARK  status: ('A' for Active; 'I' for Inactive)
REMARK    1  A    between atoms: C_1  and  C_2
REMARK    2  A    between atoms: C_2  and  C_3
REMARK    3  A    between atoms: C_10  and  C_11
REMARK    4  A    between atoms: N_13  and  C_14
REMARK    5  A    between atoms: C_14  and  C_15
REMARK    6  A    between atoms: N_19  and  C_20
REMARK    7  A    between atoms: C_20  and  C_21
REMARK    8  A    between atoms: C_21  and  C_22
REMARK    9  A    between atoms: C_22  and  C_23
REMARK                            x       y       z     vdW  Elec       q    Type
REMARK                         _______ _______ _______ _____ _____    ______ ____
ROOT
ATOM      1  C   UNL     1       1.880   8.006  19.888  0.00  0.00    +0.000 C 
ATOM      2  O   UNL     1       2.236   8.235  18.737  0.00  0.00    +0.000 OA
ATOM      3  N   UNL     1       2.295   6.902  20.591  0.00  0.00    +0.000 N 
ATOM      4  H   UNL     1       1.779   6.607  21.411  0.00  0.00    +0.000 HD
ENDROOT
BRANCH   1  14
ATOM      5  C   UNL     1      -2.304  11.404  18.641  0.00  0.00    +0.000 C 
ATOM      6  C   UNL     1      -1.284  11.935  19.646  0.00  0.00    +0.000 C 
ATOM      7  C   UNL     1      -0.309  12.927  19.014  0.00  0.00    +0.000 C 
ATOM      8  C   UNL     1      -1.993  12.573  20.867  0.00  0.00    +0.000 C 
ATOM      9  O   UNL     1      -2.739  13.535  20.863  0.00  0.00    +0.000 OA
ATOM     10  N   UNL     1      -1.616  11.847  21.996  0.00  0.00    +0.000 N 
ATOM     11  C   UNL     1      -0.759  10.806  21.674  0.00  0.00    +0.000 A 
ATOM     12  C   UNL     1      -0.169   9.886  22.517  0.00  0.00    +0.000 A 
ATOM     13  C   UNL     1       0.688   8.935  21.945  0.00  0.00    +0.000 A 
ATOM     14  C   UNL     1       0.927   8.929  20.553  0.00  0.00    +0.000 A 
ATOM     15  C   UNL     1       0.304   9.869  19.725  0.00  0.00    +0.000 A 
ATOM     16  C   UNL     1      -0.532  10.802  20.300  0.00  0.00    +0.000 A 
ATOM     17  H   UNL     1      -1.943  12.082  22.922  0.00  0.00    +0.000 HD
ENDBRANCH   1  14
BRANCH   3  18
ATOM     18  C   UNL     1       3.015   5.872  19.881  0.00  0.00    +0.000 C 
BRANCH  18  19
ATOM     19  C   UNL     1       2.211   4.622  19.872  0.00  0.00    +0.000 A 
ATOM     20  N   UNL     1       1.547   4.143  20.909  0.00  0.00    +0.000 NA
ATOM     21  C   UNL     1       0.847   3.065  20.444  0.00  0.00    +0.000 A 
ATOM     22  C   UNL     1       1.118   2.850  19.117  0.00  0.00    +0.000 A 
ATOM     23  N   UNL     1       2.020   3.819  18.768  0.00  0.00    +0.000 N 
BRANCH  23  24
ATOM     24  C   UNL     1       2.577   3.978  17.438  0.00  0.00    +0.000 C 
BRANCH  24  25
ATOM     25  C   UNL     1       4.065   3.653  17.330  0.00  0.00    +0.000 C 
BRANCH  25  26
ATOM     26  C   UNL     1       4.865   4.585  16.410  0.00  0.00    +0.000 C 
BRANCH  26  27
ATOM     27  C   UNL     1       5.847   5.375  17.244  0.00  0.00    +0.000 A 
ATOM     28  C   UNL     1       6.426   6.540  16.724  0.00  0.00    +0.000 A 
ATOM     29  C   UNL     1       7.459   7.182  17.408  0.00  0.00    +0.000 A 
ATOM     30  C   UNL     1       7.913   6.671  18.622  0.00  0.00    +0.000 A 
ATOM     31  C   UNL     1       7.317   5.534  19.167  0.00  0.00    +0.000 A 
ATOM     32  C   UNL     1       6.286   4.889  18.483  0.00  0.00    +0.000 A 
ENDBRANCH  26  27
ENDBRANCH  25  26
ENDBRANCH  24  25
ENDBRANCH  23  24
ENDBRANCH  18  19
ENDBRANCH   3  18
TORSDOF 7
ENDMDL
MODEL 9
REMARK VINA RESULT:      -8.0      2.576      4.821
REMARK  Name = 
REMARK  9 active torsions:
REMARK  status: ('A' for Active; 'I' for Inactive)
REMARK    1  A    between atoms: C_1  and  C_2
REMARK    2  A    between atoms: C_2  and  C_3
REMARK    3  A    between atoms: C_10  and  C_11
REMARK    4  A    between atoms: N_13  and  C_14
REMARK    5  A    between atoms: C_14  and  C_15
REMARK    6  A    between atoms: N_19  and  C_20
REMARK    7  A    between atoms: C_20  and  C_21
REMARK    8  A    between atoms: C_21  and  C_22
REMARK    9  A    between atoms: C_22  and  C_23
REMARK                            x       y       z     vdW  Elec       q    Type
REMARK                         _______ _______ _______ _____ _____    ______ ____
ROOT
ATOM      1  C   UNL     1       1.620   9.055  18.377  0.00  0.00    +0.000 C 
ATOM      2  O   UNL     1       2.267   9.156  17.341  0.00  0.00    +0.000 OA
ATOM      3  N   UNL     1       1.885   8.106  19.334  0.00  0.00    +0.000 N 
ATOM      4  H   UNL     1       1.180   7.879  20.025  0.00  0.00    +0.000 HD
ENDROOT
BRANCH   1  14
ATOM      5  C   UNL     1      -3.841   9.273  17.520  0.00  0.00    +0.000 C 
ATOM      6  C   UNL     1      -3.061  10.549  17.210  0.00  0.00    +0.000 C 
ATOM      7  C   UNL     1      -2.833  10.740  15.712  0.00  0.00    +0.000 C 
ATOM      8  C   UNL     1      -3.768  11.789  17.814  0.00  0.00    +0.000 C 
ATOM      9  O   UNL     1      -4.880  12.205  17.545  0.00  0.00    +0.000 OA
ATOM     10  N   UNL     1      -2.891  12.364  18.733  0.00  0.00    +0.000 N 
ATOM     11  C   UNL     1      -1.702  11.656  18.820  0.00  0.00    +0.000 A 
ATOM     12  C   UNL     1      -0.597  11.924  19.602  0.00  0.00    +0.000 A 
ATOM     13  C   UNL     1       0.504  11.062  19.491  0.00  0.00    +0.000 A 
ATOM     14  C   UNL     1       0.467   9.962  18.607  0.00  0.00    +0.000 A 
ATOM     15  C   UNL     1      -0.673   9.713  17.835  0.00  0.00    +0.000 A 
ATOM     16  C   UNL     1      -1.746  10.570  17.950  0.00  0.00    +0.000 A 
ATOM     17  H   UNL     1      -3.124  13.199  19.251  0.00  0.00    +0.000 HD
ENDBRANCH   1  14
BRANCH   3  18
ATOM     18  C   UNL     1       2.833   7.065  19.017  0.00  0.00    +0.000 C 
BRANCH  18  19
ATOM     19  C   UNL     1       2.326   5.763  19.525  0.00  0.00    +0.000 A 
ATOM     20  N   UNL     1       1.832   5.565  20.734  0.00  0.00    +0.000 NA
ATOM     21  C   UNL     1       1.367   4.279  20.744  0.00  0.00    +0.000 A 
ATOM     22  C   UNL     1       1.618   3.665  19.544  0.00  0.00    +0.000 A 
ATOM     23  N   UNL     1       2.267   4.601  18.785  0.00  0.00    +0.000 N 
BRANCH  23  24
ATOM     24  C   UNL     1       2.714   4.383  17.423  0.00  0.00    +0.000 C 
BRANCH  24  25
ATOM     25  C   UNL     1       4.131   3.827  17.301  0.00  0.00    +0.000 C 
BRANCH  25  26
ATOM     26  C   UNL     1       5.007   4.011  18.548  0.00  0.00    +0.000 C 
BRANCH  26  27
ATOM     27  C   UNL     1       5.903   5.211  18.346  0.00  0.00    +0.000 A 
ATOM     28  C   UNL     1       5.720   6.039  17.231  0.00  0.00    +0.000 A 
ATOM     29  C   UNL     1       6.642   7.045  16.939  0.00  0.00    +0.000 A 
ATOM     30  C   UNL     1       7.747   7.237  17.766  0.00  0.00    +0.000 A 
ATOM     31  C   UNL     1       7.917   6.444  18.900  0.00  0.00    +0.000 A 
ATOM     32  C   UNL     1       6.997   5.436  19.192  0.00  0.00    +0.000 A 
ENDBRANCH  26  27
ENDBRANCH  25  26
ENDBRANCH  24  25
ENDBRANCH  23  24
ENDBRANCH  18  19
ENDBRANCH   3  18
TORSDOF 7
ENDMDL
