MODEL 1
REMARK VINA RESULT:      -8.9      0.000      0.000
REMARK  Name = 
REMARK  5 active torsions:
REMARK  status: ('A' for Active; 'I' for Inactive)
REMARK    1  A    between atoms: C_1  and  N_2
REMARK    2  A    between atoms: C_6  and  C_7
REMARK    3  A    between atoms: C_7  and  N_8
REMARK    4  A    between atoms: C_11  and  N_12
REMARK    5  A    between atoms: C_19  and  C_20
REMARK                            x       y       z     vdW  Elec       q    Type
REMARK                         _______ _______ _______ _____ _____    ______ ____
ROOT
ATOM      1  N   UNL     1       4.548   4.797  15.881  0.00  0.00    +0.000 N 
ATOM      2  C   UNL     1       4.224   5.075  17.225  0.00  0.00    +0.000 A 
ATOM      3  C   UNL     1       3.365   6.139  17.479  0.00  0.00    +0.000 A 
ATOM      4  C   UNL     1       3.082   6.483  18.802  0.00  0.00    +0.000 A 
ATOM      5  C   UNL     1       3.588   5.705  19.833  0.00  0.00    +0.000 A 
ATOM      6  C   UNL     1       4.348   4.606  19.487  0.00  0.00    +0.000 A 
ATOM      7  N   UNL     1       4.689   4.293  18.215  0.00  0.00    +0.000 NA
ATOM      8  H   UNL     1       3.762   4.272  15.499  0.00  0.00    +0.000 HD
ENDROOT
BRANCH   4   9
ATOM      9  N   UNL     1       2.290   7.614  19.084  0.00  0.00    +0.000 N 
ATOM     10  C   UNL     1       1.659   7.802  20.373  0.00  0.00    +0.000 C 
ATOM     11  C   UNL     1       0.945   9.106  20.204  0.00  0.00    +0.000 A 
ATOM     12  C   UNL     1       1.177   9.598  18.916  0.00  0.00    +0.000 A 
ATOM     13  C   UNL     1       0.583  10.753  18.441  0.00  0.00    +0.000 A 
ATOM     14  C   UNL     1      -0.249  11.456  19.316  0.00  0.00    +0.000 A 
ATOM     15  C   UNL     1      -0.457  10.996  20.630  0.00  0.00    +0.000 A 
ATOM     16  C   UNL     1       0.147   9.809  21.100  0.00  0.00    +0.000 A 
ATOM     17  C   UNL     1       2.090   8.680  18.219  0.00  0.00    +0.000 C 
ATOM     18  O   UNL     1       2.509   8.864  17.093  0.00  0.00    +0.000 OA
BRANCH  16  19
ATOM     19  C   UNL     1      -0.072   9.361  22.520  0.00  0.00    +0.000 C 
ATOM     20  F   UNL     1       1.084   9.150  23.209  0.00  0.00    +0.000 F 
ATOM     21  F   UNL     1      -0.773  10.271  23.249  0.00  0.00    +0.000 F 
ATOM     22  F   UNL     1      -0.766   8.196  22.598  0.00  0.00    +0.000 F 
ENDBRANCH  16  19
ENDBRANCH   4   9
BRANCH   1  23
ATOM     23  C   UNL     1       5.782   4.019  15.733  0.00  0.00    +0.000 C 
BRANCH  23  29
ATOM     24  C   UNL     1       5.761   3.336  12.682  0.00  0.00    +0.000 C 
ATOM     25  N   UNL     1       6.661   4.235  13.347  0.00  0.00    +0.000 N 
ATOM     26  C   UNL     1       7.663   4.944  12.756  0.00  0.00    +0.000 A 
ATOM     27  N   UNL     1       8.294   5.653  13.660  0.00  0.00    +0.000 NA
ATOM     28  N   UNL     1       7.695   5.404  14.873  0.00  0.00    +0.000 NA
ATOM     29  C   UNL     1       6.706   4.550  14.683  0.00  0.00    +0.000 A 
ENDBRANCH  23  29
ENDBRANCH   1  23
TORSDOF 4
ENDMDL
MODEL 2
REMARK VINA RESULT:      -8.7      4.477      8.964
REMARK  Name = 
REMARK  5 active torsions:
REMARK  status: ('A' for Active; 'I' for Inactive)
REMARK    1  A    between atoms: C_1  and  N_2
REMARK    2  A    between atoms: C_6  and  C_7
REMARK    3  A    between atoms: C_7  and  N_8
REMARK    4  A    between atoms: C_11  and  N_12
REMARK    5  A    between atoms: C_19  and  C_20
REMARK                            x       y       z     vdW  Elec       q    Type
REMARK                         _______ _______ _______ _____ _____    ______ ____
ROOT
ATOM      1  N   UNL     1       0.399  11.424  18.262  0.00  0.00    +0.000 N 
ATOM      2  C   UNL     1       0.774  10.396  19.151  0.00  0.00    +0.000 A 
ATOM      3  C   UNL     1       1.475   9.312  18.633  0.00  0.00    +0.000 A 
ATOM      4  C   UNL     1       1.797   8.246  19.474  0.00  0.00    +0.000 A 
ATOM      5  C   UNL     1       1.494   8.327  20.826  0.00  0.00    +0.000 A 
ATOM      6  C   UNL     1       0.889   9.484  21.274  0.00  0.00    +0.000 A 
ATOM      7  N   UNL     1       0.508  10.500  20.465  0.00  0.00    +0.000 NA
ATOM      8  H   UNL     1       1.226  12.004  18.128  0.00  0.00    +0.000 HD
ENDROOT
BRANCH   4   9
ATOM      9  N   UNL     1       2.423   7.098  18.952  0.00  0.00    +0.000 N 
ATOM     10  C   UNL     1       3.418   7.180  17.904  0.00  0.00    +0.000 C 
ATOM     11  C   UNL     1       3.786   5.746  17.684  0.00  0.00    +0.000 A 
ATOM     12  C   UNL     1       3.049   4.939  18.555  0.00  0.00    +0.000 A 
ATOM     13  C   UNL     1       3.118   3.559  18.531  0.00  0.00    +0.000 A 
ATOM     14  C   UNL     1       3.994   2.974  17.614  0.00  0.00    +0.000 A 
ATOM     15  C   UNL     1       4.776   3.775  16.760  0.00  0.00    +0.000 A 
ATOM     16  C   UNL     1       4.688   5.184  16.787  0.00  0.00    +0.000 A 
ATOM     17  C   UNL     1       2.225   5.804  19.413  0.00  0.00    +0.000 C 
ATOM     18  O   UNL     1       1.505   5.392  20.301  0.00  0.00    +0.000 OA
BRANCH  16  19
ATOM     19  C   UNL     1       5.559   6.012  15.881  0.00  0.00    +0.000 C 
ATOM     20  F   UNL     1       6.310   5.270  15.020  0.00  0.00    +0.000 F 
ATOM     21  F   UNL     1       4.837   6.861  15.100  0.00  0.00    +0.000 F 
ATOM     22  F   UNL     1       6.441   6.785  16.567  0.00  0.00    +0.000 F 
ENDBRANCH  16  19
ENDBRANCH   4   9
BRANCH   1  23
ATOM     23  C   UNL     1      -0.708  12.246  18.760  0.00  0.00    +0.000 C 
BRANCH  23  29
ATOM     24  C   UNL     1      -3.483  12.594  20.158  0.00  0.00    +0.000 C 
ATOM     25  N   UNL     1      -3.248  12.023  18.862  0.00  0.00    +0.000 N 
ATOM     26  C   UNL     1      -4.201  11.534  18.021  0.00  0.00    +0.000 A 
ATOM     27  N   UNL     1      -3.633  11.078  16.930  0.00  0.00    +0.000 NA
ATOM     28  N   UNL     1      -2.278  11.271  17.057  0.00  0.00    +0.000 NA
ATOM     29  C   UNL     1      -2.046  11.845  18.223  0.00  0.00    +0.000 A 
ENDBRANCH  23  29
ENDBRANCH   1  23
TORSDOF 4
ENDMDL
MODEL 3
REMARK VINA RESULT:      -8.7      1.876      2.649
REMARK  Name = 
REMARK  5 active torsions:
REMARK  status: ('A' for Active; 'I' for Inactive)
REMARK    1  A    between atoms: C_1  and  N_2
REMARK    2  A    between atoms: C_6  and  C_7
REMARK    3  A    between atoms: C_7  and  N_8
REMARK    4  A    between atoms: C_11  and  N_12
REMARK    5  A    between atoms: C_19  and  C_20
REMARK                            x       y       z     vdW  Elec       q    Type
REMARK                         _______ _______ _______ _____ _____    ______ ____
ROOT
ATOM      1  N   UNL     1       5.103   6.381  16.248  0.00  0.00    +0.000 N 
ATOM      2  C   UNL     1       4.223   6.226  17.338  0.00  0.00    +0.000 A 
ATOM      3  C   UNL     1       3.401   7.299  17.666  0.00  0.00    +0.000 A 
ATOM      4  C   UNL     1       2.569   7.202  18.784  0.00  0.00    +0.000 A 
ATOM      5  C   UNL     1       2.512   6.009  19.490  0.00  0.00    +0.000 A 
ATOM      6  C   UNL     1       3.285   4.961  19.032  0.00  0.00    +0.000 A 
ATOM      7  N   UNL     1       4.146   5.054  17.993  0.00  0.00    +0.000 NA
ATOM      8  H   UNL     1       4.548   6.232  15.406  0.00  0.00    +0.000 HD
ENDROOT
BRANCH   4   9
ATOM      9  N   UNL     1       1.799   8.309  19.190  0.00  0.00    +0.000 N 
ATOM     10  C   UNL     1       1.181   8.370  20.497  0.00  0.00    +0.000 C 
ATOM     11  C   UNL     1       0.487   9.696  20.472  0.00  0.00    +0.000 A 
ATOM     12  C   UNL     1       0.717  10.317  19.241  0.00  0.00    +0.000 A 
ATOM     13  C   UNL     1       0.139  11.524  18.895  0.00  0.00    +0.000 A 
ATOM     14  C   UNL     1      -0.674  12.144  19.847  0.00  0.00    +0.000 A 
ATOM     15  C   UNL     1      -0.880  11.553  21.107  0.00  0.00    +0.000 A 
ATOM     16  C   UNL     1      -0.292  10.314  21.445  0.00  0.00    +0.000 A 
ATOM     17  C   UNL     1       1.610   9.463  18.444  0.00  0.00    +0.000 C 
ATOM     18  O   UNL     1       2.024   9.757  17.339  0.00  0.00    +0.000 OA
BRANCH  16  19
ATOM     19  C   UNL     1      -0.508   9.723  22.811  0.00  0.00    +0.000 C 
ATOM     20  F   UNL     1       0.635   9.613  23.545  0.00  0.00    +0.000 F 
ATOM     21  F   UNL     1      -1.360  10.465  23.570  0.00  0.00    +0.000 F 
ATOM     22  F   UNL     1      -1.036   8.472  22.762  0.00  0.00    +0.000 F 
ENDBRANCH  16  19
ENDBRANCH   4   9
BRANCH   1  23
ATOM     23  C   UNL     1       6.227   5.439  16.273  0.00  0.00    +0.000 C 
BRANCH  23  29
ATOM     24  C   UNL     1       7.549   8.009  17.467  0.00  0.00    +0.000 C 
ATOM     25  N   UNL     1       7.621   6.682  18.011  0.00  0.00    +0.000 N 
ATOM     26  C   UNL     1       8.282   6.320  19.146  0.00  0.00    +0.000 A 
ATOM     27  N   UNL     1       8.149   5.030  19.341  0.00  0.00    +0.000 NA
ATOM     28  N   UNL     1       7.385   4.533  18.311  0.00  0.00    +0.000 NA
ATOM     29  C   UNL     1       7.063   5.532  17.510  0.00  0.00    +0.000 A 
ENDBRANCH  23  29
ENDBRANCH   1  23
TORSDOF 4
ENDMDL
MODEL 4
REMARK VINA RESULT:      -8.4      4.047      8.614
REMARK  Name = 
REMARK  5 active torsions:
REMARK  status: ('A' for Active; 'I' for Inactive)
REMARK    1  A    between atoms: C_1  and  N_2
REMARK    2  A    between atoms: C_6  and  C_7
REMARK    3  A    between atoms: C_7  and  N_8
REMARK    4  A    between atoms: C_11  and  N_12
REMARK    5  A    between atoms: C_19  and  C_20
REMARK                            x       y       z     vdW  Elec       q    Type
REMARK                         _______ _______ _______ _____ _____    ______ ____
ROOT
ATOM      1  N   UNL     1       0.428  11.392  18.393  0.00  0.00    +0.000 N 
ATOM      2  C   UNL     1       0.798  10.374  19.294  0.00  0.00    +0.000 A 
ATOM      3  C   UNL     1       1.399   9.232  18.774  0.00  0.00    +0.000 A 
ATOM      4  C   UNL     1       1.711   8.177  19.633  0.00  0.00    +0.000 A 
ATOM      5  C   UNL     1       1.501   8.321  20.997  0.00  0.00    +0.000 A 
ATOM      6  C   UNL     1       0.996   9.527  21.438  0.00  0.00    +0.000 A 
ATOM      7  N   UNL     1       0.624  10.537  20.618  0.00  0.00    +0.000 NA
ATOM      8  H   UNL     1       1.278  11.916  18.187  0.00  0.00    +0.000 HD
ENDROOT
BRANCH   4   9
ATOM      9  N   UNL     1       2.233   6.976  19.115  0.00  0.00    +0.000 N 
ATOM     10  C   UNL     1       1.767   5.682  19.568  0.00  0.00    +0.000 C 
ATOM     11  C   UNL     1       2.589   4.732  18.755  0.00  0.00    +0.000 A 
ATOM     12  C   UNL     1       3.439   5.455  17.914  0.00  0.00    +0.000 A 
ATOM     13  C   UNL     1       4.374   4.848  17.097  0.00  0.00    +0.000 A 
ATOM     14  C   UNL     1       4.427   3.452  17.106  0.00  0.00    +0.000 A 
ATOM     15  C   UNL     1       3.548   2.708  17.916  0.00  0.00    +0.000 A 
ATOM     16  C   UNL     1       2.603   3.341  18.754  0.00  0.00    +0.000 A 
ATOM     17  C   UNL     1       3.167   6.890  18.092  0.00  0.00    +0.000 C 
ATOM     18  O   UNL     1       3.722   7.769  17.464  0.00  0.00    +0.000 OA
BRANCH  16  19
ATOM     19  C   UNL     1       1.659   2.516  19.585  0.00  0.00    +0.000 C 
ATOM     20  F   UNL     1       1.819   1.173  19.421  0.00  0.00    +0.000 F 
ATOM     21  F   UNL     1       1.808   2.742  20.919  0.00  0.00    +0.000 F 
ATOM     22  F   UNL     1       0.355   2.769  19.301  0.00  0.00    +0.000 F 
ENDBRANCH  16  19
ENDBRANCH   4   9
BRANCH   1  23
ATOM     23  C   UNL     1      -0.594  12.297  18.929  0.00  0.00    +0.000 C 
BRANCH  23  29
ATOM     24  C   UNL     1      -3.223  12.671  20.579  0.00  0.00    +0.000 C 
ATOM     25  N   UNL     1      -3.121  12.144  19.247  0.00  0.00    +0.000 N 
ATOM     26  C   UNL     1      -4.159  11.716  18.477  0.00  0.00    +0.000 A 
ATOM     27  N   UNL     1      -3.705  11.286  17.324  0.00  0.00    +0.000 NA
ATOM     28  N   UNL     1      -2.338  11.434  17.338  0.00  0.00    +0.000 NA
ATOM     29  C   UNL     1      -1.986  11.956  18.498  0.00  0.00    +0.000 A 
ENDBRANCH  23  29
ENDBRANCH   1  23
TORSDOF 4
ENDMDL
MODEL 5
REMARK VINA RESULT:      -8.4      4.121      8.575
REMARK  Name = 
REMARK  5 active torsions:
REMARK  status: ('A' for Active; 'I' for Inactive)
REMARK    1  A    between atoms: C_1  and  N_2
REMARK    2  A    between atoms: C_6  and  C_7
REMARK    3  A    between atoms: C_7  and  N_8
REMARK    4  A    between atoms: C_11  and  N_12
REMARK    5  A    between atoms: C_19  and  C_20
REMARK                            x       y       z     vdW  Elec       q    Type
REMARK                         _______ _______ _______ _____ _____    ______ ____
ROOT
ATOM      1  N   UNL     1      -0.468  11.124  18.214  0.00  0.00    +0.000 N 
ATOM      2  C   UNL     1       0.073  10.379  19.282  0.00  0.00    +0.000 A 
ATOM      3  C   UNL     1       0.867   9.280  18.971  0.00  0.00    +0.000 A 
ATOM      4  C   UNL     1       1.358   8.482  20.005  0.00  0.00    +0.000 A 
ATOM      5  C   UNL     1       1.122   8.849  21.322  0.00  0.00    +0.000 A 
ATOM      6  C   UNL     1       0.411  10.012  21.541  0.00  0.00    +0.000 A 
ATOM      7  N   UNL     1      -0.130  10.764  20.555  0.00  0.00    +0.000 NA
ATOM      8  H   UNL     1       0.277  11.737  17.885  0.00  0.00    +0.000 HD
ENDROOT
BRANCH   4   9
ATOM      9  N   UNL     1       2.085   7.312  19.711  0.00  0.00    +0.000 N 
ATOM     10  C   UNL     1       1.939   6.104  20.495  0.00  0.00    +0.000 C 
ATOM     11  C   UNL     1       2.884   5.158  19.823  0.00  0.00    +0.000 A 
ATOM     12  C   UNL     1       3.496   5.801  18.745  0.00  0.00    +0.000 A 
ATOM     13  C   UNL     1       4.478   5.202  17.977  0.00  0.00    +0.000 A 
ATOM     14  C   UNL     1       4.827   3.886  18.293  0.00  0.00    +0.000 A 
ATOM     15  C   UNL     1       4.187   3.210  19.349  0.00  0.00    +0.000 A 
ATOM     16  C   UNL     1       3.193   3.837  20.131  0.00  0.00    +0.000 A 
ATOM     17  C   UNL     1       2.940   7.158  18.629  0.00  0.00    +0.000 C 
ATOM     18  O   UNL     1       3.248   7.946  17.757  0.00  0.00    +0.000 OA
BRANCH  16  19
ATOM     19  C   UNL     1       2.508   3.076  21.234  0.00  0.00    +0.000 C 
ATOM     20  F   UNL     1       3.210   1.990  21.664  0.00  0.00    +0.000 F 
ATOM     21  F   UNL     1       2.301   3.840  22.341  0.00  0.00    +0.000 F 
ATOM     22  F   UNL     1       1.289   2.604  20.864  0.00  0.00    +0.000 F 
ENDBRANCH  16  19
ENDBRANCH   4   9
BRANCH   1  23
ATOM     23  C   UNL     1      -1.635  11.924  18.599  0.00  0.00    +0.000 C 
BRANCH  23  29
ATOM     24  C   UNL     1      -4.604  12.342  19.485  0.00  0.00    +0.000 C 
ATOM     25  N   UNL     1      -4.156  11.822  18.224  0.00  0.00    +0.000 N 
ATOM     26  C   UNL     1      -4.956  11.421  17.197  0.00  0.00    +0.000 A 
ATOM     27  N   UNL     1      -4.216  10.990  16.204  0.00  0.00    +0.000 NA
ATOM     28  N   UNL     1      -2.901  11.109  16.587  0.00  0.00    +0.000 NA
ATOM     29  C   UNL     1      -2.865  11.616  17.806  0.00  0.00    +0.000 A 
ENDBRANCH  23  29
ENDBRANCH   1  23
TORSDOF 4
ENDMDL
MODEL 6
REMARK VINA RESULT:      -8.4      4.158      5.529
REMARK  Name = 
REMARK  5 active torsions:
REMARK  status: ('A' for Active; 'I' for Inactive)
REMARK    1  A    between atoms: C_1  and  N_2
REMARK    2  A    between atoms: C_6  and  C_7
REMARK    3  A    between atoms: C_7  and  N_8
REMARK    4  A    between atoms: C_11  and  N_12
REMARK    5  A    between atoms: C_19  and  C_20
REMARK                            x       y       z     vdW  Elec       q    Type
REMARK                         _______ _______ _______ _____ _____    ______ ____
ROOT
ATOM      1  N   UNL     1       2.954   5.788  20.450  0.00  0.00    +0.000 N 
ATOM      2  C   UNL     1       2.692   6.867  19.582  0.00  0.00    +0.000 A 
ATOM      3  C   UNL     1       1.785   7.833  20.002  0.00  0.00    +0.000 A 
ATOM      4  C   UNL     1       1.452   8.876  19.135  0.00  0.00    +0.000 A 
ATOM      5  C   UNL     1       2.097   8.978  17.911  0.00  0.00    +0.000 A 
ATOM      6  C   UNL     1       3.060   8.033  17.618  0.00  0.00    +0.000 A 
ATOM      7  N   UNL     1       3.350   6.978  18.414  0.00  0.00    +0.000 NA
ATOM      8  H   UNL     1       3.618   6.131  21.143  0.00  0.00    +0.000 HD
ENDROOT
BRANCH   4   9
ATOM      9  N   UNL     1       0.466   9.812  19.502  0.00  0.00    +0.000 N 
ATOM     10  C   UNL     1      -0.697  10.060  18.677  0.00  0.00    +0.000 C 
ATOM     11  C   UNL     1      -1.437  11.103  19.453  0.00  0.00    +0.000 A 
ATOM     12  C   UNL     1      -0.732  11.399  20.623  0.00  0.00    +0.000 A 
ATOM     13  C   UNL     1      -1.131  12.384  21.507  0.00  0.00    +0.000 A 
ATOM     14  C   UNL     1      -2.312  13.071  21.213  0.00  0.00    +0.000 A 
ATOM     15  C   UNL     1      -3.057  12.755  20.061  0.00  0.00    +0.000 A 
ATOM     16  C   UNL     1      -2.632  11.753  19.161  0.00  0.00    +0.000 A 
ATOM     17  C   UNL     1       0.452  10.528  20.691  0.00  0.00    +0.000 C 
ATOM     18  O   UNL     1       1.239  10.523  21.616  0.00  0.00    +0.000 OA
BRANCH  16  19
ATOM     19  C   UNL     1      -3.466  11.419  17.954  0.00  0.00    +0.000 C 
ATOM     20  F   UNL     1      -4.606  12.159  17.859  0.00  0.00    +0.000 F 
ATOM     21  F   UNL     1      -2.797  11.625  16.787  0.00  0.00    +0.000 F 
ATOM     22  F   UNL     1      -3.867  10.122  17.939  0.00  0.00    +0.000 F 
ENDBRANCH  16  19
ENDBRANCH   4   9
BRANCH   1  23
ATOM     23  C   UNL     1       3.512   4.616  19.767  0.00  0.00    +0.000 C 
BRANCH  23  29
ATOM     24  C   UNL     1       1.480   2.855  21.362  0.00  0.00    +0.000 C 
ATOM     25  N   UNL     1       1.591   2.946  19.933  0.00  0.00    +0.000 N 
ATOM     26  C   UNL     1       0.824   2.275  19.029  0.00  0.00    +0.000 A 
ATOM     27  N   UNL     1       1.205   2.584  17.813  0.00  0.00    +0.000 NA
ATOM     28  N   UNL     1       2.245   3.477  17.920  0.00  0.00    +0.000 NA
ATOM     29  C   UNL     1       2.475   3.698  19.201  0.00  0.00    +0.000 A 
ENDBRANCH  23  29
ENDBRANCH   1  23
TORSDOF 4
ENDMDL
MODEL 7
REMARK VINA RESULT:      -8.3      4.532      8.876
REMARK  Name = 
REMARK  5 active torsions:
REMARK  status: ('A' for Active; 'I' for Inactive)
REMARK    1  A    between atoms: C_1  and  N_2
REMARK    2  A    between atoms: C_6  and  C_7
REMARK    3  A    between atoms: C_7  and  N_8
REMARK    4  A    between atoms: C_11  and  N_12
REMARK    5  A    between atoms: C_19  and  C_20
REMARK                            x       y       z     vdW  Elec       q    Type
REMARK                         _______ _______ _______ _____ _____    ______ ____
ROOT
ATOM      1  N   UNL     1       0.754  10.921  18.284  0.00  0.00    +0.000 N 
ATOM      2  C   UNL     1       1.047   9.935  19.248  0.00  0.00    +0.000 A 
ATOM      3  C   UNL     1       1.605   8.740  18.806  0.00  0.00    +0.000 A 
ATOM      4  C   UNL     1       1.841   7.717  19.727  0.00  0.00    +0.000 A 
ATOM      5  C   UNL     1       1.600   7.944  21.075  0.00  0.00    +0.000 A 
ATOM      6  C   UNL     1       1.143   9.195  21.438  0.00  0.00    +0.000 A 
ATOM      7  N   UNL     1       0.846  10.177  20.555  0.00  0.00    +0.000 NA
ATOM      8  H   UNL     1       1.634  11.391  18.077  0.00  0.00    +0.000 HD
ENDROOT
BRANCH   4   9
ATOM      9  N   UNL     1       2.316   6.467  19.288  0.00  0.00    +0.000 N 
ATOM     10  C   UNL     1       3.370   6.353  18.302  0.00  0.00    +0.000 C 
ATOM     11  C   UNL     1       3.531   4.872  18.159  0.00  0.00    +0.000 A 
ATOM     12  C   UNL     1       2.635   4.224  19.012  0.00  0.00    +0.000 A 
ATOM     13  C   UNL     1       2.498   2.848  19.046  0.00  0.00    +0.000 A 
ATOM     14  C   UNL     1       3.327   2.099  18.207  0.00  0.00    +0.000 A 
ATOM     15  C   UNL     1       4.266   2.737  17.374  0.00  0.00    +0.000 A 
ATOM     16  C   UNL     1       4.389   4.143  17.342  0.00  0.00    +0.000 A 
ATOM     17  C   UNL     1       1.902   5.239  19.785  0.00  0.00    +0.000 C 
ATOM     18  O   UNL     1       1.080   4.979  20.641  0.00  0.00    +0.000 OA
BRANCH  16  19
ATOM     19  C   UNL     1       5.422   4.791  16.462  0.00  0.00    +0.000 C 
ATOM     20  F   UNL     1       6.325   5.547  17.147  0.00  0.00    +0.000 F 
ATOM     21  F   UNL     1       6.158   3.881  15.768  0.00  0.00    +0.000 F 
ATOM     22  F   UNL     1       4.875   5.621  15.536  0.00  0.00    +0.000 F 
ENDBRANCH  16  19
ENDBRANCH   4   9
BRANCH   1  23
ATOM     23  C   UNL     1      -0.237  11.900  18.741  0.00  0.00    +0.000 C 
BRANCH  23  29
ATOM     24  C   UNL     1      -2.876  12.628  20.251  0.00  0.00    +0.000 C 
ATOM     25  N   UNL     1      -2.774  11.932  19.000  0.00  0.00    +0.000 N 
ATOM     26  C   UNL     1      -3.819  11.468  18.259  0.00  0.00    +0.000 A 
ATOM     27  N   UNL     1      -3.364  10.871  17.183  0.00  0.00    +0.000 NA
ATOM     28  N   UNL     1      -1.992  10.942  17.219  0.00  0.00    +0.000 NA
ATOM     29  C   UNL     1      -1.636  11.586  18.315  0.00  0.00    +0.000 A 
ENDBRANCH  23  29
ENDBRANCH   1  23
TORSDOF 4
ENDMDL
MODEL 8
REMARK VINA RESULT:      -8.2      4.075      5.548
REMARK  Name = 
REMARK  5 active torsions:
REMARK  status: ('A' for Active; 'I' for Inactive)
REMARK    1  A    between atoms: C_1  and  N_2
REMARK    2  A    between atoms: C_6  and  C_7
REMARK    3  A    between atoms: C_7  and  N_8
REMARK    4  A    between atoms: C_11  and  N_12
REMARK    5  A    between atoms: C_19  and  C_20
REMARK                            x       y       z     vdW  Elec       q    Type
REMARK                         _______ _______ _______ _____ _____    ______ ____
ROOT
ATOM      1  N   UNL     1       2.725   5.985  20.512  0.00  0.00    +0.000 N 
ATOM      2  C   UNL     1       2.462   7.062  19.642  0.00  0.00    +0.000 A 
ATOM      3  C   UNL     1       1.573   8.042  20.071  0.00  0.00    +0.000 A 
ATOM      4  C   UNL     1       1.239   9.084  19.204  0.00  0.00    +0.000 A 
ATOM      5  C   UNL     1       1.866   9.172  17.969  0.00  0.00    +0.000 A 
ATOM      6  C   UNL     1       2.812   8.214  17.666  0.00  0.00    +0.000 A 
ATOM      7  N   UNL     1       3.103   7.160  18.463  0.00  0.00    +0.000 NA
ATOM      8  H   UNL     1       3.404   6.324  21.192  0.00  0.00    +0.000 HD
ENDROOT
BRANCH   4   9
ATOM      9  N   UNL     1       0.270  10.034  19.581  0.00  0.00    +0.000 N 
ATOM     10  C   UNL     1      -0.930  10.252  18.802  0.00  0.00    +0.000 C 
ATOM     11  C   UNL     1      -1.634  11.325  19.573  0.00  0.00    +0.000 A 
ATOM     12  C   UNL     1      -0.875  11.663  20.696  0.00  0.00    +0.000 A 
ATOM     13  C   UNL     1      -1.234  12.680  21.561  0.00  0.00    +0.000 A 
ATOM     14  C   UNL     1      -2.427  13.357  21.297  0.00  0.00    +0.000 A 
ATOM     15  C   UNL     1      -3.225  12.999  20.193  0.00  0.00    +0.000 A 
ATOM     16  C   UNL     1      -2.841  11.964  19.312  0.00  0.00    +0.000 A 
ATOM     17  C   UNL     1       0.311  10.793  20.741  0.00  0.00    +0.000 C 
ATOM     18  O   UNL     1       1.141  10.822  21.629  0.00  0.00    +0.000 OA
BRANCH  16  19
ATOM     19  C   UNL     1      -3.731  11.587  18.159  0.00  0.00    +0.000 C 
ATOM     20  F   UNL     1      -4.894  12.295  18.113  0.00  0.00    +0.000 F 
ATOM     21  F   UNL     1      -3.132  11.788  16.953  0.00  0.00    +0.000 F 
ATOM     22  F   UNL     1      -4.096  10.279  18.187  0.00  0.00    +0.000 F 
ENDBRANCH  16  19
ENDBRANCH   4   9
BRANCH   1  23
ATOM     23  C   UNL     1       3.258   4.803  19.826  0.00  0.00    +0.000 C 
BRANCH  23  29
ATOM     24  C   UNL     1       3.613   2.287  18.005  0.00  0.00    +0.000 C 
ATOM     25  N   UNL     1       2.410   2.688  18.678  0.00  0.00    +0.000 N 
ATOM     26  C   UNL     1       1.215   2.035  18.635  0.00  0.00    +0.000 A 
ATOM     27  N   UNL     1       0.332   2.685  19.354  0.00  0.00    +0.000 NA
ATOM     28  N   UNL     1       0.959   3.789  19.880  0.00  0.00    +0.000 NA
ATOM     29  C   UNL     1       2.215   3.789  19.475  0.00  0.00    +0.000 A 
ENDBRANCH  23  29
ENDBRANCH   1  23
TORSDOF 4
ENDMDL
MODEL 9
REMARK VINA RESULT:      -8.2      4.065      8.758
REMARK  Name = 
REMARK  5 active torsions:
REMARK  status: ('A' for Active; 'I' for Inactive)
REMARK    1  A    between atoms: C_1  and  N_2
REMARK    2  A    between atoms: C_6  and  C_7
REMARK    3  A    between atoms: C_7  and  N_8
REMARK    4  A    between atoms: C_11  and  N_12
REMARK    5  A    between atoms: C_19  and  C_20
REMARK                            x       y       z     vdW  Elec       q    Type
REMARK                         _______ _______ _______ _____ _____    ______ ____
ROOT
ATOM      1  N   UNL     1      -0.220  11.041  18.194  0.00  0.00    +0.000 N 
ATOM      2  C   UNL     1       0.378  10.048  18.996  0.00  0.00    +0.000 A 
ATOM      3  C   UNL     1       1.226   9.136  18.377  0.00  0.00    +0.000 A 
ATOM      4  C   UNL     1       1.777   8.099  19.132  0.00  0.00    +0.000 A 
ATOM      5  C   UNL     1       1.543   8.050  20.499  0.00  0.00    +0.000 A 
ATOM      6  C   UNL     1       0.773   9.055  21.048  0.00  0.00    +0.000 A 
ATOM      7  N   UNL     1       0.176  10.031  20.326  0.00  0.00    +0.000 NA
ATOM      8  H   UNL     1       0.485  11.764  18.059  0.00  0.00    +0.000 HD
ENDROOT
BRANCH   4   9
ATOM      9  N   UNL     1       2.562   7.110  18.507  0.00  0.00    +0.000 N 
ATOM     10  C   UNL     1       2.338   5.698  18.738  0.00  0.00    +0.000 C 
ATOM     11  C   UNL     1       3.384   5.054  17.884  0.00  0.00    +0.000 A 
ATOM     12  C   UNL     1       4.123   6.043  17.229  0.00  0.00    +0.000 A 
ATOM     13  C   UNL     1       5.211   5.754  16.427  0.00  0.00    +0.000 A 
ATOM     14  C   UNL     1       5.543   4.408  16.253  0.00  0.00    +0.000 A 
ATOM     15  C   UNL     1       4.781   3.398  16.872  0.00  0.00    +0.000 A 
ATOM     16  C   UNL     1       3.678   3.707  17.696  0.00  0.00    +0.000 A 
ATOM     17  C   UNL     1       3.557   7.357  17.573  0.00  0.00    +0.000 C 
ATOM     18  O   UNL     1       3.963   8.410  17.122  0.00  0.00    +0.000 OA
BRANCH  16  19
ATOM     19  C   UNL     1       2.868   2.603  18.319  0.00  0.00    +0.000 C 
ATOM     20  F   UNL     1       2.886   2.615  19.681  0.00  0.00    +0.000 F 
ATOM     21  F   UNL     1       1.554   2.663  17.970  0.00  0.00    +0.000 F 
ATOM     22  F   UNL     1       3.301   1.368  17.955  0.00  0.00    +0.000 F 
ENDBRANCH  16  19
ENDBRANCH   4   9
BRANCH   1  23
ATOM     23  C   UNL     1      -1.422  11.625  18.796  0.00  0.00    +0.000 C 
BRANCH  23  29
ATOM     24  C   UNL     1      -4.364  12.315  19.599  0.00  0.00    +0.000 C 
ATOM     25  N   UNL     1      -3.921  11.833  18.322  0.00  0.00    +0.000 N 
ATOM     26  C   UNL     1      -4.713  11.594  17.240  0.00  0.00    +0.000 A 
ATOM     27  N   UNL     1      -3.981  11.150  16.247  0.00  0.00    +0.000 NA
ATOM     28  N   UNL     1      -2.680  11.094  16.685  0.00  0.00    +0.000 NA
ATOM     29  C   UNL     1      -2.643  11.511  17.938  0.00  0.00    +0.000 A 
ENDBRANCH  23  29
ENDBRANCH   1  23
TORSDOF 4
ENDMDL
