MODEL 1
REMARK VINA RESULT:      -7.7      0.000      0.000
REMARK  Name = 
REMARK  6 active torsions:
REMARK  status: ('A' for Active; 'I' for Inactive)
REMARK    1  A    between atoms: S_2  and  N_4
REMARK    2  A    between atoms: S_2  and  C_21
REMARK    3  A    between atoms: N_4  and  C_5
REMARK    4  A    between atoms: C_7  and  S_8
REMARK    5  A    between atoms: S_8  and  N_11
REMARK    6  A    between atoms: C_19  and  O_20
REMARK                            x       y       z     vdW  Elec       q    Type
REMARK                         _______ _______ _______ _____ _____    ______ ____
ROOT
ATOM      1  C   UNL     1       0.890   8.834  19.753  0.00  0.00    +0.000 A 
ATOM      2  C   UNL     1       1.400   7.574  20.072  0.00  0.00    +0.000 A 
ATOM      3  C   UNL     1       2.384   7.009  19.252  0.00  0.00    +0.000 A 
ATOM      4  C   UNL     1       2.808   7.663  18.087  0.00  0.00    +0.000 A 
ATOM      5  C   UNL     1       2.284   8.915  17.761  0.00  0.00    +0.000 A 
ATOM      6  C   UNL     1       1.343   9.504  18.606  0.00  0.00    +0.000 A 
ENDROOT
BRANCH   3   7
ATOM      7  S   UNL     1       3.235   5.518  19.758  0.00  0.00    +0.000 S 
ATOM      8  O   UNL     1       4.654   5.765  19.606  0.00  0.00    +0.000 OA
ATOM      9  O   UNL     1       2.664   5.128  21.027  0.00  0.00    +0.000 OA
BRANCH   7  10
ATOM     10  N   UNL     1       2.812   4.406  18.607  0.00  0.00    +0.000 NA
ATOM     11  C   UNL     1       1.419   4.022  18.354  0.00  0.00    +0.000 C 
ATOM     12  C   UNL     1       1.348   2.511  18.490  0.00  0.00    +0.000 C 
ATOM     13  O   UNL     1       2.274   1.865  17.600  0.00  0.00    +0.000 OA
ATOM     14  C   UNL     1       3.631   2.225  17.905  0.00  0.00    +0.000 C 
ATOM     15  C   UNL     1       3.795   3.733  17.734  0.00  0.00    +0.000 C 
ENDBRANCH   7  10
ENDBRANCH   3   7
BRANCH   1  16
ATOM     16  N   UNL     1      -0.006   9.460  20.678  0.00  0.00    +0.000 N 
ATOM     17  H   UNL     1      -0.581   8.791  21.196  0.00  0.00    +0.000 HD
BRANCH  16  19
ATOM     18  O   UNL     1       0.801   9.873  23.023  0.00  0.00    +0.000 OA
ATOM     19  S   UNL     1       0.603  10.594  21.781  0.00  0.00    +0.000 S 
ATOM     20  O   UNL     1       1.678  11.352  21.181  0.00  0.00    +0.000 OA
BRANCH  19  21
ATOM     21  C   UNL     1      -0.772  11.698  22.043  0.00  0.00    +0.000 A 
ATOM     22  C   UNL     1      -0.923  12.839  21.260  0.00  0.00    +0.000 A 
ATOM     23  C   UNL     1      -2.022  13.687  21.481  0.00  0.00    +0.000 A 
ATOM     24  C   UNL     1      -2.974  13.372  22.457  0.00  0.00    +0.000 A 
ATOM     25  C   UNL     1      -2.847  12.204  23.191  0.00  0.00    +0.000 A 
ATOM     26  C   UNL     1      -1.744  11.362  22.990  0.00  0.00    +0.000 A 
ATOM     27  O   UNL     1      -3.732  11.806  24.146  0.00  0.00    +0.000 OA
ATOM     28  C   UNL     1      -4.748  12.746  24.488  0.00  0.00    +0.000 C 
ATOM     29  C   UNL     1      -4.734  14.116  23.813  0.00  0.00    +0.000 C 
ATOM     30  O   UNL     1      -4.013  14.242  22.592  0.00  0.00    +0.000 OA
ENDBRANCH  19  21
ENDBRANCH  16  19
ENDBRANCH   1  16
BRANCH   6  31
ATOM     31  O   UNL     1       0.910  10.779  18.359  0.00  0.00    +0.000 OA
ATOM     32  H   UNL     1       1.680  11.345  18.177  0.00  0.00    +0.000 HD
ENDBRANCH   6  31
TORSDOF 6
ENDMDL
MODEL 2
REMARK VINA RESULT:      -7.7      0.876      1.020
REMARK  Name = 
REMARK  6 active torsions:
REMARK  status: ('A' for Active; 'I' for Inactive)
REMARK    1  A    between atoms: S_2  and  N_4
REMARK    2  A    between atoms: S_2  and  C_21
REMARK    3  A    between atoms: N_4  and  C_5
REMARK    4  A    between atoms: C_7  and  S_8
REMARK    5  A    between atoms: S_8  and  N_11
REMARK    6  A    between atoms: C_19  and  O_20
REMARK                            x       y       z     vdW  Elec       q    Type
REMARK                         _______ _______ _______ _____ _____    ______ ____
ROOT
ATOM      1  C   UNL     1       1.481   9.133  20.035  0.00  0.00    +0.000 A 
ATOM      2  C   UNL     1       1.900   7.851  20.397  0.00  0.00    +0.000 A 
ATOM      3  C   UNL     1       2.324   6.964  19.400  0.00  0.00    +0.000 A 
ATOM      4  C   UNL     1       2.269   7.328  18.048  0.00  0.00    +0.000 A 
ATOM      5  C   UNL     1       1.833   8.604  17.686  0.00  0.00    +0.000 A 
ATOM      6  C   UNL     1       1.461   9.508  18.683  0.00  0.00    +0.000 A 
ENDROOT
BRANCH   3   7
ATOM      7  S   UNL     1       3.096   5.411  19.840  0.00  0.00    +0.000 S 
ATOM      8  O   UNL     1       4.525   5.587  19.686  0.00  0.00    +0.000 OA
ATOM      9  O   UNL     1       2.513   5.003  21.098  0.00  0.00    +0.000 OA
BRANCH   7  10
ATOM     10  N   UNL     1       2.606   4.370  18.650  0.00  0.00    +0.000 NA
ATOM     11  C   UNL     1       1.236   3.850  18.570  0.00  0.00    +0.000 C 
ATOM     12  C   UNL     1       1.341   2.336  18.547  0.00  0.00    +0.000 C 
ATOM     13  O   UNL     1       2.170   1.889  17.461  0.00  0.00    +0.000 OA
ATOM     14  C   UNL     1       3.516   2.376  17.594  0.00  0.00    +0.000 C 
ATOM     15  C   UNL     1       3.497   3.902  17.569  0.00  0.00    +0.000 C 
ENDBRANCH   7  10
ENDBRANCH   3   7
BRANCH   1  16
ATOM     16  N   UNL     1       1.190  10.073  21.075  0.00  0.00    +0.000 N 
ATOM     17  H   UNL     1       1.036  11.023  20.726  0.00  0.00    +0.000 HD
BRANCH  16  19
ATOM     18  O   UNL     1      -0.730   8.561  21.667  0.00  0.00    +0.000 OA
ATOM     19  S   UNL     1      -0.033   9.719  22.194  0.00  0.00    +0.000 S 
ATOM     20  O   UNL     1       0.500   9.719  23.537  0.00  0.00    +0.000 OA
BRANCH  19  21
ATOM     21  C   UNL     1      -1.148  11.101  22.041  0.00  0.00    +0.000 A 
ATOM     22  C   UNL     1      -1.314  11.745  20.817  0.00  0.00    +0.000 A 
ATOM     23  C   UNL     1      -2.207  12.826  20.723  0.00  0.00    +0.000 A 
ATOM     24  C   UNL     1      -2.946  13.234  21.838  0.00  0.00    +0.000 A 
ATOM     25  C   UNL     1      -2.818  12.551  23.037  0.00  0.00    +0.000 A 
ATOM     26  C   UNL     1      -1.915  11.482  23.145  0.00  0.00    +0.000 A 
ATOM     27  O   UNL     1      -3.508  12.862  24.168  0.00  0.00    +0.000 OA
ATOM     28  C   UNL     1      -4.280  14.060  24.120  0.00  0.00    +0.000 C 
ATOM     29  C   UNL     1      -4.232  14.910  22.852  0.00  0.00    +0.000 C 
ATOM     30  O   UNL     1      -3.797  14.280  21.651  0.00  0.00    +0.000 OA
ENDBRANCH  19  21
ENDBRANCH  16  19
ENDBRANCH   1  16
BRANCH   6  31
ATOM     31  O   UNL     1       1.145  10.797  18.349  0.00  0.00    +0.000 OA
ATOM     32  H   UNL     1       0.521  11.151  19.005  0.00  0.00    +0.000 HD
ENDBRANCH   6  31
TORSDOF 6
ENDMDL
MODEL 3
REMARK VINA RESULT:      -7.6      2.728      4.721
REMARK  Name = 
REMARK  6 active torsions:
REMARK  status: ('A' for Active; 'I' for Inactive)
REMARK    1  A    between atoms: S_2  and  N_4
REMARK    2  A    between atoms: S_2  and  C_21
REMARK    3  A    between atoms: N_4  and  C_5
REMARK    4  A    between atoms: C_7  and  S_8
REMARK    5  A    between atoms: S_8  and  N_11
REMARK    6  A    between atoms: C_19  and  O_20
REMARK                            x       y       z     vdW  Elec       q    Type
REMARK                         _______ _______ _______ _____ _____    ______ ____
ROOT
ATOM      1  C   UNL     1       4.075   6.107  17.743  0.00  0.00    +0.000 A 
ATOM      2  C   UNL     1       3.793   4.944  18.462  0.00  0.00    +0.000 A 
ATOM      3  C   UNL     1       4.283   3.718  17.996  0.00  0.00    +0.000 A 
ATOM      4  C   UNL     1       4.992   3.642  16.790  0.00  0.00    +0.000 A 
ATOM      5  C   UNL     1       5.258   4.805  16.063  0.00  0.00    +0.000 A 
ATOM      6  C   UNL     1       4.816   6.034  16.554  0.00  0.00    +0.000 A 
ENDROOT
BRANCH   3   7
ATOM      7  S   UNL     1       4.155   2.249  19.010  0.00  0.00    +0.000 S 
ATOM      8  O   UNL     1       4.052   1.119  18.111  0.00  0.00    +0.000 OA
ATOM      9  O   UNL     1       5.206   2.338  19.999  0.00  0.00    +0.000 OA
BRANCH   7  10
ATOM     10  N   UNL     1       2.688   2.407  19.760  0.00  0.00    +0.000 NA
ATOM     11  C   UNL     1       1.420   2.113  19.085  0.00  0.00    +0.000 C 
ATOM     12  C   UNL     1       0.558   3.357  19.208  0.00  0.00    +0.000 C 
ATOM     13  O   UNL     1       0.382   3.734  20.584  0.00  0.00    +0.000 OA
ATOM     14  C   UNL     1       1.637   4.060  21.203  0.00  0.00    +0.000 C 
ATOM     15  C   UNL     1       2.543   2.832  21.167  0.00  0.00    +0.000 C 
ENDBRANCH   7  10
ENDBRANCH   3   7
BRANCH   1  16
ATOM     16  N   UNL     1       3.692   7.366  18.308  0.00  0.00    +0.000 N 
ATOM     17  H   UNL     1       4.412   8.087  18.208  0.00  0.00    +0.000 HD
BRANCH  16  19
ATOM     18  O   UNL     1       2.516   9.214  17.072  0.00  0.00    +0.000 OA
ATOM     19  S   UNL     1       2.201   8.049  17.876  0.00  0.00    +0.000 S 
ATOM     20  O   UNL     1       1.304   7.027  17.387  0.00  0.00    +0.000 OA
BRANCH  19  21
ATOM     21  C   UNL     1       1.559   8.653  19.425  0.00  0.00    +0.000 A 
ATOM     22  C   UNL     1       1.751   7.933  20.601  0.00  0.00    +0.000 A 
ATOM     23  C   UNL     1       1.242   8.438  21.810  0.00  0.00    +0.000 A 
ATOM     24  C   UNL     1       0.576   9.668  21.840  0.00  0.00    +0.000 A 
ATOM     25  C   UNL     1       0.440  10.406  20.674  0.00  0.00    +0.000 A 
ATOM     26  C   UNL     1       0.929   9.900  19.460  0.00  0.00    +0.000 A 
ATOM     27  O   UNL     1      -0.175  11.618  20.609  0.00  0.00    +0.000 OA
ATOM     28  C   UNL     1      -0.839  12.047  21.795  0.00  0.00    +0.000 C 
ATOM     29  C   UNL     1      -0.855  11.112  23.003  0.00  0.00    +0.000 C 
ATOM     30  O   UNL     1       0.129  10.086  23.056  0.00  0.00    +0.000 OA
ENDBRANCH  19  21
ENDBRANCH  16  19
ENDBRANCH   1  16
BRANCH   6  31
ATOM     31  O   UNL     1       5.172   7.190  15.913  0.00  0.00    +0.000 OA
ATOM     32  H   UNL     1       5.148   7.926  16.549  0.00  0.00    +0.000 HD
ENDBRANCH   6  31
TORSDOF 6
ENDMDL
MODEL 4
REMARK VINA RESULT:      -7.4      0.959      1.489
REMARK  Name = 
REMARK  6 active torsions:
REMARK  status: ('A' for Active; 'I' for Inactive)
REMARK    1  A    between atoms: S_2  and  N_4
REMARK    2  A    between atoms: S_2  and  C_21
REMARK    3  A    between atoms: N_4  and  C_5
REMARK    4  A    between atoms: C_7  and  S_8
REMARK    5  A    between atoms: S_8  and  N_11
REMARK    6  A    between atoms: C_19  and  O_20
REMARK                            x       y       z     vdW  Elec       q    Type
REMARK                         _______ _______ _______ _____ _____    ______ ____
ROOT
ATOM      1  C   UNL     1       1.127   8.878  19.215  0.00  0.00    +0.000 A 
ATOM      2  C   UNL     1       1.502   7.610  19.663  0.00  0.00    +0.000 A 
ATOM      3  C   UNL     1       2.565   6.950  19.033  0.00  0.00    +0.000 A 
ATOM      4  C   UNL     1       3.203   7.519  17.924  0.00  0.00    +0.000 A 
ATOM      5  C   UNL     1       2.815   8.779  17.465  0.00  0.00    +0.000 A 
ATOM      6  C   UNL     1       1.792   9.462  18.126  0.00  0.00    +0.000 A 
ENDROOT
BRANCH   3   7
ATOM      7  S   UNL     1       3.233   5.443  19.730  0.00  0.00    +0.000 S 
ATOM      8  O   UNL     1       4.676   5.568  19.708  0.00  0.00    +0.000 OA
ATOM      9  O   UNL     1       2.511   5.201  20.958  0.00  0.00    +0.000 OA
BRANCH   7  10
ATOM     10  N   UNL     1       2.830   4.279  18.624  0.00  0.00    +0.000 NA
ATOM     11  C   UNL     1       1.440   3.915  18.330  0.00  0.00    +0.000 C 
ATOM     12  C   UNL     1       1.323   2.417  18.546  0.00  0.00    +0.000 C 
ATOM     13  O   UNL     1       2.269   1.700  17.736  0.00  0.00    +0.000 OA
ATOM     14  C   UNL     1       3.621   2.043  18.080  0.00  0.00    +0.000 C 
ATOM     15  C   UNL     1       3.832   3.535  17.834  0.00  0.00    +0.000 C 
ENDBRANCH   7  10
ENDBRANCH   3   7
BRANCH   1  16
ATOM     16  N   UNL     1       0.139   9.599  19.960  0.00  0.00    +0.000 N 
ATOM     17  H   UNL     1      -0.564   8.992  20.389  0.00  0.00    +0.000 HD
BRANCH  16  19
ATOM     18  O   UNL     1       1.188   9.950  22.218  0.00  0.00    +0.000 OA
ATOM     19  S   UNL     1       0.640  10.727  21.123  0.00  0.00    +0.000 S 
ATOM     20  O   UNL     1       1.407  11.782  20.501  0.00  0.00    +0.000 OA
BRANCH  19  21
ATOM     21  C   UNL     1      -0.892  11.427  21.707  0.00  0.00    +0.000 A 
ATOM     22  C   UNL     1      -1.263  11.303  23.043  0.00  0.00    +0.000 A 
ATOM     23  C   UNL     1      -2.471  11.874  23.479  0.00  0.00    +0.000 A 
ATOM     24  C   UNL     1      -3.280  12.587  22.588  0.00  0.00    +0.000 A 
ATOM     25  C   UNL     1      -2.874  12.755  21.273  0.00  0.00    +0.000 A 
ATOM     26  C   UNL     1      -1.679  12.173  20.825  0.00  0.00    +0.000 A 
ATOM     27  O   UNL     1      -3.584  13.448  20.341  0.00  0.00    +0.000 OA
ATOM     28  C   UNL     1      -4.885  13.876  20.736  0.00  0.00    +0.000 C 
ATOM     29  C   UNL     1      -5.392  13.489  22.124  0.00  0.00    +0.000 C 
ATOM     30  O   UNL     1      -4.424  13.118  23.100  0.00  0.00    +0.000 OA
ENDBRANCH  19  21
ENDBRANCH  16  19
ENDBRANCH   1  16
BRANCH   6  31
ATOM     31  O   UNL     1       1.483  10.744  17.760  0.00  0.00    +0.000 OA
ATOM     32  H   UNL     1       0.589  10.958  18.077  0.00  0.00    +0.000 HD
ENDBRANCH   6  31
TORSDOF 6
ENDMDL
MODEL 5
REMARK VINA RESULT:      -7.4      1.241      1.557
REMARK  Name = 
REMARK  6 active torsions:
REMARK  status: ('A' for Active; 'I' for Inactive)
REMARK    1  A    between atoms: S_2  and  N_4
REMARK    2  A    between atoms: S_2  and  C_21
REMARK    3  A    between atoms: N_4  and  C_5
REMARK    4  A    between atoms: C_7  and  S_8
REMARK    5  A    between atoms: S_8  and  N_11
REMARK    6  A    between atoms: C_19  and  O_20
REMARK                            x       y       z     vdW  Elec       q    Type
REMARK                         _______ _______ _______ _____ _____    ______ ____
ROOT
ATOM      1  C   UNL     1       1.427   9.332  20.275  0.00  0.00    +0.000 A 
ATOM      2  C   UNL     1       1.954   8.040  20.226  0.00  0.00    +0.000 A 
ATOM      3  C   UNL     1       2.151   7.430  18.981  0.00  0.00    +0.000 A 
ATOM      4  C   UNL     1       1.764   8.074  17.799  0.00  0.00    +0.000 A 
ATOM      5  C   UNL     1       1.221   9.359  17.851  0.00  0.00    +0.000 A 
ATOM      6  C   UNL     1       1.074   9.990  19.087  0.00  0.00    +0.000 A 
ENDROOT
BRANCH   3   7
ATOM      7  S   UNL     1       3.047   5.885  18.864  0.00  0.00    +0.000 S 
ATOM      8  O   UNL     1       3.503   5.760  17.496  0.00  0.00    +0.000 OA
ATOM      9  O   UNL     1       3.969   5.857  19.977  0.00  0.00    +0.000 OA
BRANCH   7  10
ATOM     10  N   UNL     1       1.884   4.730  19.094  0.00  0.00    +0.000 NA
ATOM     11  C   UNL     1       1.235   4.508  20.391  0.00  0.00    +0.000 C 
ATOM     12  C   UNL     1       1.425   3.040  20.731  0.00  0.00    +0.000 C 
ATOM     13  O   UNL     1       0.899   2.195  19.695  0.00  0.00    +0.000 OA
ATOM     14  C   UNL     1       1.586   2.403  18.449  0.00  0.00    +0.000 C 
ATOM     15  C   UNL     1       1.393   3.852  18.012  0.00  0.00    +0.000 C 
ENDBRANCH   7  10
ENDBRANCH   3   7
BRANCH   1  16
ATOM     16  N   UNL     1       1.368   9.996  21.542  0.00  0.00    +0.000 N 
ATOM     17  H   UNL     1       1.450  11.013  21.466  0.00  0.00    +0.000 HD
BRANCH  16  19
ATOM     18  O   UNL     1      -0.729   8.662  21.923  0.00  0.00    +0.000 OA
ATOM     19  S   UNL     1       0.089   9.650  22.600  0.00  0.00    +0.000 S 
ATOM     20  O   UNL     1       0.593   9.412  23.934  0.00  0.00    +0.000 OA
BRANCH  19  21
ATOM     21  C   UNL     1      -0.850  11.164  22.626  0.00  0.00    +0.000 A 
ATOM     22  C   UNL     1      -0.360  12.311  22.007  0.00  0.00    +0.000 A 
ATOM     23  C   UNL     1      -1.126  13.490  22.034  0.00  0.00    +0.000 A 
ATOM     24  C   UNL     1      -2.383  13.504  22.648  0.00  0.00    +0.000 A 
ATOM     25  C   UNL     1      -2.888  12.341  23.211  0.00  0.00    +0.000 A 
ATOM     26  C   UNL     1      -2.122  11.166  23.204  0.00  0.00    +0.000 A 
ATOM     27  O   UNL     1      -4.106  12.254  23.812  0.00  0.00    +0.000 OA
ATOM     28  C   UNL     1      -4.804  13.484  23.991  0.00  0.00    +0.000 C 
ATOM     29  C   UNL     1      -4.126  14.781  23.553  0.00  0.00    +0.000 C 
ATOM     30  O   UNL     1      -3.061  14.683  22.614  0.00  0.00    +0.000 OA
ENDBRANCH  19  21
ENDBRANCH  16  19
ENDBRANCH   1  16
BRANCH   6  31
ATOM     31  O   UNL     1       0.653  11.292  19.140  0.00  0.00    +0.000 OA
ATOM     32  H   UNL     1       0.565  11.559  20.071  0.00  0.00    +0.000 HD
ENDBRANCH   6  31
TORSDOF 6
ENDMDL
MODEL 6
REMARK VINA RESULT:      -7.4      3.007      5.121
REMARK  Name = 
REMARK  6 active torsions:
REMARK  status: ('A' for Active; 'I' for Inactive)
REMARK    1  A    between atoms: S_2  and  N_4
REMARK    2  A    between atoms: S_2  and  C_21
REMARK    3  A    between atoms: N_4  and  C_5
REMARK    4  A    between atoms: C_7  and  S_8
REMARK    5  A    between atoms: S_8  and  N_11
REMARK    6  A    between atoms: C_19  and  O_20
REMARK                            x       y       z     vdW  Elec       q    Type
REMARK                         _______ _______ _______ _____ _____    ______ ____
ROOT
ATOM      1  C   UNL     1       2.999   5.709  18.689  0.00  0.00    +0.000 A 
ATOM      2  C   UNL     1       4.143   5.837  17.899  0.00  0.00    +0.000 A 
ATOM      3  C   UNL     1       4.481   4.805  17.015  0.00  0.00    +0.000 A 
ATOM      4  C   UNL     1       3.724   3.627  16.967  0.00  0.00    +0.000 A 
ATOM      5  C   UNL     1       2.590   3.494  17.770  0.00  0.00    +0.000 A 
ATOM      6  C   UNL     1       2.221   4.544  18.612  0.00  0.00    +0.000 A 
ENDROOT
BRANCH   3   7
ATOM      7  S   UNL     1       5.790   5.034  15.816  0.00  0.00    +0.000 S 
ATOM      8  O   UNL     1       6.150   3.721  15.324  0.00  0.00    +0.000 OA
ATOM      9  O   UNL     1       5.354   6.085  14.925  0.00  0.00    +0.000 OA
BRANCH   7  10
ATOM     10  N   UNL     1       7.066   5.580  16.717  0.00  0.00    +0.000 NA
ATOM     11  C   UNL     1       7.710   4.764  17.753  0.00  0.00    +0.000 C 
ATOM     12  C   UNL     1       7.674   5.575  19.036  0.00  0.00    +0.000 C 
ATOM     13  O   UNL     1       8.307   6.853  18.862  0.00  0.00    +0.000 OA
ATOM     14  C   UNL     1       7.626   7.645  17.875  0.00  0.00    +0.000 C 
ATOM     15  C   UNL     1       7.670   6.916  16.535  0.00  0.00    +0.000 C 
ENDBRANCH   7  10
ENDBRANCH   3   7
BRANCH   1  16
ATOM     16  N   UNL     1       2.587   6.831  19.477  0.00  0.00    +0.000 N 
ATOM     17  H   UNL     1       3.311   7.157  20.122  0.00  0.00    +0.000 HD
BRANCH  16  19
ATOM     18  O   UNL     1       3.050   8.985  18.264  0.00  0.00    +0.000 OA
ATOM     19  S   UNL     1       1.922   8.187  18.706  0.00  0.00    +0.000 S 
ATOM     20  O   UNL     1       0.890   7.781  17.779  0.00  0.00    +0.000 OA
BRANCH  19  21
ATOM     21  C   UNL     1       1.149   9.084  20.037  0.00  0.00    +0.000 A 
ATOM     22  C   UNL     1       0.902   8.464  21.259  0.00  0.00    +0.000 A 
ATOM     23  C   UNL     1       0.300   9.198  22.296  0.00  0.00    +0.000 A 
ATOM     24  C   UNL     1      -0.021  10.548  22.114  0.00  0.00    +0.000 A 
ATOM     25  C   UNL     1       0.282  11.172  20.914  0.00  0.00    +0.000 A 
ATOM     26  C   UNL     1       0.866  10.442  19.869  0.00  0.00    +0.000 A 
ATOM     27  O   UNL     1       0.026  12.484  20.653  0.00  0.00    +0.000 OA
ATOM     28  C   UNL     1      -0.738  13.179  21.636  0.00  0.00    +0.000 C 
ATOM     29  C   UNL     1      -1.243  12.405  22.852  0.00  0.00    +0.000 C 
ATOM     30  O   UNL     1      -0.587  11.184  23.176  0.00  0.00    +0.000 OA
ENDBRANCH  19  21
ENDBRANCH  16  19
ENDBRANCH   1  16
BRANCH   6  31
ATOM     31  O   UNL     1       1.049   4.473  19.315  0.00  0.00    +0.000 OA
ATOM     32  H   UNL     1       1.032   3.643  19.822  0.00  0.00    +0.000 HD
ENDBRANCH   6  31
TORSDOF 6
ENDMDL
MODEL 7
REMARK VINA RESULT:      -7.3      2.132      9.310
REMARK  Name = 
REMARK  6 active torsions:
REMARK  status: ('A' for Active; 'I' for Inactive)
REMARK    1  A    between atoms: S_2  and  N_4
REMARK    2  A    between atoms: S_2  and  C_21
REMARK    3  A    between atoms: N_4  and  C_5
REMARK    4  A    between atoms: C_7  and  S_8
REMARK    5  A    between atoms: S_8  and  N_11
REMARK    6  A    between atoms: C_19  and  O_20
REMARK                            x       y       z     vdW  Elec       q    Type
REMARK                         _______ _______ _______ _____ _____    ______ ____
ROOT
ATOM      1  C   UNL     1      -0.065  11.271  19.829  0.00  0.00    +0.000 A 
ATOM      2  C   UNL     1      -0.520  12.209  20.757  0.00  0.00    +0.000 A 
ATOM      3  C   UNL     1      -1.725  12.881  20.515  0.00  0.00    +0.000 A 
ATOM      4  C   UNL     1      -2.436  12.669  19.327  0.00  0.00    +0.000 A 
ATOM      5  C   UNL     1      -1.971  11.743  18.391  0.00  0.00    +0.000 A 
ATOM      6  C   UNL     1      -0.799  11.033  18.656  0.00  0.00    +0.000 A 
ENDROOT
BRANCH   3   7
ATOM      7  S   UNL     1      -2.462  13.901  21.787  0.00  0.00    +0.000 S 
ATOM      8  O   UNL     1      -1.434  14.162  22.773  0.00  0.00    +0.000 OA
ATOM      9  O   UNL     1      -3.150  14.975  21.106  0.00  0.00    +0.000 OA
BRANCH   7  10
ATOM     10  N   UNL     1      -3.577  12.908  22.500  0.00  0.00    +0.000 NA
ATOM     11  C   UNL     1      -4.927  12.717  21.959  0.00  0.00    +0.000 C 
ATOM     12  C   UNL     1      -5.899  13.048  23.078  0.00  0.00    +0.000 C 
ATOM     13  O   UNL     1      -5.647  12.242  24.240  0.00  0.00    +0.000 OA
ATOM     14  C   UNL     1      -4.335  12.486  24.773  0.00  0.00    +0.000 C 
ATOM     15  C   UNL     1      -3.295  12.120  23.718  0.00  0.00    +0.000 C 
ENDBRANCH   7  10
ENDBRANCH   3   7
BRANCH   1  16
ATOM     16  N   UNL     1       1.088  10.489  20.159  0.00  0.00    +0.000 N 
ATOM     17  H   UNL     1       1.858  11.048  20.535  0.00  0.00    +0.000 HD
BRANCH  16  19
ATOM     18  O   UNL     1       1.751   9.342  22.296  0.00  0.00    +0.000 OA
ATOM     19  S   UNL     1       0.906   9.118  21.139  0.00  0.00    +0.000 S 
ATOM     20  O   UNL     1      -0.494   8.793  21.292  0.00  0.00    +0.000 OA
BRANCH  19  21
ATOM     21  C   UNL     1       1.674   7.822  20.186  0.00  0.00    +0.000 A 
ATOM     22  C   UNL     1       2.188   8.085  18.919  0.00  0.00    +0.000 A 
ATOM     23  C   UNL     1       2.797   7.047  18.193  0.00  0.00    +0.000 A 
ATOM     24  C   UNL     1       2.915   5.768  18.749  0.00  0.00    +0.000 A 
ATOM     25  C   UNL     1       2.453   5.531  20.034  0.00  0.00    +0.000 A 
ATOM     26  C   UNL     1       1.827   6.556  20.758  0.00  0.00    +0.000 A 
ATOM     27  O   UNL     1       2.541   4.327  20.664  0.00  0.00    +0.000 OA
ATOM     28  C   UNL     1       3.000   3.237  19.868  0.00  0.00    +0.000 C 
ATOM     29  C   UNL     1       3.299   3.485  18.391  0.00  0.00    +0.000 C 
ATOM     30  O   UNL     1       3.532   4.829  17.982  0.00  0.00    +0.000 OA
ENDBRANCH  19  21
ENDBRANCH  16  19
ENDBRANCH   1  16
BRANCH   6  31
ATOM     31  O   UNL     1      -0.397  10.041  17.803  0.00  0.00    +0.000 OA
ATOM     32  H   UNL     1       0.559  10.125  17.645  0.00  0.00    +0.000 HD
ENDBRANCH   6  31
TORSDOF 6
ENDMDL
MODEL 8
REMARK VINA RESULT:      -7.3      1.386      1.843
REMARK  Name = 
REMARK  6 active torsions:
REMARK  status: ('A' for Active; 'I' for Inactive)
REMARK    1  A    between atoms: S_2  and  N_4
REMARK    2  A    between atoms: S_2  and  C_21
REMARK    3  A    between atoms: N_4  and  C_5
REMARK    4  A    between atoms: C_7  and  S_8
REMARK    5  A    between atoms: S_8  and  N_11
REMARK    6  A    between atoms: C_19  and  O_20
REMARK                            x       y       z     vdW  Elec       q    Type
REMARK                         _______ _______ _______ _____ _____    ______ ____
ROOT
ATOM      1  C   UNL     1       1.545   9.237  19.238  0.00  0.00    +0.000 A 
ATOM      2  C   UNL     1       1.712   7.968  19.795  0.00  0.00    +0.000 A 
ATOM      3  C   UNL     1       2.465   7.012  19.102  0.00  0.00    +0.000 A 
ATOM      4  C   UNL     1       2.991   7.296  17.835  0.00  0.00    +0.000 A 
ATOM      5  C   UNL     1       2.809   8.560  17.272  0.00  0.00    +0.000 A 
ATOM      6  C   UNL     1       2.105   9.532  17.984  0.00  0.00    +0.000 A 
ENDROOT
BRANCH   3   7
ATOM      7  S   UNL     1       2.906   5.466  19.889  0.00  0.00    +0.000 S 
ATOM      8  O   UNL     1       4.348   5.452  20.021  0.00  0.00    +0.000 OA
ATOM      9  O   UNL     1       2.037   5.324  21.035  0.00  0.00    +0.000 OA
BRANCH   7  10
ATOM     10  N   UNL     1       2.512   4.318  18.763  0.00  0.00    +0.000 NA
ATOM     11  C   UNL     1       1.185   3.696  18.700  0.00  0.00    +0.000 C 
ATOM     12  C   UNL     1       1.399   2.195  18.776  0.00  0.00    +0.000 C 
ATOM     13  O   UNL     1       2.276   1.742  17.731  0.00  0.00    +0.000 OA
ATOM     14  C   UNL     1       3.581   2.333  17.849  0.00  0.00    +0.000 C 
ATOM     15  C   UNL     1       3.452   3.849  17.725  0.00  0.00    +0.000 C 
ENDBRANCH   7  10
ENDBRANCH   3   7
BRANCH   1  16
ATOM     16  N   UNL     1       0.899  10.246  20.022  0.00  0.00    +0.000 N 
ATOM     17  H   UNL     1       1.547  10.951  20.383  0.00  0.00    +0.000 HD
BRANCH  16  19
ATOM     18  O   UNL     1       0.055  12.285  18.816  0.00  0.00    +0.000 OA
ATOM     19  S   UNL     1      -0.451  11.051  19.386  0.00  0.00    +0.000 S 
ATOM     20  O   UNL     1      -1.253  10.141  18.600  0.00  0.00    +0.000 OA
BRANCH  19  21
ATOM     21  C   UNL     1      -1.385  11.501  20.835  0.00  0.00    +0.000 A 
ATOM     22  C   UNL     1      -0.980  11.079  22.099  0.00  0.00    +0.000 A 
ATOM     23  C   UNL     1      -1.730  11.457  23.226  0.00  0.00    +0.000 A 
ATOM     24  C   UNL     1      -2.856  12.276  23.086  0.00  0.00    +0.000 A 
ATOM     25  C   UNL     1      -3.218  12.739  21.831  0.00  0.00    +0.000 A 
ATOM     26  C   UNL     1      -2.486  12.352  20.699  0.00  0.00    +0.000 A 
ATOM     27  O   UNL     1      -4.284  13.553  21.599  0.00  0.00    +0.000 OA
ATOM     28  C   UNL     1      -5.141  13.794  22.713  0.00  0.00    +0.000 C 
ATOM     29  C   UNL     1      -4.834  13.094  24.036  0.00  0.00    +0.000 C 
ATOM     30  O   UNL     1      -3.513  12.603  24.232  0.00  0.00    +0.000 OA
ENDBRANCH  19  21
ENDBRANCH  16  19
ENDBRANCH   1  16
BRANCH   6  31
ATOM     31  O   UNL     1       2.021  10.807  17.495  0.00  0.00    +0.000 OA
ATOM     32  H   UNL     1       1.780  11.410  18.220  0.00  0.00    +0.000 HD
ENDBRANCH   6  31
TORSDOF 6
ENDMDL
MODEL 9
REMARK VINA RESULT:      -7.3      2.266      9.785
REMARK  Name = 
REMARK  6 active torsions:
REMARK  status: ('A' for Active; 'I' for Inactive)
REMARK    1  A    between atoms: S_2  and  N_4
REMARK    2  A    between atoms: S_2  and  C_21
REMARK    3  A    between atoms: N_4  and  C_5
REMARK    4  A    between atoms: C_7  and  S_8
REMARK    5  A    between atoms: S_8  and  N_11
REMARK    6  A    between atoms: C_19  and  O_20
REMARK                            x       y       z     vdW  Elec       q    Type
REMARK                         _______ _______ _______ _____ _____    ______ ____
ROOT
ATOM      1  C   UNL     1      -0.454  11.425  20.487  0.00  0.00    +0.000 A 
ATOM      2  C   UNL     1      -1.215  11.797  21.596  0.00  0.00    +0.000 A 
ATOM      3  C   UNL     1      -2.495  12.330  21.399  0.00  0.00    +0.000 A 
ATOM      4  C   UNL     1      -2.986  12.553  20.106  0.00  0.00    +0.000 A 
ATOM      5  C   UNL     1      -2.217  12.196  18.997  0.00  0.00    +0.000 A 
ATOM      6  C   UNL     1      -0.963  11.614  19.192  0.00  0.00    +0.000 A 
ENDROOT
BRANCH   3   7
ATOM      7  S   UNL     1      -3.591  12.588  22.790  0.00  0.00    +0.000 S 
ATOM      8  O   UNL     1      -4.944  12.579  22.273  0.00  0.00    +0.000 OA
ATOM      9  O   UNL     1      -3.168  11.671  23.824  0.00  0.00    +0.000 OA
BRANCH   7  10
ATOM     10  N   UNL     1      -3.267  14.138  23.272  0.00  0.00    +0.000 NA
ATOM     11  C   UNL     1      -2.059  14.495  24.023  0.00  0.00    +0.000 C 
ATOM     12  C   UNL     1      -2.519  15.201  25.286  0.00  0.00    +0.000 C 
ATOM     13  O   UNL     1      -3.339  16.340  24.976  0.00  0.00    +0.000 OA
ATOM     14  C   UNL     1      -4.536  15.951  24.283  0.00  0.00    +0.000 C 
ATOM     15  C   UNL     1      -4.152  15.280  22.966  0.00  0.00    +0.000 C 
ENDBRANCH   7  10
ENDBRANCH   3   7
BRANCH   1  16
ATOM     16  N   UNL     1       0.788  10.748  20.708  0.00  0.00    +0.000 N 
ATOM     17  H   UNL     1       1.478  11.325  21.196  0.00  0.00    +0.000 HD
BRANCH  16  19
ATOM     18  O   UNL     1       1.675   9.307  22.568  0.00  0.00    +0.000 OA
ATOM     19  S   UNL     1       0.778   9.215  21.432  0.00  0.00    +0.000 S 
ATOM     20  O   UNL     1      -0.579   8.743  21.591  0.00  0.00    +0.000 OA
BRANCH  19  21
ATOM     21  C   UNL     1       1.584   8.181  20.224  0.00  0.00    +0.000 A 
ATOM     22  C   UNL     1       1.900   8.680  18.963  0.00  0.00    +0.000 A 
ATOM     23  C   UNL     1       2.544   7.846  18.033  0.00  0.00    +0.000 A 
ATOM     24  C   UNL     1       2.895   6.537  18.379  0.00  0.00    +0.000 A 
ATOM     25  C   UNL     1       2.630   6.068  19.657  0.00  0.00    +0.000 A 
ATOM     26  C   UNL     1       1.970   6.887  20.584  0.00  0.00    +0.000 A 
ATOM     27  O   UNL     1       2.951   4.818  20.090  0.00  0.00    +0.000 OA
ATOM     28  C   UNL     1       3.445   3.921  19.099  0.00  0.00    +0.000 C 
ATOM     29  C   UNL     1       3.525   4.402  17.651  0.00  0.00    +0.000 C 
ATOM     30  O   UNL     1       3.529   5.807  17.422  0.00  0.00    +0.000 OA
ENDBRANCH  19  21
ENDBRANCH  16  19
ENDBRANCH   1  16
BRANCH   6  31
ATOM     31  O   UNL     1      -0.252  11.154  18.118  0.00  0.00    +0.000 OA
ATOM     32  H   UNL     1       0.182  11.905  17.678  0.00  0.00    +0.000 HD
ENDBRANCH   6  31
TORSDOF 6
ENDMDL
