MODEL 1
REMARK VINA RESULT:      -9.2      0.000      0.000
REMARK  Name = 
REMARK  6 active torsions:
REMARK  status: ('A' for Active; 'I' for Inactive)
REMARK    1  A    between atoms: C_1  and  N_2
REMARK    2  A    between atoms: C_6  and  C_7
REMARK    3  A    between atoms: C_7  and  C_8
REMARK    4  A    between atoms: C_12  and  C_13
REMARK    5  A    between atoms: N_19  and  C_20
REMARK    6  A    between atoms: C_24  and  C_25
REMARK                            x       y       z     vdW  Elec       q    Type
REMARK                         _______ _______ _______ _____ _____    ______ ____
ROOT
ATOM      1  C   UNL     1      -0.203  11.088  19.013  0.00  0.00    +0.000 A 
ATOM      2  C   UNL     1       0.685  10.258  18.322  0.00  0.00    +0.000 A 
ATOM      3  C   UNL     1       1.235   9.187  18.998  0.00  0.00    +0.000 A 
ATOM      4  C   UNL     1       0.971   8.907  20.333  0.00  0.00    +0.000 A 
ATOM      5  C   UNL     1       0.140   9.746  21.071  0.00  0.00    +0.000 A 
ATOM      6  C   UNL     1      -0.452  10.837  20.385  0.00  0.00    +0.000 A 
ATOM      7  C   UNL     1       1.665   7.632  20.707  0.00  0.00    +0.000 C 
ATOM      8  N   UNL     1       2.353   7.243  19.479  0.00  0.00    +0.000 N 
ATOM      9  C   UNL     1       2.113   8.156  18.454  0.00  0.00    +0.000 C 
ATOM     10  O   UNL     1       2.494   8.198  17.298  0.00  0.00    +0.000 OA
ENDROOT
BRANCH   8  11
ATOM     11  C   UNL     1       3.204   6.108  19.399  0.00  0.00    +0.000 A 
ATOM     12  C   UNL     1       2.794   4.859  19.874  0.00  0.00    +0.000 A 
ATOM     13  C   UNL     1       3.602   3.735  19.725  0.00  0.00    +0.000 A 
ATOM     14  C   UNL     1       4.840   3.845  19.101  0.00  0.00    +0.000 A 
ATOM     15  C   UNL     1       5.321   5.077  18.623  0.00  0.00    +0.000 A 
ATOM     16  C   UNL     1       4.474   6.196  18.802  0.00  0.00    +0.000 A 
BRANCH  15  17
ATOM     17  C   UNL     1       6.706   5.212  17.865  0.00  0.00    +0.000 C 
ATOM     18  C   UNL     1       7.161   6.622  17.454  0.00  0.00    +0.000 C 
ATOM     19  O   UNL     1       7.549   6.151  16.139  0.00  0.00    +0.000 OA
ATOM     20  C   UNL     1       6.819   4.916  16.361  0.00  0.00    +0.000 C 
ENDBRANCH  15  17
ENDBRANCH   8  11
BRANCH   5  21
ATOM     21  C   UNL     1      -0.159   9.516  22.531  0.00  0.00    +0.000 C 
ATOM     22  F   UNL     1      -0.902   8.396  22.760  0.00  0.00    +0.000 F 
ATOM     23  F   UNL     1       0.971   9.365  23.275  0.00  0.00    +0.000 F 
ATOM     24  F   UNL     1      -0.852  10.542  23.092  0.00  0.00    +0.000 F 
ENDBRANCH   5  21
BRANCH   1  25
ATOM     25  C   UNL     1      -0.976  12.130  18.235  0.00  0.00    +0.000 C 
BRANCH  25  31
ATOM     26  C   UNL     1      -3.782  12.310  19.652  0.00  0.00    +0.000 C 
ATOM     27  N   UNL     1      -3.507  11.829  18.325  0.00  0.00    +0.000 N 
ATOM     28  C   UNL     1      -4.441  11.414  17.425  0.00  0.00    +0.000 A 
ATOM     29  N   UNL     1      -3.850  11.047  16.315  0.00  0.00    +0.000 NA
ATOM     30  N   UNL     1      -2.500  11.226  16.486  0.00  0.00    +0.000 NA
ATOM     31  C   UNL     1      -2.294  11.704  17.698  0.00  0.00    +0.000 A 
ENDBRANCH  25  31
ENDBRANCH   1  25
TORSDOF 5
ENDMDL
MODEL 2
REMARK VINA RESULT:      -9.1      0.587      1.025
REMARK  Name = 
REMARK  6 active torsions:
REMARK  status: ('A' for Active; 'I' for Inactive)
REMARK    1  A    between atoms: C_1  and  N_2
REMARK    2  A    between atoms: C_6  and  C_7
REMARK    3  A    between atoms: C_7  and  C_8
REMARK    4  A    between atoms: C_12  and  C_13
REMARK    5  A    between atoms: N_19  and  C_20
REMARK    6  A    between atoms: C_24  and  C_25
REMARK                            x       y       z     vdW  Elec       q    Type
REMARK                         _______ _______ _______ _____ _____    ______ ____
ROOT
ATOM      1  C   UNL     1      -0.531  11.169  19.172  0.00  0.00    +0.000 A 
ATOM      2  C   UNL     1       0.323  10.349  18.427  0.00  0.00    +0.000 A 
ATOM      3  C   UNL     1       0.944   9.298  19.073  0.00  0.00    +0.000 A 
ATOM      4  C   UNL     1       0.783   9.029  20.427  0.00  0.00    +0.000 A 
ATOM      5  C   UNL     1      -0.010   9.860  21.214  0.00  0.00    +0.000 A 
ATOM      6  C   UNL     1      -0.674  10.930  20.562  0.00  0.00    +0.000 A 
ATOM      7  C   UNL     1       1.530   7.774  20.764  0.00  0.00    +0.000 C 
ATOM      8  N   UNL     1       2.136   7.384  19.494  0.00  0.00    +0.000 N 
ATOM      9  C   UNL     1       1.803   8.279  18.478  0.00  0.00    +0.000 C 
ATOM     10  O   UNL     1       2.097   8.314  17.297  0.00  0.00    +0.000 OA
ENDROOT
BRANCH   8  11
ATOM     11  C   UNL     1       3.004   6.266  19.365  0.00  0.00    +0.000 A 
ATOM     12  C   UNL     1       2.671   5.023  19.908  0.00  0.00    +0.000 A 
ATOM     13  C   UNL     1       3.489   3.913  19.714  0.00  0.00    +0.000 A 
ATOM     14  C   UNL     1       4.661   4.033  18.975  0.00  0.00    +0.000 A 
ATOM     15  C   UNL     1       5.065   5.261  18.421  0.00  0.00    +0.000 A 
ATOM     16  C   UNL     1       4.211   6.366  18.650  0.00  0.00    +0.000 A 
BRANCH  15  17
ATOM     17  C   UNL     1       6.370   5.404  17.535  0.00  0.00    +0.000 C 
ATOM     18  C   UNL     1       6.631   4.327  16.469  0.00  0.00    +0.000 C 
ATOM     19  O   UNL     1       8.027   4.238  16.851  0.00  0.00    +0.000 OA
ATOM     20  C   UNL     1       7.745   4.972  18.071  0.00  0.00    +0.000 C 
ENDBRANCH  15  17
ENDBRANCH   8  11
BRANCH   5  21
ATOM     21  C   UNL     1      -0.197   9.642  22.695  0.00  0.00    +0.000 C 
ATOM     22  F   UNL     1      -0.868  10.657  23.309  0.00  0.00    +0.000 F 
ATOM     23  F   UNL     1      -0.908   8.514  22.967  0.00  0.00    +0.000 F 
ATOM     24  F   UNL     1       0.982   9.522  23.360  0.00  0.00    +0.000 F 
ENDBRANCH   5  21
BRANCH   1  25
ATOM     25  C   UNL     1      -1.380  12.184  18.441  0.00  0.00    +0.000 C 
BRANCH  25  31
ATOM     26  C   UNL     1      -4.443  12.132  19.171  0.00  0.00    +0.000 C 
ATOM     27  N   UNL     1      -3.831  11.665  17.957  0.00  0.00    +0.000 N 
ATOM     28  C   UNL     1      -4.494  11.162  16.880  0.00  0.00    +0.000 A 
ATOM     29  N   UNL     1      -3.634  10.838  15.946  0.00  0.00    +0.000 NA
ATOM     30  N   UNL     1      -2.380  11.135  16.416  0.00  0.00    +0.000 NA
ATOM     31  C   UNL     1      -2.499  11.640  17.628  0.00  0.00    +0.000 A 
ENDBRANCH  25  31
ENDBRANCH   1  25
TORSDOF 5
ENDMDL
MODEL 3
REMARK VINA RESULT:      -9.1      0.512      1.077
REMARK  Name = 
REMARK  6 active torsions:
REMARK  status: ('A' for Active; 'I' for Inactive)
REMARK    1  A    between atoms: C_1  and  N_2
REMARK    2  A    between atoms: C_6  and  C_7
REMARK    3  A    between atoms: C_7  and  C_8
REMARK    4  A    between atoms: C_12  and  C_13
REMARK    5  A    between atoms: N_19  and  C_20
REMARK    6  A    between atoms: C_24  and  C_25
REMARK                            x       y       z     vdW  Elec       q    Type
REMARK                         _______ _______ _______ _____ _____    ______ ____
ROOT
ATOM      1  C   UNL     1      -0.249  11.147  19.106  0.00  0.00    +0.000 A 
ATOM      2  C   UNL     1       0.630  10.327  18.391  0.00  0.00    +0.000 A 
ATOM      3  C   UNL     1       1.191   9.248  19.046  0.00  0.00    +0.000 A 
ATOM      4  C   UNL     1       0.947   8.950  20.381  0.00  0.00    +0.000 A 
ATOM      5  C   UNL     1       0.126   9.780  21.141  0.00  0.00    +0.000 A 
ATOM      6  C   UNL     1      -0.478  10.878  20.478  0.00  0.00    +0.000 A 
ATOM      7  C   UNL     1       1.647   7.672  20.729  0.00  0.00    +0.000 C 
ATOM      8  N   UNL     1       2.318   7.300  19.487  0.00  0.00    +0.000 N 
ATOM      9  C   UNL     1       2.063   8.225  18.476  0.00  0.00    +0.000 C 
ATOM     10  O   UNL     1       2.427   8.282  17.315  0.00  0.00    +0.000 OA
ENDROOT
BRANCH   8  11
ATOM     11  C   UNL     1       3.170   6.167  19.380  0.00  0.00    +0.000 A 
ATOM     12  C   UNL     1       2.762   4.908  19.829  0.00  0.00    +0.000 A 
ATOM     13  C   UNL     1       3.570   3.788  19.654  0.00  0.00    +0.000 A 
ATOM     14  C   UNL     1       4.806   3.911  19.029  0.00  0.00    +0.000 A 
ATOM     15  C   UNL     1       5.285   5.154  18.576  0.00  0.00    +0.000 A 
ATOM     16  C   UNL     1       4.438   6.268  18.781  0.00  0.00    +0.000 A 
BRANCH  15  17
ATOM     17  C   UNL     1       6.668   5.305  17.817  0.00  0.00    +0.000 C 
ATOM     18  C   UNL     1       7.269   6.716  17.703  0.00  0.00    +0.000 C 
ATOM     19  O   UNL     1       7.588   6.504  16.305  0.00  0.00    +0.000 OA
ATOM     20  C   UNL     1       6.731   5.333  16.281  0.00  0.00    +0.000 C 
ENDBRANCH  15  17
ENDBRANCH   8  11
BRANCH   5  21
ATOM     21  C   UNL     1      -0.152   9.530  22.602  0.00  0.00    +0.000 C 
ATOM     22  F   UNL     1      -0.909   8.419  22.826  0.00  0.00    +0.000 F 
ATOM     23  F   UNL     1       0.988   9.350  23.324  0.00  0.00    +0.000 F 
ATOM     24  F   UNL     1      -0.819  10.557  23.192  0.00  0.00    +0.000 F 
ENDBRANCH   5  21
BRANCH   1  25
ATOM     25  C   UNL     1      -1.033  12.197  18.352  0.00  0.00    +0.000 C 
BRANCH  25  31
ATOM     26  C   UNL     1      -2.595  10.837  15.980  0.00  0.00    +0.000 C 
ATOM     27  N   UNL     1      -3.147  11.339  17.209  0.00  0.00    +0.000 N 
ATOM     28  C   UNL     1      -4.454  11.259  17.580  0.00  0.00    +0.000 A 
ATOM     29  N   UNL     1      -4.612  11.809  18.759  0.00  0.00    +0.000 NA
ATOM     30  N   UNL     1      -3.383  12.258  19.173  0.00  0.00    +0.000 NA
ATOM     31  C   UNL     1      -2.498  11.969  18.240  0.00  0.00    +0.000 A 
ENDBRANCH  25  31
ENDBRANCH   1  25
TORSDOF 5
ENDMDL
MODEL 4
REMARK VINA RESULT:      -8.8      0.662      1.035
REMARK  Name = 
REMARK  6 active torsions:
REMARK  status: ('A' for Active; 'I' for Inactive)
REMARK    1  A    between atoms: C_1  and  N_2
REMARK    2  A    between atoms: C_6  and  C_7
REMARK    3  A    between atoms: C_7  and  C_8
REMARK    4  A    between atoms: C_12  and  C_13
REMARK    5  A    between atoms: N_19  and  C_20
REMARK    6  A    between atoms: C_24  and  C_25
REMARK                            x       y       z     vdW  Elec       q    Type
REMARK                         _______ _______ _______ _____ _____    ______ ____
ROOT
ATOM      1  C   UNL     1      -0.313  11.175  19.201  0.00  0.00    +0.000 A 
ATOM      2  C   UNL     1       0.560  10.332  18.506  0.00  0.00    +0.000 A 
ATOM      3  C   UNL     1       1.095   9.252  19.179  0.00  0.00    +0.000 A 
ATOM      4  C   UNL     1       0.831   8.974  20.514  0.00  0.00    +0.000 A 
ATOM      5  C   UNL     1       0.015   9.825  21.256  0.00  0.00    +0.000 A 
ATOM      6  C   UNL     1      -0.562  10.926  20.574  0.00  0.00    +0.000 A 
ATOM      7  C   UNL     1       1.506   7.688  20.884  0.00  0.00    +0.000 C 
ATOM      8  N   UNL     1       2.185   7.290  19.654  0.00  0.00    +0.000 N 
ATOM      9  C   UNL     1       1.957   8.208  18.631  0.00  0.00    +0.000 C 
ATOM     10  O   UNL     1       2.334   8.246  17.474  0.00  0.00    +0.000 OA
ENDROOT
BRANCH   8  11
ATOM     11  C   UNL     1       3.018   6.142  19.570  0.00  0.00    +0.000 A 
ATOM     12  C   UNL     1       2.517   4.862  19.818  0.00  0.00    +0.000 A 
ATOM     13  C   UNL     1       3.319   3.735  19.662  0.00  0.00    +0.000 A 
ATOM     14  C   UNL     1       4.642   3.873  19.257  0.00  0.00    +0.000 A 
ATOM     15  C   UNL     1       5.215   5.134  19.014  0.00  0.00    +0.000 A 
ATOM     16  C   UNL     1       4.369   6.255  19.195  0.00  0.00    +0.000 A 
BRANCH  15  17
ATOM     17  C   UNL     1       6.705   5.307  18.505  0.00  0.00    +0.000 C 
ATOM     18  C   UNL     1       7.756   5.784  19.521  0.00  0.00    +0.000 C 
ATOM     19  O   UNL     1       8.306   6.723  18.563  0.00  0.00    +0.000 OA
ATOM     20  C   UNL     1       7.135   6.558  17.721  0.00  0.00    +0.000 C 
ENDBRANCH  15  17
ENDBRANCH   8  11
BRANCH   5  21
ATOM     21  C   UNL     1      -0.283   9.597  22.716  0.00  0.00    +0.000 C 
ATOM     22  F   UNL     1       0.837   9.480  23.484  0.00  0.00    +0.000 F 
ATOM     23  F   UNL     1      -1.000  10.616  23.265  0.00  0.00    +0.000 F 
ATOM     24  F   UNL     1      -1.001   8.464  22.934  0.00  0.00    +0.000 F 
ENDBRANCH   5  21
BRANCH   1  25
ATOM     25  C   UNL     1      -1.072  12.230  18.427  0.00  0.00    +0.000 C 
BRANCH  25  31
ATOM     26  C   UNL     1      -3.928  12.435  19.737  0.00  0.00    +0.000 C 
ATOM     27  N   UNL     1      -3.607  11.944  18.424  0.00  0.00    +0.000 N 
ATOM     28  C   UNL     1      -4.509  11.528  17.494  0.00  0.00    +0.000 A 
ATOM     29  N   UNL     1      -3.879  11.150  16.409  0.00  0.00    +0.000 NA
ATOM     30  N   UNL     1      -2.536  11.323  16.628  0.00  0.00    +0.000 NA
ATOM     31  C   UNL     1      -2.372  11.808  17.844  0.00  0.00    +0.000 A 
ENDBRANCH  25  31
ENDBRANCH   1  25
TORSDOF 5
ENDMDL
MODEL 5
REMARK VINA RESULT:      -8.8      0.905      1.526
REMARK  Name = 
REMARK  6 active torsions:
REMARK  status: ('A' for Active; 'I' for Inactive)
REMARK    1  A    between atoms: C_1  and  N_2
REMARK    2  A    between atoms: C_6  and  C_7
REMARK    3  A    between atoms: C_7  and  C_8
REMARK    4  A    between atoms: C_12  and  C_13
REMARK    5  A    between atoms: N_19  and  C_20
REMARK    6  A    between atoms: C_24  and  C_25
REMARK                            x       y       z     vdW  Elec       q    Type
REMARK                         _______ _______ _______ _____ _____    ______ ____
ROOT
ATOM      1  C   UNL     1      -0.381  11.260  19.206  0.00  0.00    +0.000 A 
ATOM      2  C   UNL     1       0.482  10.482  18.428  0.00  0.00    +0.000 A 
ATOM      3  C   UNL     1       1.085   9.389  19.020  0.00  0.00    +0.000 A 
ATOM      4  C   UNL     1       0.898   9.039  20.351  0.00  0.00    +0.000 A 
ATOM      5  C   UNL     1       0.095   9.826  21.173  0.00  0.00    +0.000 A 
ATOM      6  C   UNL     1      -0.551  10.938  20.576  0.00  0.00    +0.000 A 
ATOM      7  C   UNL     1       1.632   7.761  20.623  0.00  0.00    +0.000 C 
ATOM      8  N   UNL     1       2.259   7.446  19.343  0.00  0.00    +0.000 N 
ATOM      9  C   UNL     1       1.950   8.403  18.379  0.00  0.00    +0.000 C 
ATOM     10  O   UNL     1       2.266   8.509  17.207  0.00  0.00    +0.000 OA
ENDROOT
BRANCH   8  11
ATOM     11  C   UNL     1       3.123   6.332  19.161  0.00  0.00    +0.000 A 
ATOM     12  C   UNL     1       3.032   5.202  19.978  0.00  0.00    +0.000 A 
ATOM     13  C   UNL     1       3.830   4.085  19.748  0.00  0.00    +0.000 A 
ATOM     14  C   UNL     1       4.739   4.083  18.696  0.00  0.00    +0.000 A 
ATOM     15  C   UNL     1       4.897   5.197  17.851  0.00  0.00    +0.000 A 
ATOM     16  C   UNL     1       4.074   6.316  18.125  0.00  0.00    +0.000 A 
BRANCH  15  17
ATOM     17  C   UNL     1       5.890   5.194  16.618  0.00  0.00    +0.000 C 
ATOM     18  C   UNL     1       5.415   5.861  15.317  0.00  0.00    +0.000 C 
ATOM     19  O   UNL     1       5.910   4.750  14.527  0.00  0.00    +0.000 OA
ATOM     20  C   UNL     1       6.048   3.949  15.729  0.00  0.00    +0.000 C 
ENDBRANCH  15  17
ENDBRANCH   8  11
BRANCH   5  21
ATOM     21  C   UNL     1      -0.120   9.518  22.634  0.00  0.00    +0.000 C 
ATOM     22  F   UNL     1       1.040   9.326  23.322  0.00  0.00    +0.000 F 
ATOM     23  F   UNL     1      -0.771  10.522  23.285  0.00  0.00    +0.000 F 
ATOM     24  F   UNL     1      -0.858   8.394  22.830  0.00  0.00    +0.000 F 
ENDBRANCH   5  21
BRANCH   1  25
ATOM     25  C   UNL     1      -1.211  12.324  18.523  0.00  0.00    +0.000 C 
BRANCH  25  31
ATOM     26  C   UNL     1      -2.607  10.925  16.071  0.00  0.00    +0.000 C 
ATOM     27  N   UNL     1      -3.231  11.375  17.287  0.00  0.00    +0.000 N 
ATOM     28  C   UNL     1      -4.545  11.219  17.606  0.00  0.00    +0.000 A 
ATOM     29  N   UNL     1      -4.776  11.738  18.786  0.00  0.00    +0.000 NA
ATOM     30  N   UNL     1      -3.589  12.245  19.255  0.00  0.00    +0.000 NA
ATOM     31  C   UNL     1      -2.655  12.020  18.352  0.00  0.00    +0.000 A 
ENDBRANCH  25  31
ENDBRANCH   1  25
TORSDOF 5
ENDMDL
MODEL 6
REMARK VINA RESULT:      -8.7      3.406      8.363
REMARK  Name = 
REMARK  6 active torsions:
REMARK  status: ('A' for Active; 'I' for Inactive)
REMARK    1  A    between atoms: C_1  and  N_2
REMARK    2  A    between atoms: C_6  and  C_7
REMARK    3  A    between atoms: C_7  and  C_8
REMARK    4  A    between atoms: C_12  and  C_13
REMARK    5  A    between atoms: N_19  and  C_20
REMARK    6  A    between atoms: C_24  and  C_25
REMARK                            x       y       z     vdW  Elec       q    Type
REMARK                         _______ _______ _______ _____ _____    ______ ____
ROOT
ATOM      1  C   UNL     1       3.838   3.938  17.821  0.00  0.00    +0.000 A 
ATOM      2  C   UNL     1       3.516   5.282  17.607  0.00  0.00    +0.000 A 
ATOM      3  C   UNL     1       2.813   5.947  18.591  0.00  0.00    +0.000 A 
ATOM      4  C   UNL     1       2.389   5.346  19.769  0.00  0.00    +0.000 A 
ATOM      5  C   UNL     1       2.636   3.993  19.990  0.00  0.00    +0.000 A 
ATOM      6  C   UNL     1       3.378   3.300  19.000  0.00  0.00    +0.000 A 
ATOM      7  C   UNL     1       1.737   6.381  20.635  0.00  0.00    +0.000 C 
ATOM      8  N   UNL     1       1.813   7.598  19.832  0.00  0.00    +0.000 N 
ATOM      9  C   UNL     1       2.446   7.360  18.613  0.00  0.00    +0.000 C 
ATOM     10  O   UNL     1       2.704   8.093  17.674  0.00  0.00    +0.000 OA
ENDROOT
BRANCH   8  11
ATOM     11  C   UNL     1       1.244   8.832  20.246  0.00  0.00    +0.000 A 
ATOM     12  C   UNL     1       0.803   9.024  21.558  0.00  0.00    +0.000 A 
ATOM     13  C   UNL     1       0.315  10.259  21.977  0.00  0.00    +0.000 A 
ATOM     14  C   UNL     1       0.257  11.324  21.085  0.00  0.00    +0.000 A 
ATOM     15  C   UNL     1       0.663  11.190  19.745  0.00  0.00    +0.000 A 
ATOM     16  C   UNL     1       1.143   9.916  19.356  0.00  0.00    +0.000 A 
BRANCH  15  17
ATOM     17  C   UNL     1       0.650  12.405  18.728  0.00  0.00    +0.000 C 
ATOM     18  C   UNL     1       1.257  13.737  19.200  0.00  0.00    +0.000 C 
ATOM     19  O   UNL     1       0.137  14.479  18.656  0.00  0.00    +0.000 OA
ATOM     20  C   UNL     1      -0.618  13.248  18.516  0.00  0.00    +0.000 C 
ENDBRANCH  15  17
ENDBRANCH   8  11
BRANCH   5  21
ATOM     21  C   UNL     1       2.173   3.274  21.232  0.00  0.00    +0.000 C 
ATOM     22  F   UNL     1       0.843   2.972  21.217  0.00  0.00    +0.000 F 
ATOM     23  F   UNL     1       2.816   2.088  21.415  0.00  0.00    +0.000 F 
ATOM     24  F   UNL     1       2.376   3.998  22.364  0.00  0.00    +0.000 F 
ENDBRANCH   5  21
BRANCH   1  25
ATOM     25  C   UNL     1       4.786   3.258  16.859  0.00  0.00    +0.000 C 
BRANCH  25  31
ATOM     26  C   UNL     1       7.475   4.607  17.790  0.00  0.00    +0.000 C 
ATOM     27  N   UNL     1       6.861   4.696  16.492  0.00  0.00    +0.000 N 
ATOM     28  C   UNL     1       7.380   5.347  15.415  0.00  0.00    +0.000 A 
ATOM     29  N   UNL     1       6.568   5.225  14.394  0.00  0.00    +0.000 NA
ATOM     30  N   UNL     1       5.495   4.476  14.806  0.00  0.00    +0.000 NA
ATOM     31  C   UNL     1       5.675   4.151  16.071  0.00  0.00    +0.000 A 
ENDBRANCH  25  31
ENDBRANCH   1  25
TORSDOF 5
ENDMDL
MODEL 7
REMARK VINA RESULT:      -8.6      2.430      2.947
REMARK  Name = 
REMARK  6 active torsions:
REMARK  status: ('A' for Active; 'I' for Inactive)
REMARK    1  A    between atoms: C_1  and  N_2
REMARK    2  A    between atoms: C_6  and  C_7
REMARK    3  A    between atoms: C_7  and  C_8
REMARK    4  A    between atoms: C_12  and  C_13
REMARK    5  A    between atoms: N_19  and  C_20
REMARK    6  A    between atoms: C_24  and  C_25
REMARK                            x       y       z     vdW  Elec       q    Type
REMARK                         _______ _______ _______ _____ _____    ______ ____
ROOT
ATOM      1  C   UNL     1       0.030  11.901  19.590  0.00  0.00    +0.000 A 
ATOM      2  C   UNL     1       0.777  11.152  18.675  0.00  0.00    +0.000 A 
ATOM      3  C   UNL     1       1.186   9.887  19.050  0.00  0.00    +0.000 A 
ATOM      4  C   UNL     1       0.915   9.332  20.294  0.00  0.00    +0.000 A 
ATOM      5  C   UNL     1       0.227  10.071  21.253  0.00  0.00    +0.000 A 
ATOM      6  C   UNL     1      -0.222  11.362  20.877  0.00  0.00    +0.000 A 
ATOM      7  C   UNL     1       1.432   7.925  20.319  0.00  0.00    +0.000 C 
ATOM      8  N   UNL     1       2.031   7.755  18.999  0.00  0.00    +0.000 N 
ATOM      9  C   UNL     1       1.899   8.911  18.231  0.00  0.00    +0.000 C 
ATOM     10  O   UNL     1       2.256   9.180  17.098  0.00  0.00    +0.000 OA
ENDROOT
BRANCH   8  11
ATOM     11  C   UNL     1       2.713   6.571  18.608  0.00  0.00    +0.000 A 
ATOM     12  C   UNL     1       2.057   5.339  18.562  0.00  0.00    +0.000 A 
ATOM     13  C   UNL     1       2.709   4.196  18.106  0.00  0.00    +0.000 A 
ATOM     14  C   UNL     1       4.035   4.269  17.693  0.00  0.00    +0.000 A 
ATOM     15  C   UNL     1       4.759   5.474  17.737  0.00  0.00    +0.000 A 
ATOM     16  C   UNL     1       4.062   6.610  18.215  0.00  0.00    +0.000 A 
BRANCH  15  17
ATOM     17  C   UNL     1       6.253   5.586  17.223  0.00  0.00    +0.000 C 
ATOM     18  C   UNL     1       6.776   4.474  16.299  0.00  0.00    +0.000 C 
ATOM     19  O   UNL     1       8.019   4.396  17.039  0.00  0.00    +0.000 OA
ATOM     20  C   UNL     1       7.432   5.170  18.117  0.00  0.00    +0.000 C 
ENDBRANCH  15  17
ENDBRANCH   8  11
BRANCH   5  21
ATOM     21  C   UNL     1      -0.069   9.537  22.632  0.00  0.00    +0.000 C 
ATOM     22  F   UNL     1       1.051   9.192  23.329  0.00  0.00    +0.000 F 
ATOM     23  F   UNL     1      -0.720  10.444  23.411  0.00  0.00    +0.000 F 
ATOM     24  F   UNL     1      -0.848   8.424  22.608  0.00  0.00    +0.000 F 
ENDBRANCH   5  21
BRANCH   1  25
ATOM     25  C   UNL     1      -0.606  13.191  19.122  0.00  0.00    +0.000 C 
BRANCH  25  31
ATOM     26  C   UNL     1      -1.066  15.129  21.562  0.00  0.00    +0.000 C 
ATOM     27  N   UNL     1      -0.066  15.246  20.534  0.00  0.00    +0.000 N 
ATOM     28  C   UNL     1       0.899  16.204  20.476  0.00  0.00    +0.000 A 
ATOM     29  N   UNL     1       1.644  16.014  19.415  0.00  0.00    +0.000 NA
ATOM     30  N   UNL     1       1.161  14.907  18.763  0.00  0.00    +0.000 NA
ATOM     31  C   UNL     1       0.132  14.440  19.442  0.00  0.00    +0.000 A 
ENDBRANCH  25  31
ENDBRANCH   1  25
TORSDOF 5
ENDMDL
MODEL 8
REMARK VINA RESULT:      -8.6      2.063      2.809
REMARK  Name = 
REMARK  6 active torsions:
REMARK  status: ('A' for Active; 'I' for Inactive)
REMARK    1  A    between atoms: C_1  and  N_2
REMARK    2  A    between atoms: C_6  and  C_7
REMARK    3  A    between atoms: C_7  and  C_8
REMARK    4  A    between atoms: C_12  and  C_13
REMARK    5  A    between atoms: N_19  and  C_20
REMARK    6  A    between atoms: C_24  and  C_25
REMARK                            x       y       z     vdW  Elec       q    Type
REMARK                         _______ _______ _______ _____ _____    ______ ____
ROOT
ATOM      1  C   UNL     1       0.082  11.645  19.367  0.00  0.00    +0.000 A 
ATOM      2  C   UNL     1       0.868  10.820  18.556  0.00  0.00    +0.000 A 
ATOM      3  C   UNL     1       1.273   9.602  19.065  0.00  0.00    +0.000 A 
ATOM      4  C   UNL     1       0.962   9.166  20.347  0.00  0.00    +0.000 A 
ATOM      5  C   UNL     1       0.235   9.987  21.206  0.00  0.00    +0.000 A 
ATOM      6  C   UNL     1      -0.210  11.231  20.691  0.00  0.00    +0.000 A 
ATOM      7  C   UNL     1       1.488   7.774  20.527  0.00  0.00    +0.000 C 
ATOM      8  N   UNL     1       2.136   7.485  19.251  0.00  0.00    +0.000 N 
ATOM      9  C   UNL     1       2.022   8.559  18.370  0.00  0.00    +0.000 C 
ATOM     10  O   UNL     1       2.417   8.721  17.230  0.00  0.00    +0.000 OA
ENDROOT
BRANCH   8  11
ATOM     11  C   UNL     1       2.840   6.276  19.000  0.00  0.00    +0.000 A 
ATOM     12  C   UNL     1       2.210   5.034  19.107  0.00  0.00    +0.000 A 
ATOM     13  C   UNL     1       2.884   3.858  18.788  0.00  0.00    +0.000 A 
ATOM     14  C   UNL     1       4.206   3.907  18.360  0.00  0.00    +0.000 A 
ATOM     15  C   UNL     1       4.905   5.123  18.253  0.00  0.00    +0.000 A 
ATOM     16  C   UNL     1       4.187   6.294  18.596  0.00  0.00    +0.000 A 
BRANCH  15  17
ATOM     17  C   UNL     1       6.394   5.203  17.720  0.00  0.00    +0.000 C 
ATOM     18  C   UNL     1       6.924   6.579  17.284  0.00  0.00    +0.000 C 
ATOM     19  O   UNL     1       7.512   6.012  16.086  0.00  0.00    +0.000 OA
ATOM     20  C   UNL     1       6.743   4.796  16.279  0.00  0.00    +0.000 C 
ENDBRANCH  15  17
ENDBRANCH   8  11
BRANCH   5  21
ATOM     21  C   UNL     1      -0.106   9.586  22.619  0.00  0.00    +0.000 C 
ATOM     22  F   UNL     1       0.988   9.280  23.372  0.00  0.00    +0.000 F 
ATOM     23  F   UNL     1      -0.754  10.573  23.297  0.00  0.00    +0.000 F 
ATOM     24  F   UNL     1      -0.911   8.492  22.675  0.00  0.00    +0.000 F 
ENDBRANCH   5  21
BRANCH   1  25
ATOM     25  C   UNL     1      -0.546  12.877  18.755  0.00  0.00    +0.000 C 
BRANCH  25  31
ATOM     26  C   UNL     1       2.169  14.456  18.528  0.00  0.00    +0.000 C 
ATOM     27  N   UNL     1       0.985  14.859  19.238  0.00  0.00    +0.000 N 
ATOM     28  C   UNL     1       0.823  16.038  19.898  0.00  0.00    +0.000 A 
ATOM     29  N   UNL     1      -0.375  16.084  20.429  0.00  0.00    +0.000 NA
ATOM     30  N   UNL     1      -1.014  14.913  20.109  0.00  0.00    +0.000 NA
ATOM     31  C   UNL     1      -0.195  14.176  19.385  0.00  0.00    +0.000 A 
ENDBRANCH  25  31
ENDBRANCH   1  25
TORSDOF 5
ENDMDL
MODEL 9
REMARK VINA RESULT:      -8.6      3.329      8.460
REMARK  Name = 
REMARK  6 active torsions:
REMARK  status: ('A' for Active; 'I' for Inactive)
REMARK    1  A    between atoms: C_1  and  N_2
REMARK    2  A    between atoms: C_6  and  C_7
REMARK    3  A    between atoms: C_7  and  C_8
REMARK    4  A    between atoms: C_12  and  C_13
REMARK    5  A    between atoms: N_19  and  C_20
REMARK    6  A    between atoms: C_24  and  C_25
REMARK                            x       y       z     vdW  Elec       q    Type
REMARK                         _______ _______ _______ _____ _____    ______ ____
ROOT
ATOM      1  C   UNL     1       3.788   3.988  17.836  0.00  0.00    +0.000 A 
ATOM      2  C   UNL     1       3.472   5.340  17.670  0.00  0.00    +0.000 A 
ATOM      3  C   UNL     1       2.728   5.960  18.654  0.00  0.00    +0.000 A 
ATOM      4  C   UNL     1       2.257   5.305  19.785  0.00  0.00    +0.000 A 
ATOM      5  C   UNL     1       2.499   3.944  19.955  0.00  0.00    +0.000 A 
ATOM      6  C   UNL     1       3.282   3.297  18.966  0.00  0.00    +0.000 A 
ATOM      7  C   UNL     1       1.568   6.300  20.670  0.00  0.00    +0.000 C 
ATOM      8  N   UNL     1       1.674   7.552  19.926  0.00  0.00    +0.000 N 
ATOM      9  C   UNL     1       2.356   7.371  18.725  0.00  0.00    +0.000 C 
ATOM     10  O   UNL     1       2.651   8.145  17.832  0.00  0.00    +0.000 OA
ENDROOT
BRANCH   8  11
ATOM     11  C   UNL     1       1.086   8.766  20.372  0.00  0.00    +0.000 A 
ATOM     12  C   UNL     1       1.320   9.256  21.660  0.00  0.00    +0.000 A 
ATOM     13  C   UNL     1       0.801  10.483  22.066  0.00  0.00    +0.000 A 
ATOM     14  C   UNL     1       0.033  11.239  21.187  0.00  0.00    +0.000 A 
ATOM     15  C   UNL     1      -0.260  10.792  19.886  0.00  0.00    +0.000 A 
ATOM     16  C   UNL     1       0.278   9.536  19.516  0.00  0.00    +0.000 A 
BRANCH  15  17
ATOM     17  C   UNL     1      -1.091  11.662  18.856  0.00  0.00    +0.000 C 
ATOM     18  C   UNL     1      -2.504  12.103  19.271  0.00  0.00    +0.000 C 
ATOM     19  O   UNL     1      -3.035  11.745  17.970  0.00  0.00    +0.000 OA
ATOM     20  C   UNL     1      -1.821  11.007  17.673  0.00  0.00    +0.000 C 
ENDBRANCH  15  17
ENDBRANCH   8  11
BRANCH   5  21
ATOM     21  C   UNL     1       1.987   3.169  21.143  0.00  0.00    +0.000 C 
ATOM     22  F   UNL     1       0.626   3.103  21.198  0.00  0.00    +0.000 F 
ATOM     23  F   UNL     1       2.417   1.878  21.145  0.00  0.00    +0.000 F 
ATOM     24  F   UNL     1       2.380   3.705  22.328  0.00  0.00    +0.000 F 
ENDBRANCH   5  21
BRANCH   1  25
ATOM     25  C   UNL     1       4.776   3.353  16.884  0.00  0.00    +0.000 C 
BRANCH  25  31
ATOM     26  C   UNL     1       7.486   4.632  17.853  0.00  0.00    +0.000 C 
ATOM     27  N   UNL     1       6.855   4.799  16.571  0.00  0.00    +0.000 N 
ATOM     28  C   UNL     1       7.364   5.508  15.527  0.00  0.00    +0.000 A 
ATOM     29  N   UNL     1       6.537   5.449  14.511  0.00  0.00    +0.000 NA
ATOM     30  N   UNL     1       5.465   4.683  14.895  0.00  0.00    +0.000 NA
ATOM     31  C   UNL     1       5.660   4.285  16.137  0.00  0.00    +0.000 A 
ENDBRANCH  25  31
ENDBRANCH   1  25
TORSDOF 5
ENDMDL
