MODEL 1
REMARK VINA RESULT:      -8.2      0.000      0.000
REMARK  Name = 
REMARK  4 active torsions:
REMARK  status: ('A' for Active; 'I' for Inactive)
REMARK    1  A    between atoms: C_1  and  C_2
REMARK    2  A    between atoms: C_6  and  N_7
REMARK    3  A    between atoms: C_8  and  C_10
REMARK    4  A    between atoms: C_12  and  C_13
REMARK                            x       y       z     vdW  Elec       q    Type
REMARK                         _______ _______ _______ _____ _____    ______ ____
ROOT
ATOM      1  C   UNL     1       2.948   5.988  18.761  0.00  0.00    +0.000 A 
ATOM      2  C   UNL     1       2.567   7.114  19.494  0.00  0.00    +0.000 A 
ATOM      3  C   UNL     1       1.688   6.974  20.556  0.00  0.00    +0.000 A 
ATOM      4  N   UNL     1       1.158   5.769  20.864  0.00  0.00    +0.000 NA
ATOM      5  C   UNL     1       1.481   4.683  20.140  0.00  0.00    +0.000 A 
ATOM      6  C   UNL     1       0.884   3.474  20.482  0.00  0.00    +0.000 A 
ATOM      7  C   UNL     1       1.158   2.289  19.796  0.00  0.00    +0.000 A 
ATOM      8  C   UNL     1       2.055   2.303  18.741  0.00  0.00    +0.000 A 
ATOM      9  C   UNL     1       2.669   3.503  18.380  0.00  0.00    +0.000 A 
ATOM     10  C   UNL     1       2.390   4.720  19.061  0.00  0.00    +0.000 A 
ENDROOT
BRANCH   1  12
ATOM     11  N   UNL     1       4.801   5.145  17.412  0.00  0.00    +0.000 N 
ATOM     12  C   UNL     1       3.906   6.188  17.634  0.00  0.00    +0.000 C 
ATOM     13  O   UNL     1       3.857   7.238  17.002  0.00  0.00    +0.000 OA
ATOM     14  H   UNL     1       4.773   4.323  17.999  0.00  0.00    +0.000 HD
BRANCH  11  20
ATOM     15  C   UNL     1       7.526   6.879  17.223  0.00  0.00    +0.000 C 
ATOM     16  C   UNL     1       6.960   5.868  16.293  0.00  0.00    +0.000 A 
ATOM     17  N   UNL     1       7.629   5.576  15.168  0.00  0.00    +0.000 NA
ATOM     18  N   UNL     1       6.853   4.668  14.560  0.00  0.00    +0.000 N 
ATOM     19  C   UNL     1       5.718   4.375  15.246  0.00  0.00    +0.000 A 
ATOM     20  C   UNL     1       5.746   5.128  16.394  0.00  0.00    +0.000 A 
ATOM     21  H   UNL     1       7.163   4.283  13.673  0.00  0.00    +0.000 HD
ENDBRANCH  11  20
ENDBRANCH   1  12
BRANCH   3  22
ATOM     22  C   UNL     1       1.309   8.177  21.385  0.00  0.00    +0.000 C 
ATOM     23  C   UNL     1      -0.145   8.593  21.457  0.00  0.00    +0.000 C 
ATOM     24  C   UNL     1       0.840   9.450  20.722  0.00  0.00    +0.000 C 
ENDBRANCH   3  22
TORSDOF 3
ENDMDL
MODEL 2
REMARK VINA RESULT:      -8.1      2.078      6.147
REMARK  Name = 
REMARK  4 active torsions:
REMARK  status: ('A' for Active; 'I' for Inactive)
REMARK    1  A    between atoms: C_1  and  C_2
REMARK    2  A    between atoms: C_6  and  N_7
REMARK    3  A    between atoms: C_8  and  C_10
REMARK    4  A    between atoms: C_12  and  C_13
REMARK                            x       y       z     vdW  Elec       q    Type
REMARK                         _______ _______ _______ _____ _____    ______ ____
ROOT
ATOM      1  C   UNL     1       3.478   6.850  17.854  0.00  0.00    +0.000 A 
ATOM      2  C   UNL     1       4.833   7.161  17.734  0.00  0.00    +0.000 A 
ATOM      3  C   UNL     1       5.754   6.144  17.536  0.00  0.00    +0.000 A 
ATOM      4  N   UNL     1       5.362   4.850  17.506  0.00  0.00    +0.000 NA
ATOM      5  C   UNL     1       4.067   4.532  17.665  0.00  0.00    +0.000 A 
ATOM      6  C   UNL     1       3.723   3.184  17.654  0.00  0.00    +0.000 A 
ATOM      7  C   UNL     1       2.404   2.751  17.805  0.00  0.00    +0.000 A 
ATOM      8  C   UNL     1       1.394   3.685  17.967  0.00  0.00    +0.000 A 
ATOM      9  C   UNL     1       1.712   5.043  17.979  0.00  0.00    +0.000 A 
ATOM     10  C   UNL     1       3.053   5.498  17.839  0.00  0.00    +0.000 A 
ENDROOT
BRANCH   1  12
ATOM     11  N   UNL     1       2.016   8.122  19.342  0.00  0.00    +0.000 N 
ATOM     12  C   UNL     1       2.524   7.981  18.053  0.00  0.00    +0.000 C 
ATOM     13  O   UNL     1       2.242   8.686  17.090  0.00  0.00    +0.000 OA
ATOM     14  H   UNL     1       2.299   7.479  20.068  0.00  0.00    +0.000 HD
BRANCH  11  20
ATOM     15  C   UNL     1       1.305   9.054  22.357  0.00  0.00    +0.000 C 
ATOM     16  C   UNL     1       0.824   9.569  21.050  0.00  0.00    +0.000 A 
ATOM     17  N   UNL     1      -0.053  10.584  21.037  0.00  0.00    +0.000 NA
ATOM     18  N   UNL     1      -0.293  10.785  19.733  0.00  0.00    +0.000 N 
ATOM     19  C   UNL     1       0.389   9.938  18.918  0.00  0.00    +0.000 A 
ATOM     20  C   UNL     1       1.143   9.129  19.733  0.00  0.00    +0.000 A 
ATOM     21  H   UNL     1      -0.935  11.524  19.468  0.00  0.00    +0.000 HD
ENDBRANCH  11  20
ENDBRANCH   1  12
BRANCH   3  22
ATOM     22  C   UNL     1       7.216   6.474  17.355  0.00  0.00    +0.000 C 
ATOM     23  C   UNL     1       8.053   6.804  18.574  0.00  0.00    +0.000 C 
ATOM     24  C   UNL     1       7.721   7.879  17.583  0.00  0.00    +0.000 C 
ENDBRANCH   3  22
TORSDOF 3
ENDMDL
MODEL 3
REMARK VINA RESULT:      -8.1      2.216      6.058
REMARK  Name = 
REMARK  4 active torsions:
REMARK  status: ('A' for Active; 'I' for Inactive)
REMARK    1  A    between atoms: C_1  and  C_2
REMARK    2  A    between atoms: C_6  and  N_7
REMARK    3  A    between atoms: C_8  and  C_10
REMARK    4  A    between atoms: C_12  and  C_13
REMARK                            x       y       z     vdW  Elec       q    Type
REMARK                         _______ _______ _______ _____ _____    ______ ____
ROOT
ATOM      1  C   UNL     1       3.246   6.116  18.969  0.00  0.00    +0.000 A 
ATOM      2  C   UNL     1       4.574   6.231  18.556  0.00  0.00    +0.000 A 
ATOM      3  C   UNL     1       5.438   5.159  18.717  0.00  0.00    +0.000 A 
ATOM      4  N   UNL     1       5.022   4.019  19.312  0.00  0.00    +0.000 NA
ATOM      5  C   UNL     1       3.759   3.908  19.756  0.00  0.00    +0.000 A 
ATOM      6  C   UNL     1       3.393   2.723  20.387  0.00  0.00    +0.000 A 
ATOM      7  C   UNL     1       2.104   2.508  20.877  0.00  0.00    +0.000 A 
ATOM      8  C   UNL     1       1.145   3.498  20.733  0.00  0.00    +0.000 A 
ATOM      9  C   UNL     1       1.486   4.695  20.101  0.00  0.00    +0.000 A 
ATOM     10  C   UNL     1       2.799   4.932  19.608  0.00  0.00    +0.000 A 
ENDROOT
BRANCH   1  12
ATOM     11  N   UNL     1       1.968   7.969  19.919  0.00  0.00    +0.000 N 
ATOM     12  C   UNL     1       2.352   7.294  18.763  0.00  0.00    +0.000 C 
ATOM     13  O   UNL     1       2.008   7.575  17.620  0.00  0.00    +0.000 OA
ATOM     14  H   UNL     1       2.294   7.649  20.821  0.00  0.00    +0.000 HD
BRANCH  11  20
ATOM     15  C   UNL     1      -0.426   8.668  21.980  0.00  0.00    +0.000 C 
ATOM     16  C   UNL     1       0.120   9.444  20.837  0.00  0.00    +0.000 A 
ATOM     17  N   UNL     1      -0.419  10.637  20.546  0.00  0.00    +0.000 NA
ATOM     18  N   UNL     1       0.271  11.050  19.474  0.00  0.00    +0.000 N 
ATOM     19  C   UNL     1       1.221  10.168  19.066  0.00  0.00    +0.000 A 
ATOM     20  C   UNL     1       1.168   9.104  19.933  0.00  0.00    +0.000 A 
ATOM     21  H   UNL     1       0.042  11.952  19.069  0.00  0.00    +0.000 HD
ENDBRANCH  11  20
ENDBRANCH   1  12
BRANCH   3  22
ATOM     22  C   UNL     1       6.862   5.257  18.228  0.00  0.00    +0.000 C 
ATOM     23  C   UNL     1       7.919   5.831  19.148  0.00  0.00    +0.000 C 
ATOM     24  C   UNL     1       7.485   6.602  17.939  0.00  0.00    +0.000 C 
ENDBRANCH   3  22
TORSDOF 3
ENDMDL
MODEL 4
REMARK VINA RESULT:      -7.8      1.973      6.038
REMARK  Name = 
REMARK  4 active torsions:
REMARK  status: ('A' for Active; 'I' for Inactive)
REMARK    1  A    between atoms: C_1  and  C_2
REMARK    2  A    between atoms: C_6  and  N_7
REMARK    3  A    between atoms: C_8  and  C_10
REMARK    4  A    between atoms: C_12  and  C_13
REMARK                            x       y       z     vdW  Elec       q    Type
REMARK                         _______ _______ _______ _____ _____    ______ ____
ROOT
ATOM      1  C   UNL     1       3.309   6.445  18.012  0.00  0.00    +0.000 A 
ATOM      2  C   UNL     1       4.610   6.902  17.799  0.00  0.00    +0.000 A 
ATOM      3  C   UNL     1       5.611   5.997  17.483  0.00  0.00    +0.000 A 
ATOM      4  N   UNL     1       5.353   4.671  17.425  0.00  0.00    +0.000 NA
ATOM      5  C   UNL     1       4.115   4.211  17.672  0.00  0.00    +0.000 A 
ATOM      6  C   UNL     1       3.912   2.835  17.627  0.00  0.00    +0.000 A 
ATOM      7  C   UNL     1       2.663   2.259  17.861  0.00  0.00    +0.000 A 
ATOM      8  C   UNL     1       1.578   3.073  18.145  0.00  0.00    +0.000 A 
ATOM      9  C   UNL     1       1.755   4.457  18.193  0.00  0.00    +0.000 A 
ATOM     10  C   UNL     1       3.025   5.056  17.969  0.00  0.00    +0.000 A 
ENDROOT
BRANCH   1  12
ATOM     11  N   UNL     1       2.158   7.808  19.681  0.00  0.00    +0.000 N 
ATOM     12  C   UNL     1       2.263   7.459  18.337  0.00  0.00    +0.000 C 
ATOM     13  O   UNL     1       1.569   7.898  17.426  0.00  0.00    +0.000 OA
ATOM     14  H   UNL     1       2.768   7.378  20.362  0.00  0.00    +0.000 HD
BRANCH  11  20
ATOM     15  C   UNL     1       1.701  10.829  18.618  0.00  0.00    +0.000 C 
ATOM     16  C   UNL     1       1.038  10.084  19.718  0.00  0.00    +0.000 A 
ATOM     17  N   UNL     1       0.087  10.698  20.437  0.00  0.00    +0.000 NA
ATOM     18  N   UNL     1      -0.279   9.778  21.340  0.00  0.00    +0.000 N 
ATOM     19  C   UNL     1       0.403   8.607  21.231  0.00  0.00    +0.000 A 
ATOM     20  C   UNL     1       1.271   8.754  20.176  0.00  0.00    +0.000 A 
ATOM     21  H   UNL     1      -1.008  10.015  22.005  0.00  0.00    +0.000 HD
ENDBRANCH  11  20
ENDBRANCH   1  12
BRANCH   3  22
ATOM     22  C   UNL     1       7.011   6.487  17.203  0.00  0.00    +0.000 C 
ATOM     23  C   UNL     1       7.935   6.783  18.366  0.00  0.00    +0.000 C 
ATOM     24  C   UNL     1       7.407   7.908  17.527  0.00  0.00    +0.000 C 
ENDBRANCH   3  22
TORSDOF 3
ENDMDL
MODEL 5
REMARK VINA RESULT:      -7.8      0.488      1.303
REMARK  Name = 
REMARK  4 active torsions:
REMARK  status: ('A' for Active; 'I' for Inactive)
REMARK    1  A    between atoms: C_1  and  C_2
REMARK    2  A    between atoms: C_6  and  N_7
REMARK    3  A    between atoms: C_8  and  C_10
REMARK    4  A    between atoms: C_12  and  C_13
REMARK                            x       y       z     vdW  Elec       q    Type
REMARK                         _______ _______ _______ _____ _____    ______ ____
ROOT
ATOM      1  C   UNL     1       2.903   6.210  18.876  0.00  0.00    +0.000 A 
ATOM      2  C   UNL     1       2.477   7.274  19.672  0.00  0.00    +0.000 A 
ATOM      3  C   UNL     1       1.552   7.049  20.679  0.00  0.00    +0.000 A 
ATOM      4  N   UNL     1       1.020   5.820  20.870  0.00  0.00    +0.000 NA
ATOM      5  C   UNL     1       1.388   4.795  20.083  0.00  0.00    +0.000 A 
ATOM      6  C   UNL     1       0.788   3.559  20.305  0.00  0.00    +0.000 A 
ATOM      7  C   UNL     1       1.106   2.431  19.546  0.00  0.00    +0.000 A 
ATOM      8  C   UNL     1       2.051   2.530  18.538  0.00  0.00    +0.000 A 
ATOM      9  C   UNL     1       2.669   3.759  18.298  0.00  0.00    +0.000 A 
ATOM     10  C   UNL     1       2.346   4.919  19.054  0.00  0.00    +0.000 A 
ENDROOT
BRANCH   1  12
ATOM     11  N   UNL     1       5.084   5.753  17.875  0.00  0.00    +0.000 N 
ATOM     12  C   UNL     1       3.911   6.500  17.814  0.00  0.00    +0.000 C 
ATOM     13  O   UNL     1       3.656   7.368  16.986  0.00  0.00    +0.000 OA
ATOM     14  H   UNL     1       5.208   5.068  18.608  0.00  0.00    +0.000 HD
BRANCH  11  20
ATOM     15  C   UNL     1       5.436   4.126  15.100  0.00  0.00    +0.000 C 
ATOM     16  C   UNL     1       6.296   5.163  15.726  0.00  0.00    +0.000 A 
ATOM     17  N   UNL     1       7.422   5.535  15.099  0.00  0.00    +0.000 NA
ATOM     18  N   UNL     1       7.962   6.446  15.922  0.00  0.00    +0.000 N 
ATOM     19  C   UNL     1       7.231   6.663  17.046  0.00  0.00    +0.000 A 
ATOM     20  C   UNL     1       6.124   5.854  16.961  0.00  0.00    +0.000 A 
ATOM     21  H   UNL     1       8.835   6.885  15.651  0.00  0.00    +0.000 HD
ENDBRANCH  11  20
ENDBRANCH   1  12
BRANCH   3  22
ATOM     22  C   UNL     1       1.122   8.184  21.577  0.00  0.00    +0.000 C 
ATOM     23  C   UNL     1      -0.317   8.653  21.533  0.00  0.00    +0.000 C 
ATOM     24  C   UNL     1       0.771   9.533  20.996  0.00  0.00    +0.000 C 
ENDBRANCH   3  22
TORSDOF 3
ENDMDL
MODEL 6
REMARK VINA RESULT:      -7.7      2.694      6.258
REMARK  Name = 
REMARK  4 active torsions:
REMARK  status: ('A' for Active; 'I' for Inactive)
REMARK    1  A    between atoms: C_1  and  C_2
REMARK    2  A    between atoms: C_6  and  N_7
REMARK    3  A    between atoms: C_8  and  C_10
REMARK    4  A    between atoms: C_12  and  C_13
REMARK                            x       y       z     vdW  Elec       q    Type
REMARK                         _______ _______ _______ _____ _____    ______ ____
ROOT
ATOM      1  C   UNL     1       2.637   7.004  18.665  0.00  0.00    +0.000 A 
ATOM      2  C   UNL     1       2.077   6.284  19.721  0.00  0.00    +0.000 A 
ATOM      3  C   UNL     1       2.554   5.016  20.014  0.00  0.00    +0.000 A 
ATOM      4  N   UNL     1       3.522   4.449  19.259  0.00  0.00    +0.000 NA
ATOM      5  C   UNL     1       4.040   5.112  18.212  0.00  0.00    +0.000 A 
ATOM      6  C   UNL     1       5.013   4.470  17.452  0.00  0.00    +0.000 A 
ATOM      7  C   UNL     1       5.617   5.076  16.349  0.00  0.00    +0.000 A 
ATOM      8  C   UNL     1       5.246   6.362  15.990  0.00  0.00    +0.000 A 
ATOM      9  C   UNL     1       4.274   7.028  16.737  0.00  0.00    +0.000 A 
ATOM     10  C   UNL     1       3.642   6.419  17.856  0.00  0.00    +0.000 A 
ENDROOT
BRANCH   1  12
ATOM     11  N   UNL     1       1.327   8.925  19.416  0.00  0.00    +0.000 N 
ATOM     12  C   UNL     1       2.097   8.371  18.397  0.00  0.00    +0.000 C 
ATOM     13  O   UNL     1       2.347   8.898  17.318  0.00  0.00    +0.000 OA
ATOM     14  H   UNL     1       1.165   8.403  20.266  0.00  0.00    +0.000 HD
BRANCH  11  20
ATOM     15  C   UNL     1      -1.199   9.901  17.645  0.00  0.00    +0.000 C 
ATOM     16  C   UNL     1      -0.354  10.647  18.612  0.00  0.00    +0.000 A 
ATOM     17  N   UNL     1      -0.617  11.942  18.839  0.00  0.00    +0.000 NA
ATOM     18  N   UNL     1       0.321  12.311  19.723  0.00  0.00    +0.000 N 
ATOM     19  C   UNL     1       1.172  11.308  20.063  0.00  0.00    +0.000 A 
ATOM     20  C   UNL     1       0.766  10.194  19.370  0.00  0.00    +0.000 A 
ATOM     21  H   UNL     1       0.320  13.269  20.058  0.00  0.00    +0.000 HD
ENDBRANCH  11  20
ENDBRANCH   1  12
BRANCH   3  22
ATOM     22  C   UNL     1       1.990   4.249  21.185  0.00  0.00    +0.000 C 
ATOM     23  C   UNL     1       2.540   2.873  21.498  0.00  0.00    +0.000 C 
ATOM     24  C   UNL     1       1.148   3.015  20.962  0.00  0.00    +0.000 C 
ENDBRANCH   3  22
TORSDOF 3
ENDMDL
MODEL 7
REMARK VINA RESULT:      -7.7      2.287      5.887
REMARK  Name = 
REMARK  4 active torsions:
REMARK  status: ('A' for Active; 'I' for Inactive)
REMARK    1  A    between atoms: C_1  and  C_2
REMARK    2  A    between atoms: C_6  and  N_7
REMARK    3  A    between atoms: C_8  and  C_10
REMARK    4  A    between atoms: C_12  and  C_13
REMARK                            x       y       z     vdW  Elec       q    Type
REMARK                         _______ _______ _______ _____ _____    ______ ____
ROOT
ATOM      1  C   UNL     1       3.121   6.196  18.892  0.00  0.00    +0.000 A 
ATOM      2  C   UNL     1       4.423   6.351  18.414  0.00  0.00    +0.000 A 
ATOM      3  C   UNL     1       5.331   5.313  18.550  0.00  0.00    +0.000 A 
ATOM      4  N   UNL     1       4.986   4.169  19.183  0.00  0.00    +0.000 NA
ATOM      5  C   UNL     1       3.749   4.022  19.688  0.00  0.00    +0.000 A 
ATOM      6  C   UNL     1       3.457   2.836  20.355  0.00  0.00    +0.000 A 
ATOM      7  C   UNL     1       2.201   2.584  20.909  0.00  0.00    +0.000 A 
ATOM      8  C   UNL     1       1.201   3.537  20.795  0.00  0.00    +0.000 A 
ATOM      9  C   UNL     1       1.469   4.734  20.129  0.00  0.00    +0.000 A 
ATOM     10  C   UNL     1       2.748   5.009  19.570  0.00  0.00    +0.000 A 
ENDROOT
BRANCH   1  12
ATOM     11  N   UNL     1       1.922   8.097  19.850  0.00  0.00    +0.000 N 
ATOM     12  C   UNL     1       2.177   7.338  18.710  0.00  0.00    +0.000 C 
ATOM     13  O   UNL     1       1.685   7.521  17.602  0.00  0.00    +0.000 OA
ATOM     14  H   UNL     1       2.366   7.857  20.725  0.00  0.00    +0.000 HD
BRANCH  11  20
ATOM     15  C   UNL     1       2.222  10.808  18.110  0.00  0.00    +0.000 C 
ATOM     16  C   UNL     1       1.199  10.414  19.112  0.00  0.00    +0.000 A 
ATOM     17  N   UNL     1       0.208  11.271  19.398  0.00  0.00    +0.000 NA
ATOM     18  N   UNL     1      -0.511  10.632  20.332  0.00  0.00    +0.000 N 
ATOM     19  C   UNL     1      -0.015   9.409  20.657  0.00  0.00    +0.000 A 
ATOM     20  C   UNL     1       1.099   9.215  19.877  0.00  0.00    +0.000 A 
ATOM     21  H   UNL     1      -1.335  11.090  20.706  0.00  0.00    +0.000 HD
ENDBRANCH  11  20
ENDBRANCH   1  12
BRANCH   3  22
ATOM     22  C   UNL     1       6.727   5.453  17.992  0.00  0.00    +0.000 C 
ATOM     23  C   UNL     1       7.810   6.057  18.860  0.00  0.00    +0.000 C 
ATOM     24  C   UNL     1       7.295   6.815  17.675  0.00  0.00    +0.000 C 
ENDBRANCH   3  22
TORSDOF 3
ENDMDL
MODEL 8
REMARK VINA RESULT:      -7.7      2.773      6.000
REMARK  Name = 
REMARK  4 active torsions:
REMARK  status: ('A' for Active; 'I' for Inactive)
REMARK    1  A    between atoms: C_1  and  C_2
REMARK    2  A    between atoms: C_6  and  N_7
REMARK    3  A    between atoms: C_8  and  C_10
REMARK    4  A    between atoms: C_12  and  C_13
REMARK                            x       y       z     vdW  Elec       q    Type
REMARK                         _______ _______ _______ _____ _____    ______ ____
ROOT
ATOM      1  C   UNL     1       3.339   6.804  18.182  0.00  0.00    +0.000 A 
ATOM      2  C   UNL     1       4.650   7.220  17.942  0.00  0.00    +0.000 A 
ATOM      3  C   UNL     1       5.573   6.319  17.435  0.00  0.00    +0.000 A 
ATOM      4  N   UNL     1       5.232   5.029  17.213  0.00  0.00    +0.000 NA
ATOM      5  C   UNL     1       3.986   4.603  17.480  0.00  0.00    +0.000 A 
ATOM      6  C   UNL     1       3.698   3.259  17.260  0.00  0.00    +0.000 A 
ATOM      7  C   UNL     1       2.433   2.720  17.501  0.00  0.00    +0.000 A 
ATOM      8  C   UNL     1       1.420   3.540  17.971  0.00  0.00    +0.000 A 
ATOM      9  C   UNL     1       1.683   4.892  18.197  0.00  0.00    +0.000 A 
ATOM     10  C   UNL     1       2.970   5.452  17.968  0.00  0.00    +0.000 A 
ENDROOT
BRANCH   1  12
ATOM     11  N   UNL     1       1.969   8.793  17.815  0.00  0.00    +0.000 N 
ATOM     12  C   UNL     1       2.379   7.815  18.717  0.00  0.00    +0.000 C 
ATOM     13  O   UNL     1       2.035   7.731  19.891  0.00  0.00    +0.000 OA
ATOM     14  H   UNL     1       2.323   8.786  16.868  0.00  0.00    +0.000 HD
BRANCH  11  20
ATOM     15  C   UNL     1       2.571  11.949  18.196  0.00  0.00    +0.000 C 
ATOM     16  C   UNL     1       1.294  11.195  18.270  0.00  0.00    +0.000 A 
ATOM     17  N   UNL     1       0.162  11.863  18.538  0.00  0.00    +0.000 NA
ATOM     18  N   UNL     1      -0.779  10.908  18.555  0.00  0.00    +0.000 N 
ATOM     19  C   UNL     1      -0.293   9.662  18.315  0.00  0.00    +0.000 A 
ATOM     20  C   UNL     1       1.059   9.798  18.112  0.00  0.00    +0.000 A 
ATOM     21  H   UNL     1      -1.740  11.179  18.734  0.00  0.00    +0.000 HD
ENDBRANCH  11  20
ENDBRANCH   1  12
BRANCH   3  22
ATOM     22  C   UNL     1       6.979   6.772  17.126  0.00  0.00    +0.000 C 
ATOM     23  C   UNL     1       7.973   6.912  18.259  0.00  0.00    +0.000 C 
ATOM     24  C   UNL     1       7.460   8.135  17.561  0.00  0.00    +0.000 C 
ENDBRANCH   3  22
TORSDOF 3
ENDMDL
MODEL 9
REMARK VINA RESULT:      -7.7      2.776      6.291
REMARK  Name = 
REMARK  4 active torsions:
REMARK  status: ('A' for Active; 'I' for Inactive)
REMARK    1  A    between atoms: C_1  and  C_2
REMARK    2  A    between atoms: C_6  and  N_7
REMARK    3  A    between atoms: C_8  and  C_10
REMARK    4  A    between atoms: C_12  and  C_13
REMARK                            x       y       z     vdW  Elec       q    Type
REMARK                         _______ _______ _______ _____ _____    ______ ____
ROOT
ATOM      1  C   UNL     1       2.689   6.818  18.681  0.00  0.00    +0.000 A 
ATOM      2  C   UNL     1       3.699   7.003  17.735  0.00  0.00    +0.000 A 
ATOM      3  C   UNL     1       4.376   5.903  17.232  0.00  0.00    +0.000 A 
ATOM      4  N   UNL     1       4.103   4.656  17.681  0.00  0.00    +0.000 NA
ATOM      5  C   UNL     1       3.164   4.467  18.624  0.00  0.00    +0.000 A 
ATOM      6  C   UNL     1       2.944   3.168  19.070  0.00  0.00    +0.000 A 
ATOM      7  C   UNL     1       1.988   2.866  20.041  0.00  0.00    +0.000 A 
ATOM      8  C   UNL     1       1.222   3.885  20.584  0.00  0.00    +0.000 A 
ATOM      9  C   UNL     1       1.422   5.197  20.151  0.00  0.00    +0.000 A 
ATOM     10  C   UNL     1       2.401   5.520  19.172  0.00  0.00    +0.000 A 
ENDROOT
BRANCH   1  12
ATOM     11  N   UNL     1       1.616   8.962  18.212  0.00  0.00    +0.000 N 
ATOM     12  C   UNL     1       1.981   8.033  19.183  0.00  0.00    +0.000 C 
ATOM     13  O   UNL     1       1.786   8.141  20.389  0.00  0.00    +0.000 OA
ATOM     14  H   UNL     1       1.835   8.789  17.241  0.00  0.00    +0.000 HD
BRANCH  11  20
ATOM     15  C   UNL     1      -1.445   9.663  17.431  0.00  0.00    +0.000 C 
ATOM     16  C   UNL     1      -0.427  10.465  18.157  0.00  0.00    +0.000 A 
ATOM     17  N   UNL     1      -0.754  11.693  18.587  0.00  0.00    +0.000 NA
ATOM     18  N   UNL     1       0.368  12.141  19.165  0.00  0.00    +0.000 N 
ATOM     19  C   UNL     1       1.397  11.254  19.117  0.00  0.00    +0.000 A 
ATOM     20  C   UNL     1       0.923  10.136  18.475  0.00  0.00    +0.000 A 
ATOM     21  H   UNL     1       0.362  13.067  19.580  0.00  0.00    +0.000 HD
ENDBRANCH  11  20
ENDBRANCH   1  12
BRANCH   3  22
ATOM     22  C   UNL     1       5.435   6.087  16.173  0.00  0.00    +0.000 C 
ATOM     23  C   UNL     1       5.416   5.196  14.949  0.00  0.00    +0.000 C 
ATOM     24  C   UNL     1       6.506   5.043  15.966  0.00  0.00    +0.000 C 
ENDBRANCH   3  22
TORSDOF 3
ENDMDL
