MODEL 1
REMARK VINA RESULT:      -8.1      0.000      0.000
REMARK  Name = 
REMARK  4 active torsions:
REMARK  status: ('A' for Active; 'I' for Inactive)
REMARK    1  A    between atoms: S_2  and  N_4
REMARK    2  A    between atoms: S_2  and  C_17
REMARK    3  A    between atoms: N_4  and  C_5
REMARK    4  A    between atoms: C_8  and  C_9
REMARK                            x       y       z     vdW  Elec       q    Type
REMARK                         _______ _______ _______ _____ _____    ______ ____
ROOT
ATOM      1  N   UNL     1       4.206   6.261  19.225  0.00  0.00    +0.000 N 
ATOM      2  H   UNL     1       4.634   5.960  20.099  0.00  0.00    +0.000 HD
ENDROOT
BRANCH   1   3
ATOM      3  C   UNL     1       4.809   5.879  17.996  0.00  0.00    +0.000 A 
ATOM      4  C   UNL     1       5.213   4.586  17.738  0.00  0.00    +0.000 A 
ATOM      5  N   UNL     1       5.739   4.188  16.558  0.00  0.00    +0.000 NA
ATOM      6  C   UNL     1       5.886   5.134  15.607  0.00  0.00    +0.000 A 
ATOM      7  N   UNL     1       5.570   6.436  15.784  0.00  0.00    +0.000 NA
ATOM      8  C   UNL     1       5.038   6.775  16.975  0.00  0.00    +0.000 A 
BRANCH   6   9
ATOM      9  C   UNL     1       6.353   4.712  14.270  0.00  0.00    +0.000 A 
ATOM     10  C   UNL     1       5.707   3.683  13.556  0.00  0.00    +0.000 A 
ATOM     11  C   UNL     1       6.118   3.311  12.271  0.00  0.00    +0.000 A 
ATOM     12  C   UNL     1       7.194   3.957  11.670  0.00  0.00    +0.000 A 
ATOM     13  C   UNL     1       7.860   4.969  12.353  0.00  0.00    +0.000 A 
ATOM     14  C   UNL     1       7.443   5.340  13.636  0.00  0.00    +0.000 A 
ENDBRANCH   6   9
ENDBRANCH   1   3
BRANCH   1  16
ATOM     15  O   UNL     1       2.282   7.187  20.529  0.00  0.00    +0.000 OA
ATOM     16  S   UNL     1       2.541   6.461  19.305  0.00  0.00    +0.000 S 
ATOM     17  O   UNL     1       2.060   6.929  18.029  0.00  0.00    +0.000 OA
BRANCH  16  18
ATOM     18  C   UNL     1       1.933   4.808  19.550  0.00  0.00    +0.000 A 
ATOM     19  C   UNL     1       1.897   3.915  18.474  0.00  0.00    +0.000 A 
ATOM     20  C   UNL     1       1.548   2.587  18.706  0.00  0.00    +0.000 A 
ATOM     21  F   UNL     1       1.524   1.725  17.682  0.00  0.00    +0.000 F 
ATOM     22  C   UNL     1       1.246   2.138  19.984  0.00  0.00    +0.000 A 
ATOM     23  C   UNL     1       1.284   3.037  21.040  0.00  0.00    +0.000 A 
ATOM     24  F   UNL     1       1.010   2.609  22.279  0.00  0.00    +0.000 F 
ATOM     25  C   UNL     1       1.625   4.373  20.843  0.00  0.00    +0.000 A 
ENDBRANCH  16  18
ENDBRANCH   1  16
TORSDOF 4
ENDMDL
MODEL 2
REMARK VINA RESULT:      -8.1      3.744      7.742
REMARK  Name = 
REMARK  4 active torsions:
REMARK  status: ('A' for Active; 'I' for Inactive)
REMARK    1  A    between atoms: S_2  and  N_4
REMARK    2  A    between atoms: S_2  and  C_17
REMARK    3  A    between atoms: N_4  and  C_5
REMARK    4  A    between atoms: C_8  and  C_9
REMARK                            x       y       z     vdW  Elec       q    Type
REMARK                         _______ _______ _______ _____ _____    ______ ____
ROOT
ATOM      1  N   UNL     1       7.270   4.341  15.700  0.00  0.00    +0.000 N 
ATOM      2  H   UNL     1       8.237   4.342  16.025  0.00  0.00    +0.000 HD
ENDROOT
BRANCH   1   3
ATOM      3  C   UNL     1       6.225   4.214  16.655  0.00  0.00    +0.000 A 
ATOM      4  C   UNL     1       5.004   3.656  16.347  0.00  0.00    +0.000 A 
ATOM      5  N   UNL     1       4.014   3.474  17.251  0.00  0.00    +0.000 NA
ATOM      6  C   UNL     1       4.257   3.893  18.511  0.00  0.00    +0.000 A 
ATOM      7  N   UNL     1       5.402   4.500  18.896  0.00  0.00    +0.000 NA
ATOM      8  C   UNL     1       6.358   4.644  17.957  0.00  0.00    +0.000 A 
BRANCH   6   9
ATOM      9  C   UNL     1       3.242   3.609  19.547  0.00  0.00    +0.000 A 
ATOM     10  C   UNL     1       1.947   4.159  19.479  0.00  0.00    +0.000 A 
ATOM     11  C   UNL     1       0.970   3.857  20.434  0.00  0.00    +0.000 A 
ATOM     12  C   UNL     1       1.269   2.999  21.488  0.00  0.00    +0.000 A 
ATOM     13  C   UNL     1       2.542   2.448  21.589  0.00  0.00    +0.000 A 
ATOM     14  C   UNL     1       3.514   2.751  20.631  0.00  0.00    +0.000 A 
ENDBRANCH   6   9
ENDBRANCH   1   3
BRANCH   1  16
ATOM     15  O   UNL     1       5.905   6.117  14.584  0.00  0.00    +0.000 OA
ATOM     16  S   UNL     1       7.012   5.230  14.299  0.00  0.00    +0.000 S 
ATOM     17  O   UNL     1       8.277   5.726  13.816  0.00  0.00    +0.000 OA
BRANCH  16  18
ATOM     18  C   UNL     1       6.416   4.019  13.142  0.00  0.00    +0.000 A 
ATOM     19  C   UNL     1       5.049   3.955  12.847  0.00  0.00    +0.000 A 
ATOM     20  C   UNL     1       4.613   3.096  11.841  0.00  0.00    +0.000 A 
ATOM     21  F   UNL     1       3.309   3.038  11.546  0.00  0.00    +0.000 F 
ATOM     22  C   UNL     1       5.510   2.314  11.126  0.00  0.00    +0.000 A 
ATOM     23  C   UNL     1       6.861   2.389  11.433  0.00  0.00    +0.000 A 
ATOM     24  F   UNL     1       7.736   1.652  10.737  0.00  0.00    +0.000 F 
ATOM     25  C   UNL     1       7.331   3.234  12.435  0.00  0.00    +0.000 A 
ENDBRANCH  16  18
ENDBRANCH   1  16
TORSDOF 4
ENDMDL
MODEL 3
REMARK VINA RESULT:      -8.1      3.086      3.653
REMARK  Name = 
REMARK  4 active torsions:
REMARK  status: ('A' for Active; 'I' for Inactive)
REMARK    1  A    between atoms: S_2  and  N_4
REMARK    2  A    between atoms: S_2  and  C_17
REMARK    3  A    between atoms: N_4  and  C_5
REMARK    4  A    between atoms: C_8  and  C_9
REMARK                            x       y       z     vdW  Elec       q    Type
REMARK                         _______ _______ _______ _____ _____    ______ ____
ROOT
ATOM      1  N   UNL     1       4.247   5.766  19.545  0.00  0.00    +0.000 N 
ATOM      2  H   UNL     1       4.789   5.585  20.389  0.00  0.00    +0.000 HD
ENDROOT
BRANCH   1   3
ATOM      3  C   UNL     1       4.832   5.485  18.280  0.00  0.00    +0.000 A 
ATOM      4  C   UNL     1       5.173   4.209  17.887  0.00  0.00    +0.000 A 
ATOM      5  N   UNL     1       5.680   3.912  16.669  0.00  0.00    +0.000 NA
ATOM      6  C   UNL     1       5.874   4.944  15.821  0.00  0.00    +0.000 A 
ATOM      7  N   UNL     1       5.620   6.234  16.136  0.00  0.00    +0.000 NA
ATOM      8  C   UNL     1       5.105   6.472  17.358  0.00  0.00    +0.000 A 
BRANCH   6   9
ATOM      9  C   UNL     1       6.320   4.642  14.445  0.00  0.00    +0.000 A 
ATOM     10  C   UNL     1       5.654   3.690  13.648  0.00  0.00    +0.000 A 
ATOM     11  C   UNL     1       6.047   3.433  12.330  0.00  0.00    +0.000 A 
ATOM     12  C   UNL     1       7.122   4.121  11.777  0.00  0.00    +0.000 A 
ATOM     13  C   UNL     1       7.807   5.060  12.542  0.00  0.00    +0.000 A 
ATOM     14  C   UNL     1       7.410   5.315  13.858  0.00  0.00    +0.000 A 
ENDBRANCH   6   9
ENDBRANCH   1   3
BRANCH   1  16
ATOM     15  O   UNL     1       2.084   5.049  18.511  0.00  0.00    +0.000 OA
ATOM     16  S   UNL     1       2.587   5.614  19.744  0.00  0.00    +0.000 S 
ATOM     17  O   UNL     1       2.320   5.004  21.023  0.00  0.00    +0.000 OA
BRANCH  16  18
ATOM     18  C   UNL     1       2.019   7.298  19.807  0.00  0.00    +0.000 A 
ATOM     19  C   UNL     1       2.121   8.107  18.670  0.00  0.00    +0.000 A 
ATOM     20  C   UNL     1       1.551   9.378  18.690  0.00  0.00    +0.000 A 
ATOM     21  F   UNL     1       1.634  10.153  17.602  0.00  0.00    +0.000 F 
ATOM     22  C   UNL     1       0.880   9.847  19.812  0.00  0.00    +0.000 A 
ATOM     23  C   UNL     1       0.792   9.031  20.932  0.00  0.00    +0.000 A 
ATOM     24  F   UNL     1       0.133   9.468  22.012  0.00  0.00    +0.000 F 
ATOM     25  C   UNL     1       1.353   7.757  20.947  0.00  0.00    +0.000 A 
ENDBRANCH  16  18
ENDBRANCH   1  16
TORSDOF 4
ENDMDL
MODEL 4
REMARK VINA RESULT:      -8.1      3.739      7.686
REMARK  Name = 
REMARK  4 active torsions:
REMARK  status: ('A' for Active; 'I' for Inactive)
REMARK    1  A    between atoms: S_2  and  N_4
REMARK    2  A    between atoms: S_2  and  C_17
REMARK    3  A    between atoms: N_4  and  C_5
REMARK    4  A    between atoms: C_8  and  C_9
REMARK                            x       y       z     vdW  Elec       q    Type
REMARK                         _______ _______ _______ _____ _____    ______ ____
ROOT
ATOM      1  N   UNL     1       7.216   4.215  15.600  0.00  0.00    +0.000 N 
ATOM      2  H   UNL     1       8.183   4.091  15.896  0.00  0.00    +0.000 HD
ENDROOT
BRANCH   1   3
ATOM      3  C   UNL     1       6.183   4.128  16.572  0.00  0.00    +0.000 A 
ATOM      4  C   UNL     1       4.965   3.540  16.309  0.00  0.00    +0.000 A 
ATOM      5  N   UNL     1       3.988   3.398  17.233  0.00  0.00    +0.000 NA
ATOM      6  C   UNL     1       4.239   3.887  18.466  0.00  0.00    +0.000 A 
ATOM      7  N   UNL     1       5.381   4.526  18.803  0.00  0.00    +0.000 NA
ATOM      8  C   UNL     1       6.325   4.630  17.847  0.00  0.00    +0.000 A 
BRANCH   6   9
ATOM      9  C   UNL     1       3.239   3.649  19.527  0.00  0.00    +0.000 A 
ATOM     10  C   UNL     1       2.001   4.320  19.536  0.00  0.00    +0.000 A 
ATOM     11  C   UNL     1       1.034   4.064  20.515  0.00  0.00    +0.000 A 
ATOM     12  C   UNL     1       1.287   3.131  21.515  0.00  0.00    +0.000 A 
ATOM     13  C   UNL     1       2.504   2.459  21.540  0.00  0.00    +0.000 A 
ATOM     14  C   UNL     1       3.467   2.716  20.559  0.00  0.00    +0.000 A 
ENDBRANCH   6   9
ENDBRANCH   1   3
BRANCH   1  16
ATOM     15  O   UNL     1       5.928   6.112  14.597  0.00  0.00    +0.000 OA
ATOM     16  S   UNL     1       7.025   5.226  14.273  0.00  0.00    +0.000 S 
ATOM     17  O   UNL     1       8.316   5.730  13.874  0.00  0.00    +0.000 OA
BRANCH  16  18
ATOM     18  C   UNL     1       6.442   4.133  12.997  0.00  0.00    +0.000 A 
ATOM     19  C   UNL     1       7.340   3.271  12.358  0.00  0.00    +0.000 A 
ATOM     20  C   UNL     1       6.850   2.327  11.458  0.00  0.00    +0.000 A 
ATOM     21  F   UNL     1       7.702   1.491  10.853  0.00  0.00    +0.000 F 
ATOM     22  C   UNL     1       5.490   2.225  11.195  0.00  0.00    +0.000 A 
ATOM     23  C   UNL     1       4.614   3.091  11.835  0.00  0.00    +0.000 A 
ATOM     24  F   UNL     1       3.300   2.989  11.600  0.00  0.00    +0.000 F 
ATOM     25  C   UNL     1       5.071   4.048  12.737  0.00  0.00    +0.000 A 
ENDBRANCH  16  18
ENDBRANCH   1  16
TORSDOF 4
ENDMDL
MODEL 5
REMARK VINA RESULT:      -8.0      0.613      1.957
REMARK  Name = 
REMARK  4 active torsions:
REMARK  status: ('A' for Active; 'I' for Inactive)
REMARK    1  A    between atoms: S_2  and  N_4
REMARK    2  A    between atoms: S_2  and  C_17
REMARK    3  A    between atoms: N_4  and  C_5
REMARK    4  A    between atoms: C_8  and  C_9
REMARK                            x       y       z     vdW  Elec       q    Type
REMARK                         _______ _______ _______ _____ _____    ______ ____
ROOT
ATOM      1  N   UNL     1       4.205   6.534  18.893  0.00  0.00    +0.000 N 
ATOM      2  H   UNL     1       4.718   6.386  19.761  0.00  0.00    +0.000 HD
ENDROOT
BRANCH   1   3
ATOM      3  C   UNL     1       4.748   6.029  17.680  0.00  0.00    +0.000 A 
ATOM      4  C   UNL     1       4.850   4.680  17.418  0.00  0.00    +0.000 A 
ATOM      5  N   UNL     1       5.312   4.178  16.250  0.00  0.00    +0.000 NA
ATOM      6  C   UNL     1       5.709   5.070  15.318  0.00  0.00    +0.000 A 
ATOM      7  N   UNL     1       5.696   6.409  15.504  0.00  0.00    +0.000 NA
ATOM      8  C   UNL     1       5.215   6.855  16.681  0.00  0.00    +0.000 A 
BRANCH   6   9
ATOM      9  C   UNL     1       6.113   4.558  13.992  0.00  0.00    +0.000 A 
ATOM     10  C   UNL     1       7.274   5.026  13.346  0.00  0.00    +0.000 A 
ATOM     11  C   UNL     1       7.684   4.512  12.110  0.00  0.00    +0.000 A 
ATOM     12  C   UNL     1       6.936   3.518  11.487  0.00  0.00    +0.000 A 
ATOM     13  C   UNL     1       5.779   3.043  12.095  0.00  0.00    +0.000 A 
ATOM     14  C   UNL     1       5.375   3.557  13.331  0.00  0.00    +0.000 A 
ENDBRANCH   6   9
ENDBRANCH   1   3
BRANCH   1  16
ATOM     15  O   UNL     1       2.311   7.513  20.203  0.00  0.00    +0.000 OA
ATOM     16  S   UNL     1       2.539   6.627  19.082  0.00  0.00    +0.000 S 
ATOM     17  O   UNL     1       1.931   6.859  17.795  0.00  0.00    +0.000 OA
BRANCH  16  18
ATOM     18  C   UNL     1       2.088   4.993  19.618  0.00  0.00    +0.000 A 
ATOM     19  C   UNL     1       2.290   4.620  20.951  0.00  0.00    +0.000 A 
ATOM     20  C   UNL     1       1.810   3.388  21.390  0.00  0.00    +0.000 A 
ATOM     21  F   UNL     1       1.988   3.030  22.667  0.00  0.00    +0.000 F 
ATOM     22  C   UNL     1       1.131   2.535  20.530  0.00  0.00    +0.000 A 
ATOM     23  C   UNL     1       0.943   2.920  19.210  0.00  0.00    +0.000 A 
ATOM     24  F   UNL     1       0.276   2.111  18.378  0.00  0.00    +0.000 F 
ATOM     25  C   UNL     1       1.413   4.142  18.738  0.00  0.00    +0.000 A 
ENDBRANCH  16  18
ENDBRANCH   1  16
TORSDOF 4
ENDMDL
MODEL 6
REMARK VINA RESULT:      -7.9      4.656      7.338
REMARK  Name = 
REMARK  4 active torsions:
REMARK  status: ('A' for Active; 'I' for Inactive)
REMARK    1  A    between atoms: S_2  and  N_4
REMARK    2  A    between atoms: S_2  and  C_17
REMARK    3  A    between atoms: N_4  and  C_5
REMARK    4  A    between atoms: C_8  and  C_9
REMARK                            x       y       z     vdW  Elec       q    Type
REMARK                         _______ _______ _______ _____ _____    ______ ____
ROOT
ATOM      1  N   UNL     1       3.274   5.808  19.875  0.00  0.00    +0.000 N 
ATOM      2  H   UNL     1       4.181   5.879  20.335  0.00  0.00    +0.000 HD
ENDROOT
BRANCH   1   3
ATOM      3  C   UNL     1       2.564   7.000  19.567  0.00  0.00    +0.000 A 
ATOM      4  C   UNL     1       1.730   7.621  20.472  0.00  0.00    +0.000 A 
ATOM      5  N   UNL     1       1.087   8.784  20.220  0.00  0.00    +0.000 NA
ATOM      6  C   UNL     1       1.274   9.332  19.001  0.00  0.00    +0.000 A 
ATOM      7  N   UNL     1       2.030   8.771  18.031  0.00  0.00    +0.000 NA
ATOM      8  C   UNL     1       2.657   7.619  18.340  0.00  0.00    +0.000 A 
BRANCH   6   9
ATOM      9  C   UNL     1       0.677  10.657  18.734  0.00  0.00    +0.000 A 
ATOM     10  C   UNL     1      -0.696  10.802  18.454  0.00  0.00    +0.000 A 
ATOM     11  C   UNL     1      -1.273  12.060  18.244  0.00  0.00    +0.000 A 
ATOM     12  C   UNL     1      -0.487  13.206  18.304  0.00  0.00    +0.000 A 
ATOM     13  C   UNL     1       0.874  13.095  18.568  0.00  0.00    +0.000 A 
ATOM     14  C   UNL     1       1.447  11.836  18.779  0.00  0.00    +0.000 A 
ENDBRANCH   6   9
ENDBRANCH   1   3
BRANCH   1  16
ATOM     15  O   UNL     1       3.057   3.318  19.768  0.00  0.00    +0.000 OA
ATOM     16  S   UNL     1       3.107   4.462  18.885  0.00  0.00    +0.000 S 
ATOM     17  O   UNL     1       2.072   4.718  17.913  0.00  0.00    +0.000 OA
BRANCH  16  18
ATOM     18  C   UNL     1       4.661   4.381  18.025  0.00  0.00    +0.000 A 
ATOM     19  C   UNL     1       4.695   3.961  16.691  0.00  0.00    +0.000 A 
ATOM     20  C   UNL     1       5.896   4.030  15.989  0.00  0.00    +0.000 A 
ATOM     21  F   UNL     1       5.932   3.641  14.709  0.00  0.00    +0.000 F 
ATOM     22  C   UNL     1       7.050   4.516  16.588  0.00  0.00    +0.000 A 
ATOM     23  C   UNL     1       6.999   4.926  17.913  0.00  0.00    +0.000 A 
ATOM     24  F   UNL     1       8.103   5.411  18.494  0.00  0.00    +0.000 F 
ATOM     25  C   UNL     1       5.816   4.866  18.645  0.00  0.00    +0.000 A 
ENDBRANCH  16  18
ENDBRANCH   1  16
TORSDOF 4
ENDMDL
MODEL 7
REMARK VINA RESULT:      -7.9      0.181      1.688
REMARK  Name = 
REMARK  4 active torsions:
REMARK  status: ('A' for Active; 'I' for Inactive)
REMARK    1  A    between atoms: S_2  and  N_4
REMARK    2  A    between atoms: S_2  and  C_17
REMARK    3  A    between atoms: N_4  and  C_5
REMARK    4  A    between atoms: C_8  and  C_9
REMARK                            x       y       z     vdW  Elec       q    Type
REMARK                         _______ _______ _______ _____ _____    ______ ____
ROOT
ATOM      1  N   UNL     1       4.209   6.495  19.072  0.00  0.00    +0.000 N 
ATOM      2  H   UNL     1       4.719   6.351  19.942  0.00  0.00    +0.000 HD
ENDROOT
BRANCH   1   3
ATOM      3  C   UNL     1       4.791   6.052  17.853  0.00  0.00    +0.000 A 
ATOM      4  C   UNL     1       5.311   4.785  17.697  0.00  0.00    +0.000 A 
ATOM      5  N   UNL     1       5.821   4.324  16.531  0.00  0.00    +0.000 NA
ATOM      6  C   UNL     1       5.827   5.181  15.488  0.00  0.00    +0.000 A 
ATOM      7  N   UNL     1       5.389   6.458  15.560  0.00  0.00    +0.000 NA
ATOM      8  C   UNL     1       4.881   6.861  16.741  0.00  0.00    +0.000 A 
BRANCH   6   9
ATOM      9  C   UNL     1       6.273   4.675  14.174  0.00  0.00    +0.000 A 
ATOM     10  C   UNL     1       5.568   3.658  13.500  0.00  0.00    +0.000 A 
ATOM     11  C   UNL     1       5.961   3.207  12.234  0.00  0.00    +0.000 A 
ATOM     12  C   UNL     1       7.076   3.761  11.614  0.00  0.00    +0.000 A 
ATOM     13  C   UNL     1       7.800   4.759  12.258  0.00  0.00    +0.000 A 
ATOM     14  C   UNL     1       7.402   5.209  13.521  0.00  0.00    +0.000 A 
ENDBRANCH   6   9
ENDBRANCH   1   3
BRANCH   1  16
ATOM     15  O   UNL     1       2.260   7.206  20.471  0.00  0.00    +0.000 OA
ATOM     16  S   UNL     1       2.539   6.494  19.243  0.00  0.00    +0.000 S 
ATOM     17  O   UNL     1       1.937   6.877  17.990  0.00  0.00    +0.000 OA
BRANCH  16  18
ATOM     18  C   UNL     1       2.151   4.784  19.541  0.00  0.00    +0.000 A 
ATOM     19  C   UNL     1       1.776   4.371  20.824  0.00  0.00    +0.000 A 
ATOM     20  C   UNL     1       1.345   3.060  21.015  0.00  0.00    +0.000 A 
ATOM     21  F   UNL     1       0.973   2.662  22.237  0.00  0.00    +0.000 F 
ATOM     22  C   UNL     1       1.274   2.166  19.954  0.00  0.00    +0.000 A 
ATOM     23  C   UNL     1       1.653   2.593  18.689  0.00  0.00    +0.000 A 
ATOM     24  F   UNL     1       1.572   1.743  17.658  0.00  0.00    +0.000 F 
ATOM     25  C   UNL     1       2.092   3.894  18.464  0.00  0.00    +0.000 A 
ENDBRANCH  16  18
ENDBRANCH   1  16
TORSDOF 4
ENDMDL
MODEL 8
REMARK VINA RESULT:      -7.9      3.075      3.991
REMARK  Name = 
REMARK  4 active torsions:
REMARK  status: ('A' for Active; 'I' for Inactive)
REMARK    1  A    between atoms: S_2  and  N_4
REMARK    2  A    between atoms: S_2  and  C_17
REMARK    3  A    between atoms: N_4  and  C_5
REMARK    4  A    between atoms: C_8  and  C_9
REMARK                            x       y       z     vdW  Elec       q    Type
REMARK                         _______ _______ _______ _____ _____    ______ ____
ROOT
ATOM      1  N   UNL     1       4.201   5.770  19.555  0.00  0.00    +0.000 N 
ATOM      2  H   UNL     1       4.752   5.633  20.401  0.00  0.00    +0.000 HD
ENDROOT
BRANCH   1   3
ATOM      3  C   UNL     1       4.800   5.501  18.294  0.00  0.00    +0.000 A 
ATOM      4  C   UNL     1       5.197   4.236  17.917  0.00  0.00    +0.000 A 
ATOM      5  N   UNL     1       5.719   3.947  16.703  0.00  0.00    +0.000 NA
ATOM      6  C   UNL     1       5.869   4.976  15.844  0.00  0.00    +0.000 A 
ATOM      7  N   UNL     1       5.559   6.258  16.142  0.00  0.00    +0.000 NA
ATOM      8  C   UNL     1       5.032   6.487  17.361  0.00  0.00    +0.000 A 
BRANCH   6   9
ATOM      9  C   UNL     1       6.331   4.677  14.472  0.00  0.00    +0.000 A 
ATOM     10  C   UNL     1       5.676   3.727  13.666  0.00  0.00    +0.000 A 
ATOM     11  C   UNL     1       6.083   3.473  12.351  0.00  0.00    +0.000 A 
ATOM     12  C   UNL     1       7.164   4.163  11.812  0.00  0.00    +0.000 A 
ATOM     13  C   UNL     1       7.839   5.101  12.586  0.00  0.00    +0.000 A 
ATOM     14  C   UNL     1       7.427   5.353  13.899  0.00  0.00    +0.000 A 
ENDBRANCH   6   9
ENDBRANCH   1   3
BRANCH   1  16
ATOM     15  O   UNL     1       2.083   4.903  18.543  0.00  0.00    +0.000 OA
ATOM     16  S   UNL     1       2.551   5.533  19.758  0.00  0.00    +0.000 S 
ATOM     17  O   UNL     1       2.316   4.949  21.056  0.00  0.00    +0.000 OA
BRANCH  16  18
ATOM     18  C   UNL     1       1.890   7.184  19.768  0.00  0.00    +0.000 A 
ATOM     19  C   UNL     1       1.369   7.715  20.952  0.00  0.00    +0.000 A 
ATOM     20  C   UNL     1       0.979   9.052  20.982  0.00  0.00    +0.000 A 
ATOM     21  F   UNL     1       0.491   9.570  22.115  0.00  0.00    +0.000 F 
ATOM     22  C   UNL     1       1.109   9.862  19.861  0.00  0.00    +0.000 A 
ATOM     23  C   UNL     1       1.626   9.317  18.694  0.00  0.00    +0.000 A 
ATOM     24  F   UNL     1       1.770  10.095  17.614  0.00  0.00    +0.000 F 
ATOM     25  C   UNL     1       2.021   7.984  18.629  0.00  0.00    +0.000 A 
ENDBRANCH  16  18
ENDBRANCH   1  16
TORSDOF 4
ENDMDL
MODEL 9
REMARK VINA RESULT:      -7.9      4.685      7.518
REMARK  Name = 
REMARK  4 active torsions:
REMARK  status: ('A' for Active; 'I' for Inactive)
REMARK    1  A    between atoms: S_2  and  N_4
REMARK    2  A    between atoms: S_2  and  C_17
REMARK    3  A    between atoms: N_4  and  C_5
REMARK    4  A    between atoms: C_8  and  C_9
REMARK                            x       y       z     vdW  Elec       q    Type
REMARK                         _______ _______ _______ _____ _____    ______ ____
ROOT
ATOM      1  N   UNL     1       3.163   5.827  19.915  0.00  0.00    +0.000 N 
ATOM      2  H   UNL     1       4.024   5.873  20.458  0.00  0.00    +0.000 HD
ENDROOT
BRANCH   1   3
ATOM      3  C   UNL     1       2.485   7.035  19.597  0.00  0.00    +0.000 A 
ATOM      4  C   UNL     1       1.629   7.659  20.478  0.00  0.00    +0.000 A 
ATOM      5  N   UNL     1       1.016   8.836  20.219  0.00  0.00    +0.000 NA
ATOM      6  C   UNL     1       1.256   9.396  19.015  0.00  0.00    +0.000 A 
ATOM      7  N   UNL     1       2.038   8.834  18.066  0.00  0.00    +0.000 NA
ATOM      8  C   UNL     1       2.633   7.667  18.382  0.00  0.00    +0.000 A 
BRANCH   6   9
ATOM      9  C   UNL     1       0.693  10.735  18.743  0.00  0.00    +0.000 A 
ATOM     10  C   UNL     1      -0.684  10.919  18.509  0.00  0.00    +0.000 A 
ATOM     11  C   UNL     1      -1.228  12.191  18.296  0.00  0.00    +0.000 A 
ATOM     12  C   UNL     1      -0.404  13.311  18.306  0.00  0.00    +0.000 A 
ATOM     13  C   UNL     1       0.961  13.161  18.524  0.00  0.00    +0.000 A 
ATOM     14  C   UNL     1       1.501  11.889  18.740  0.00  0.00    +0.000 A 
ENDBRANCH   6   9
ENDBRANCH   1   3
BRANCH   1  16
ATOM     15  O   UNL     1       3.165   3.336  19.672  0.00  0.00    +0.000 OA
ATOM     16  S   UNL     1       3.084   4.527  18.855  0.00  0.00    +0.000 S 
ATOM     17  O   UNL     1       1.999   4.740  17.928  0.00  0.00    +0.000 OA
BRANCH  16  18
ATOM     18  C   UNL     1       4.611   4.634  17.949  0.00  0.00    +0.000 A 
ATOM     19  C   UNL     1       5.764   5.104  18.587  0.00  0.00    +0.000 A 
ATOM     20  C   UNL     1       6.980   5.057  17.910  0.00  0.00    +0.000 A 
ATOM     21  F   UNL     1       8.089   5.494  18.519  0.00  0.00    +0.000 F 
ATOM     22  C   UNL     1       7.065   4.544  16.622  0.00  0.00    +0.000 A 
ATOM     23  C   UNL     1       5.910   4.085  16.004  0.00  0.00    +0.000 A 
ATOM     24  F   UNL     1       5.985   3.573  14.769  0.00  0.00    +0.000 F 
ATOM     25  C   UNL     1       4.678   4.121  16.651  0.00  0.00    +0.000 A 
ENDBRANCH  16  18
ENDBRANCH   1  16
TORSDOF 4
ENDMDL
