MODEL 1
REMARK VINA RESULT:      -8.7      0.000      0.000
REMARK  Name = 
REMARK  4 active torsions:
REMARK  status: ('A' for Active; 'I' for Inactive)
REMARK    1  A    between atoms: C_2  and  C_16
REMARK    2  A    between atoms: N_3  and  C_4
REMARK    3  A    between atoms: C_4  and  C_5
REMARK    4  A    between atoms: C_18  and  C_19
REMARK                            x       y       z     vdW  Elec       q    Type
REMARK                         _______ _______ _______ _____ _____    ______ ____
ROOT
ATOM      1  O   UNL     1       7.688   6.653  16.275  0.00  0.00    +0.000 OA
ATOM      2  C   UNL     1       7.389   6.776  17.473  0.00  0.00    +0.000 C 
ATOM      3  N   UNL     1       7.913   7.884  18.262  0.00  0.00    +0.000 N 
ATOM      4  H   UNL     1       7.402   7.990  19.132  0.00  0.00    +0.000 HD
ENDROOT
BRANCH   2   5
ATOM      5  C   UNL     1       6.447   5.738  18.171  0.00  0.00    +0.000 A 
ATOM      6  C   UNL     1       4.996   5.765  18.453  0.00  0.00    +0.000 A 
ATOM      7  C   UNL     1       4.627   4.544  19.048  0.00  0.00    +0.000 A 
ATOM      8  N   UNL     1       5.846   3.911  19.148  0.00  0.00    +0.000 N 
ATOM      9  N   UNL     1       6.924   4.565  18.641  0.00  0.00    +0.000 NA
ATOM     10  H   UNL     1       5.995   2.998  19.565  0.00  0.00    +0.000 HD
BRANCH   7  11
ATOM     11  C   UNL     1       3.327   3.872  19.470  0.00  0.00    +0.000 A 
ATOM     12  C   UNL     1       2.532   4.437  20.491  0.00  0.00    +0.000 A 
ATOM     13  C   UNL     1       1.257   3.915  20.835  0.00  0.00    +0.000 A 
ATOM     14  C   UNL     1       0.734   2.806  20.184  0.00  0.00    +0.000 A 
ATOM     15  C   UNL     1       1.498   2.204  19.199  0.00  0.00    +0.000 A 
ATOM     16  C   UNL     1       2.766   2.721  18.845  0.00  0.00    +0.000 A 
ATOM     17 CL   UNL     1       3.594   1.838  17.598  0.00  0.00    +0.000 Cl
ENDBRANCH   7  11
ENDBRANCH   2   5
BRANCH   3  18
ATOM     18  C   UNL     1       8.701   9.100  17.694  0.00  0.00    +0.000 C 
BRANCH  18  19
ATOM     19  C   UNL     1       8.949  10.522  18.465  0.00  0.00    +0.000 A 
ATOM     20  C   UNL     1       8.947  11.795  17.899  0.00  0.00    +0.000 A 
ATOM     21  C   UNL     1       9.329  13.044  18.659  0.00  0.00    +0.000 A 
ATOM     22  C   UNL     1       9.749  13.106  20.031  0.00  0.00    +0.000 A 
ATOM     23  N   UNL     1      10.137  14.574  20.718  0.00  0.00    +0.000 N 
ATOM     24  C   UNL     1      10.274  15.219  22.140  0.00  0.00    +0.000 A 
ATOM     25  C   UNL     1       8.966  15.763  22.102  0.00  0.00    +0.000 A 
ATOM     26  C   UNL     1       8.962  16.321  20.791  0.00  0.00    +0.000 A 
ATOM     27  N   UNL     1       9.783  15.674  19.952  0.00  0.00    +0.000 NA
ATOM     28  N   UNL     1       9.774  11.868  20.616  0.00  0.00    +0.000 NA
ATOM     29  C   UNL     1       9.391  10.658  19.824  0.00  0.00    +0.000 A 
ENDBRANCH  18  19
ENDBRANCH   3  18
TORSDOF 4
ENDMDL
MODEL 2
REMARK VINA RESULT:      -8.5      0.912      1.364
REMARK  Name = 
REMARK  4 active torsions:
REMARK  status: ('A' for Active; 'I' for Inactive)
REMARK    1  A    between atoms: C_2  and  C_16
REMARK    2  A    between atoms: N_3  and  C_4
REMARK    3  A    between atoms: C_4  and  C_5
REMARK    4  A    between atoms: C_18  and  C_19
REMARK                            x       y       z     vdW  Elec       q    Type
REMARK                         _______ _______ _______ _____ _____    ______ ____
ROOT
ATOM      1  O   UNL     1       7.617   6.581  16.240  0.00  0.00    +0.000 OA
ATOM      2  C   UNL     1       7.342   6.705  17.444  0.00  0.00    +0.000 C 
ATOM      3  N   UNL     1       7.903   7.797  18.229  0.00  0.00    +0.000 N 
ATOM      4  H   UNL     1       7.410   7.910  19.107  0.00  0.00    +0.000 HD
ENDROOT
BRANCH   2   5
ATOM      5  C   UNL     1       6.390   5.683  18.154  0.00  0.00    +0.000 A 
ATOM      6  C   UNL     1       4.932   5.708  18.397  0.00  0.00    +0.000 A 
ATOM      7  C   UNL     1       4.558   4.505  19.025  0.00  0.00    +0.000 A 
ATOM      8  N   UNL     1       5.779   3.887  19.179  0.00  0.00    +0.000 N 
ATOM      9  N   UNL     1       6.864   4.532  18.676  0.00  0.00    +0.000 NA
ATOM     10  H   UNL     1       5.924   2.990  19.632  0.00  0.00    +0.000 HD
BRANCH   7  11
ATOM     11  C   UNL     1       3.253   3.837  19.438  0.00  0.00    +0.000 A 
ATOM     12  C   UNL     1       2.861   3.816  20.795  0.00  0.00    +0.000 A 
ATOM     13  C   UNL     1       1.601   3.312  21.212  0.00  0.00    +0.000 A 
ATOM     14  C   UNL     1       0.691   2.802  20.295  0.00  0.00    +0.000 A 
ATOM     15  C   UNL     1       1.051   2.777  18.959  0.00  0.00    +0.000 A 
ATOM     16  C   UNL     1       2.302   3.281  18.534  0.00  0.00    +0.000 A 
ATOM     17 CL   UNL     1       2.597   3.162  16.825  0.00  0.00    +0.000 Cl
ENDBRANCH   7  11
ENDBRANCH   2   5
BRANCH   3  18
ATOM     18  C   UNL     1       8.707   8.999  17.652  0.00  0.00    +0.000 C 
BRANCH  18  19
ATOM     19  C   UNL     1       8.943  10.436  18.398  0.00  0.00    +0.000 A 
ATOM     20  C   UNL     1       9.284  10.642  19.734  0.00  0.00    +0.000 A 
ATOM     21  C   UNL     1       9.341  12.009  20.376  0.00  0.00    +0.000 A 
ATOM     22  C   UNL     1       9.051  13.260  19.734  0.00  0.00    +0.000 A 
ATOM     23  N   UNL     1       9.162  14.683  20.594  0.00  0.00    +0.000 N 
ATOM     24  C   UNL     1       9.318  16.220  20.329  0.00  0.00    +0.000 A 
ATOM     25  C   UNL     1      10.723  16.187  20.511  0.00  0.00    +0.000 A 
ATOM     26  C   UNL     1      10.804  15.404  21.699  0.00  0.00    +0.000 A 
ATOM     27  N   UNL     1       9.775  14.556  21.831  0.00  0.00    +0.000 NA
ATOM     28  N   UNL     1       8.700  13.093  18.421  0.00  0.00    +0.000 NA
ATOM     29  C   UNL     1       8.654  11.721  17.827  0.00  0.00    +0.000 A 
ENDBRANCH  18  19
ENDBRANCH   3  18
TORSDOF 4
ENDMDL
MODEL 3
REMARK VINA RESULT:      -8.4      1.103      1.425
REMARK  Name = 
REMARK  4 active torsions:
REMARK  status: ('A' for Active; 'I' for Inactive)
REMARK    1  A    between atoms: C_2  and  C_16
REMARK    2  A    between atoms: N_3  and  C_4
REMARK    3  A    between atoms: C_4  and  C_5
REMARK    4  A    between atoms: C_18  and  C_19
REMARK                            x       y       z     vdW  Elec       q    Type
REMARK                         _______ _______ _______ _____ _____    ______ ____
ROOT
ATOM      1  O   UNL     1       7.805   6.639  16.310  0.00  0.00    +0.000 OA
ATOM      2  C   UNL     1       7.352   6.840  17.448  0.00  0.00    +0.000 C 
ATOM      3  N   UNL     1       7.786   7.989  18.231  0.00  0.00    +0.000 N 
ATOM      4  H   UNL     1       7.166   8.155  19.016  0.00  0.00    +0.000 HD
ENDROOT
BRANCH   2   5
ATOM      5  C   UNL     1       6.307   5.856  18.076  0.00  0.00    +0.000 A 
ATOM      6  C   UNL     1       4.834   5.790  17.966  0.00  0.00    +0.000 A 
ATOM      7  C   UNL     1       4.377   4.666  18.680  0.00  0.00    +0.000 A 
ATOM      8  N   UNL     1       5.553   4.185  19.212  0.00  0.00    +0.000 N 
ATOM      9  N   UNL     1       6.695   4.840  18.876  0.00  0.00    +0.000 NA
ATOM     10  H   UNL     1       5.627   3.381  19.827  0.00  0.00    +0.000 HD
BRANCH   7  11
ATOM     11  C   UNL     1       3.045   3.955  18.882  0.00  0.00    +0.000 A 
ATOM     12  C   UNL     1       2.818   2.688  18.300  0.00  0.00    +0.000 A 
ATOM     13  C   UNL     1       1.643   1.935  18.558  0.00  0.00    +0.000 A 
ATOM     14  C   UNL     1       0.646   2.422  19.394  0.00  0.00    +0.000 A 
ATOM     15  C   UNL     1       0.818   3.674  19.959  0.00  0.00    +0.000 A 
ATOM     16  C   UNL     1       1.988   4.428  19.712  0.00  0.00    +0.000 A 
ATOM     17 CL   UNL     1       2.035   5.982  20.489  0.00  0.00    +0.000 Cl
ENDBRANCH   7  11
ENDBRANCH   2   5
BRANCH   3  18
ATOM     18  C   UNL     1       8.663   9.160  17.700  0.00  0.00    +0.000 C 
BRANCH  18  19
ATOM     19  C   UNL     1       8.928  10.581  18.468  0.00  0.00    +0.000 A 
ATOM     20  C   UNL     1       8.948  11.852  17.899  0.00  0.00    +0.000 A 
ATOM     21  C   UNL     1       9.343  13.097  18.658  0.00  0.00    +0.000 A 
ATOM     22  C   UNL     1       9.756  13.158  20.031  0.00  0.00    +0.000 A 
ATOM     23  N   UNL     1      10.162  14.621  20.717  0.00  0.00    +0.000 N 
ATOM     24  C   UNL     1      10.299  15.269  22.138  0.00  0.00    +0.000 A 
ATOM     25  C   UNL     1       8.999  15.832  22.090  0.00  0.00    +0.000 A 
ATOM     26  C   UNL     1       9.012  16.385  20.778  0.00  0.00    +0.000 A 
ATOM     27  N   UNL     1       9.828  15.725  19.946  0.00  0.00    +0.000 NA
ATOM     28  N   UNL     1       9.759  11.921  20.620  0.00  0.00    +0.000 NA
ATOM     29  C   UNL     1       9.363  10.715  19.829  0.00  0.00    +0.000 A 
ENDBRANCH  18  19
ENDBRANCH   3  18
TORSDOF 4
ENDMDL
MODEL 4
REMARK VINA RESULT:      -8.3      3.414     10.846
REMARK  Name = 
REMARK  4 active torsions:
REMARK  status: ('A' for Active; 'I' for Inactive)
REMARK    1  A    between atoms: C_2  and  C_16
REMARK    2  A    between atoms: N_3  and  C_4
REMARK    3  A    between atoms: C_4  and  C_5
REMARK    4  A    between atoms: C_18  and  C_19
REMARK                            x       y       z     vdW  Elec       q    Type
REMARK                         _______ _______ _______ _____ _____    ______ ____
ROOT
ATOM      1  O   UNL     1       8.537   7.280  18.997  0.00  0.00    +0.000 OA
ATOM      2  C   UNL     1       8.299   8.179  18.175  0.00  0.00    +0.000 C 
ATOM      3  N   UNL     1       7.659   7.875  16.902  0.00  0.00    +0.000 N 
ATOM      4  H   UNL     1       7.315   8.716  16.453  0.00  0.00    +0.000 HD
ENDROOT
BRANCH   2   5
ATOM      5  C   UNL     1       8.688   9.665  18.483  0.00  0.00    +0.000 A 
ATOM      6  C   UNL     1       8.562  10.898  17.677  0.00  0.00    +0.000 A 
ATOM      7  C   UNL     1       9.005  11.989  18.448  0.00  0.00    +0.000 A 
ATOM      8  N   UNL     1       9.420  11.358  19.599  0.00  0.00    +0.000 N 
ATOM      9  N   UNL     1       9.242  10.013  19.664  0.00  0.00    +0.000 NA
ATOM     10  H   UNL     1       9.841  11.823  20.398  0.00  0.00    +0.000 HD
BRANCH   7  11
ATOM     11  C   UNL     1       9.039  13.505  18.296  0.00  0.00    +0.000 A 
ATOM     12  C   UNL     1       8.029  14.302  18.877  0.00  0.00    +0.000 A 
ATOM     13  C   UNL     1       8.082  15.721  18.865  0.00  0.00    +0.000 A 
ATOM     14  C   UNL     1       9.136  16.396  18.264  0.00  0.00    +0.000 A 
ATOM     15  C   UNL     1      10.131  15.649  17.656  0.00  0.00    +0.000 A 
ATOM     16  C   UNL     1      10.089  14.236  17.668  0.00  0.00    +0.000 A 
ATOM     17 CL   UNL     1      11.410  13.458  16.850  0.00  0.00    +0.000 Cl
ENDBRANCH   7  11
ENDBRANCH   2   5
BRANCH   3  18
ATOM     18  C   UNL     1       7.039   6.501  16.512  0.00  0.00    +0.000 C 
BRANCH  18  19
ATOM     19  C   UNL     1       5.907   5.686  17.367  0.00  0.00    +0.000 A 
ATOM     20  C   UNL     1       6.105   4.950  18.533  0.00  0.00    +0.000 A 
ATOM     21  C   UNL     1       5.029   4.109  19.179  0.00  0.00    +0.000 A 
ATOM     22  C   UNL     1       3.687   3.936  18.699  0.00  0.00    +0.000 A 
ATOM     23  N   UNL     1       2.621   2.966  19.536  0.00  0.00    +0.000 N 
ATOM     24  C   UNL     1       1.075   2.743  19.672  0.00  0.00    +0.000 A 
ATOM     25  C   UNL     1       0.981   3.567  20.823  0.00  0.00    +0.000 A 
ATOM     26  C   UNL     1       2.090   3.081  21.572  0.00  0.00    +0.000 A 
ATOM     27  N   UNL     1       3.063   2.585  20.794  0.00  0.00    +0.000 NA
ATOM     28  N   UNL     1       3.460   4.638  17.545  0.00  0.00    +0.000 NA
ATOM     29  C   UNL     1       4.557   5.455  16.939  0.00  0.00    +0.000 A 
ENDBRANCH  18  19
ENDBRANCH   3  18
TORSDOF 4
ENDMDL
MODEL 5
REMARK VINA RESULT:      -8.2      1.350      1.917
REMARK  Name = 
REMARK  4 active torsions:
REMARK  status: ('A' for Active; 'I' for Inactive)
REMARK    1  A    between atoms: C_2  and  C_16
REMARK    2  A    between atoms: N_3  and  C_4
REMARK    3  A    between atoms: C_4  and  C_5
REMARK    4  A    between atoms: C_18  and  C_19
REMARK                            x       y       z     vdW  Elec       q    Type
REMARK                         _______ _______ _______ _____ _____    ______ ____
ROOT
ATOM      1  O   UNL     1       7.782   6.745  16.333  0.00  0.00    +0.000 OA
ATOM      2  C   UNL     1       7.396   6.895  17.503  0.00  0.00    +0.000 C 
ATOM      3  N   UNL     1       7.917   7.978  18.327  0.00  0.00    +0.000 N 
ATOM      4  H   UNL     1       7.346   8.120  19.152  0.00  0.00    +0.000 HD
ENDROOT
BRANCH   2   5
ATOM      5  C   UNL     1       6.344   5.917  18.127  0.00  0.00    +0.000 A 
ATOM      6  C   UNL     1       4.873   5.844  17.992  0.00  0.00    +0.000 A 
ATOM      7  C   UNL     1       4.408   4.729  18.715  0.00  0.00    +0.000 A 
ATOM      8  N   UNL     1       5.575   4.262  19.275  0.00  0.00    +0.000 N 
ATOM      9  N   UNL     1       6.721   4.916  18.950  0.00  0.00    +0.000 NA
ATOM     10  H   UNL     1       5.641   3.468  19.904  0.00  0.00    +0.000 HD
BRANCH   7  11
ATOM     11  C   UNL     1       3.075   4.017  18.904  0.00  0.00    +0.000 A 
ATOM     12  C   UNL     1       2.854   2.752  18.316  0.00  0.00    +0.000 A 
ATOM     13  C   UNL     1       1.677   1.997  18.562  0.00  0.00    +0.000 A 
ATOM     14  C   UNL     1       0.673   2.479  19.392  0.00  0.00    +0.000 A 
ATOM     15  C   UNL     1       0.839   3.730  19.962  0.00  0.00    +0.000 A 
ATOM     16  C   UNL     1       2.011   4.486  19.727  0.00  0.00    +0.000 A 
ATOM     17 CL   UNL     1       2.050   6.037  20.510  0.00  0.00    +0.000 Cl
ENDBRANCH   7  11
ENDBRANCH   2   5
BRANCH   3  18
ATOM     18  C   UNL     1       8.816   9.143  17.819  0.00  0.00    +0.000 C 
BRANCH  18  19
ATOM     19  C   UNL     1       9.026  10.584  18.567  0.00  0.00    +0.000 A 
ATOM     20  C   UNL     1       9.300  10.796  19.917  0.00  0.00    +0.000 A 
ATOM     21  C   UNL     1       9.335  12.167  20.552  0.00  0.00    +0.000 A 
ATOM     22  C   UNL     1       9.088  13.416  19.889  0.00  0.00    +0.000 A 
ATOM     23  N   UNL     1       9.167  14.844  20.743  0.00  0.00    +0.000 N 
ATOM     24  C   UNL     1       9.349  16.378  20.477  0.00  0.00    +0.000 A 
ATOM     25  C   UNL     1      10.743  16.334  20.731  0.00  0.00    +0.000 A 
ATOM     26  C   UNL     1      10.757  15.559  21.926  0.00  0.00    +0.000 A 
ATOM     27  N   UNL     1       9.715  14.721  22.011  0.00  0.00    +0.000 NA
ATOM     28  N   UNL     1       8.803  13.242  18.560  0.00  0.00    +0.000 NA
ATOM     29  C   UNL     1       8.776  11.866  17.974  0.00  0.00    +0.000 A 
ENDBRANCH  18  19
ENDBRANCH   3  18
TORSDOF 4
ENDMDL
MODEL 6
REMARK VINA RESULT:      -8.2      3.258     10.820
REMARK  Name = 
REMARK  4 active torsions:
REMARK  status: ('A' for Active; 'I' for Inactive)
REMARK    1  A    between atoms: C_2  and  C_16
REMARK    2  A    between atoms: N_3  and  C_4
REMARK    3  A    between atoms: C_4  and  C_5
REMARK    4  A    between atoms: C_18  and  C_19
REMARK                            x       y       z     vdW  Elec       q    Type
REMARK                         _______ _______ _______ _____ _____    ______ ____
ROOT
ATOM      1  O   UNL     1       8.591   7.522  19.054  0.00  0.00    +0.000 OA
ATOM      2  C   UNL     1       8.346   8.452  18.270  0.00  0.00    +0.000 C 
ATOM      3  N   UNL     1       7.563   8.222  17.063  0.00  0.00    +0.000 N 
ATOM      4  H   UNL     1       7.244   9.096  16.659  0.00  0.00    +0.000 HD
ENDROOT
BRANCH   2   5
ATOM      5  C   UNL     1       8.880   9.897  18.554  0.00  0.00    +0.000 A 
ATOM      6  C   UNL     1       9.052  11.070  17.670  0.00  0.00    +0.000 A 
ATOM      7  C   UNL     1       9.511  12.154  18.441  0.00  0.00    +0.000 A 
ATOM      8  N   UNL     1       9.649  11.568  19.679  0.00  0.00    +0.000 N 
ATOM      9  N   UNL     1       9.283  10.264  19.789  0.00  0.00    +0.000 NA
ATOM     10  H   UNL     1       9.998  12.037  20.509  0.00  0.00    +0.000 HD
BRANCH   7  11
ATOM     11  C   UNL     1       9.775  13.636  18.211  0.00  0.00    +0.000 A 
ATOM     12  C   UNL     1      10.840  14.050  17.381  0.00  0.00    +0.000 A 
ATOM     13  C   UNL     1      11.052  15.412  17.041  0.00  0.00    +0.000 A 
ATOM     14  C   UNL     1      10.218  16.412  17.524  0.00  0.00    +0.000 A 
ATOM     15  C   UNL     1       9.181  16.049  18.366  0.00  0.00    +0.000 A 
ATOM     16  C   UNL     1       8.959  14.694  18.706  0.00  0.00    +0.000 A 
ATOM     17 CL   UNL     1       7.622  14.418  19.781  0.00  0.00    +0.000 Cl
ENDBRANCH   7  11
ENDBRANCH   2   5
BRANCH   3  18
ATOM     18  C   UNL     1       6.801   6.909  16.721  0.00  0.00    +0.000 C 
BRANCH  18  19
ATOM     19  C   UNL     1       5.656   6.198  17.650  0.00  0.00    +0.000 A 
ATOM     20  C   UNL     1       4.312   6.553  17.743  0.00  0.00    +0.000 A 
ATOM     21  C   UNL     1       3.356   5.934  18.736  0.00  0.00    +0.000 A 
ATOM     22  C   UNL     1       3.677   4.930  19.710  0.00  0.00    +0.000 A 
ATOM     23  N   UNL     1       2.496   4.355  20.735  0.00  0.00    +0.000 N 
ATOM     24  C   UNL     1       2.218   3.108  21.644  0.00  0.00    +0.000 A 
ATOM     25  C   UNL     1       1.445   2.460  20.648  0.00  0.00    +0.000 A 
ATOM     26  C   UNL     1       0.621   3.541  20.224  0.00  0.00    +0.000 A 
ATOM     27  N   UNL     1       1.207   4.735  20.392  0.00  0.00    +0.000 NA
ATOM     28  N   UNL     1       4.996   4.566  19.655  0.00  0.00    +0.000 NA
ATOM     29  C   UNL     1       5.908   5.208  18.657  0.00  0.00    +0.000 A 
ENDBRANCH  18  19
ENDBRANCH   3  18
TORSDOF 4
ENDMDL
MODEL 7
REMARK VINA RESULT:      -8.2      3.409     10.778
REMARK  Name = 
REMARK  4 active torsions:
REMARK  status: ('A' for Active; 'I' for Inactive)
REMARK    1  A    between atoms: C_2  and  C_16
REMARK    2  A    between atoms: N_3  and  C_4
REMARK    3  A    between atoms: C_4  and  C_5
REMARK    4  A    between atoms: C_18  and  C_19
REMARK                            x       y       z     vdW  Elec       q    Type
REMARK                         _______ _______ _______ _____ _____    ______ ____
ROOT
ATOM      1  O   UNL     1       8.412   7.379  19.097  0.00  0.00    +0.000 OA
ATOM      2  C   UNL     1       8.255   8.251  18.229  0.00  0.00    +0.000 C 
ATOM      3  N   UNL     1       7.575   7.944  16.977  0.00  0.00    +0.000 N 
ATOM      4  H   UNL     1       7.311   8.790  16.484  0.00  0.00    +0.000 HD
ENDROOT
BRANCH   2   5
ATOM      5  C   UNL     1       8.795   9.705  18.451  0.00  0.00    +0.000 A 
ATOM      6  C   UNL     1       8.660  10.935  17.642  0.00  0.00    +0.000 A 
ATOM      7  C   UNL     1       9.282  11.997  18.325  0.00  0.00    +0.000 A 
ATOM      8  N   UNL     1       9.794  11.348  19.427  0.00  0.00    +0.000 N 
ATOM      9  N   UNL     1       9.524  10.022  19.542  0.00  0.00    +0.000 NA
ATOM     10  H   UNL     1      10.350  11.787  20.154  0.00  0.00    +0.000 HD
BRANCH   7  11
ATOM     11  C   UNL     1       9.412  13.503  18.137  0.00  0.00    +0.000 A 
ATOM     12  C   UNL     1       8.352  14.361  18.504  0.00  0.00    +0.000 A 
ATOM     13  C   UNL     1       8.472  15.775  18.461  0.00  0.00    +0.000 A 
ATOM     14  C   UNL     1       9.646  16.385  18.039  0.00  0.00    +0.000 A 
ATOM     15  C   UNL     1      10.697  15.577  17.640  0.00  0.00    +0.000 A 
ATOM     16  C   UNL     1      10.589  14.168  17.686  0.00  0.00    +0.000 A 
ATOM     17 CL   UNL     1      11.997  13.308  17.141  0.00  0.00    +0.000 Cl
ENDBRANCH   7  11
ENDBRANCH   2   5
BRANCH   3  18
ATOM     18  C   UNL     1       6.817   6.620  16.667  0.00  0.00    +0.000 C 
BRANCH  18  19
ATOM     19  C   UNL     1       5.674   5.929  17.614  0.00  0.00    +0.000 A 
ATOM     20  C   UNL     1       4.346   6.327  17.752  0.00  0.00    +0.000 A 
ATOM     21  C   UNL     1       3.397   5.720  18.758  0.00  0.00    +0.000 A 
ATOM     22  C   UNL     1       3.710   4.685  19.702  0.00  0.00    +0.000 A 
ATOM     23  N   UNL     1       2.538   4.127  20.748  0.00  0.00    +0.000 N 
ATOM     24  C   UNL     1       2.242   2.871  21.638  0.00  0.00    +0.000 A 
ATOM     25  C   UNL     1       1.420   2.271  20.651  0.00  0.00    +0.000 A 
ATOM     26  C   UNL     1       0.623   3.390  20.273  0.00  0.00    +0.000 A 
ATOM     27  N   UNL     1       1.255   4.559  20.450  0.00  0.00    +0.000 NA
ATOM     28  N   UNL     1       5.014   4.277  19.601  0.00  0.00    +0.000 NA
ATOM     29  C   UNL     1       5.919   4.908  18.592  0.00  0.00    +0.000 A 
ENDBRANCH  18  19
ENDBRANCH   3  18
TORSDOF 4
ENDMDL
MODEL 8
REMARK VINA RESULT:      -8.1      3.160     10.820
REMARK  Name = 
REMARK  4 active torsions:
REMARK  status: ('A' for Active; 'I' for Inactive)
REMARK    1  A    between atoms: C_2  and  C_16
REMARK    2  A    between atoms: N_3  and  C_4
REMARK    3  A    between atoms: C_4  and  C_5
REMARK    4  A    between atoms: C_18  and  C_19
REMARK                            x       y       z     vdW  Elec       q    Type
REMARK                         _______ _______ _______ _____ _____    ______ ____
ROOT
ATOM      1  O   UNL     1       8.637   7.415  19.027  0.00  0.00    +0.000 OA
ATOM      2  C   UNL     1       8.369   8.355  18.263  0.00  0.00    +0.000 C 
ATOM      3  N   UNL     1       7.684   8.117  16.999  0.00  0.00    +0.000 N 
ATOM      4  H   UNL     1       7.324   8.980  16.608  0.00  0.00    +0.000 HD
ENDROOT
BRANCH   2   5
ATOM      5  C   UNL     1       8.769   9.824  18.634  0.00  0.00    +0.000 A 
ATOM      6  C   UNL     1       8.773  11.070  17.838  0.00  0.00    +0.000 A 
ATOM      7  C   UNL     1       9.162  12.136  18.670  0.00  0.00    +0.000 A 
ATOM      8  N   UNL     1       9.426  11.479  19.850  0.00  0.00    +0.000 N 
ATOM      9  N   UNL     1       9.200  10.139  19.874  0.00  0.00    +0.000 NA
ATOM     10  H   UNL     1       9.770  11.920  20.697  0.00  0.00    +0.000 HD
BRANCH   7  11
ATOM     11  C   UNL     1       9.261  13.651  18.546  0.00  0.00    +0.000 A 
ATOM     12  C   UNL     1      10.467  14.314  18.863  0.00  0.00    +0.000 A 
ATOM     13  C   UNL     1      10.646  15.706  18.649  0.00  0.00    +0.000 A 
ATOM     14  C   UNL     1       9.627  16.490  18.123  0.00  0.00    +0.000 A 
ATOM     15  C   UNL     1       8.419  15.882  17.829  0.00  0.00    +0.000 A 
ATOM     16  C   UNL     1       8.234  14.495  18.033  0.00  0.00    +0.000 A 
ATOM     17 CL   UNL     1       6.654  13.899  17.621  0.00  0.00    +0.000 Cl
ENDBRANCH   7  11
ENDBRANCH   2   5
BRANCH   3  18
ATOM     18  C   UNL     1       7.051   6.765  16.559  0.00  0.00    +0.000 C 
BRANCH  18  19
ATOM     19  C   UNL     1       5.936   5.913  17.402  0.00  0.00    +0.000 A 
ATOM     20  C   UNL     1       6.147   5.174  18.564  0.00  0.00    +0.000 A 
ATOM     21  C   UNL     1       5.090   4.300  19.197  0.00  0.00    +0.000 A 
ATOM     22  C   UNL     1       3.756   4.093  18.707  0.00  0.00    +0.000 A 
ATOM     23  N   UNL     1       2.711   3.089  19.531  0.00  0.00    +0.000 N 
ATOM     24  C   UNL     1       1.172   2.824  19.655  0.00  0.00    +0.000 A 
ATOM     25  C   UNL     1       1.048   3.636  20.810  0.00  0.00    +0.000 A 
ATOM     26  C   UNL     1       2.165   3.175  21.563  0.00  0.00    +0.000 A 
ATOM     27  N   UNL     1       3.156   2.711  20.789  0.00  0.00    +0.000 NA
ATOM     28  N   UNL     1       3.517   4.798  17.557  0.00  0.00    +0.000 NA
ATOM     29  C   UNL     1       4.595   5.649  16.964  0.00  0.00    +0.000 A 
ENDBRANCH  18  19
ENDBRANCH   3  18
TORSDOF 4
ENDMDL
MODEL 9
REMARK VINA RESULT:      -8.1      3.282     11.098
REMARK  Name = 
REMARK  4 active torsions:
REMARK  status: ('A' for Active; 'I' for Inactive)
REMARK    1  A    between atoms: C_2  and  C_16
REMARK    2  A    between atoms: N_3  and  C_4
REMARK    3  A    between atoms: C_4  and  C_5
REMARK    4  A    between atoms: C_18  and  C_19
REMARK                            x       y       z     vdW  Elec       q    Type
REMARK                         _______ _______ _______ _____ _____    ______ ____
ROOT
ATOM      1  O   UNL     1       7.285   8.454  17.033  0.00  0.00    +0.000 OA
ATOM      2  C   UNL     1       8.070   8.513  17.992  0.00  0.00    +0.000 C 
ATOM      3  N   UNL     1       8.382   7.325  18.775  0.00  0.00    +0.000 N 
ATOM      4  H   UNL     1       9.202   7.470  19.353  0.00  0.00    +0.000 HD
ENDROOT
BRANCH   2   5
ATOM      5  C   UNL     1       8.741   9.872  18.390  0.00  0.00    +0.000 A 
ATOM      6  C   UNL     1       8.739  11.196  17.733  0.00  0.00    +0.000 A 
ATOM      7  C   UNL     1       9.447  12.104  18.543  0.00  0.00    +0.000 A 
ATOM      8  N   UNL     1       9.874  11.283  19.563  0.00  0.00    +0.000 N 
ATOM      9  N   UNL     1       9.477   9.985  19.517  0.00  0.00    +0.000 NA
ATOM     10  H   UNL     1      10.456  11.577  20.341  0.00  0.00    +0.000 HD
BRANCH   7  11
ATOM     11  C   UNL     1       9.723  13.602  18.538  0.00  0.00    +0.000 A 
ATOM     12  C   UNL     1       9.090  14.446  19.476  0.00  0.00    +0.000 A 
ATOM     13  C   UNL     1       9.406  15.826  19.588  0.00  0.00    +0.000 A 
ATOM     14  C   UNL     1      10.354  16.416  18.763  0.00  0.00    +0.000 A 
ATOM     15  C   UNL     1      10.974  15.628  17.809  0.00  0.00    +0.000 A 
ATOM     16  C   UNL     1      10.670  14.251  17.694  0.00  0.00    +0.000 A 
ATOM     17 CL   UNL     1      11.532  13.414  16.439  0.00  0.00    +0.000 Cl
ENDBRANCH   7  11
ENDBRANCH   2   5
BRANCH   3  18
ATOM     18  C   UNL     1       7.961   5.871  18.412  0.00  0.00    +0.000 C 
BRANCH  18  19
ATOM     19  C   UNL     1       6.448   5.258  18.527  0.00  0.00    +0.000 A 
ATOM     20  C   UNL     1       5.814   4.410  17.620  0.00  0.00    +0.000 A 
ATOM     21  C   UNL     1       4.363   4.007  17.733  0.00  0.00    +0.000 A 
ATOM     22  C   UNL     1       3.442   4.431  18.749  0.00  0.00    +0.000 A 
ATOM     23  N   UNL     1       1.866   3.890  18.725  0.00  0.00    +0.000 N 
ATOM     24  C   UNL     1       0.649   3.736  19.701  0.00  0.00    +0.000 A 
ATOM     25  C   UNL     1       0.943   2.377  19.976  0.00  0.00    +0.000 A 
ATOM     26  C   UNL     1       1.182   1.899  18.656  0.00  0.00    +0.000 A 
ATOM     27  N   UNL     1       1.632   2.855  17.832  0.00  0.00    +0.000 NA
ATOM     28  N   UNL     1       4.029   5.277  19.653  0.00  0.00    +0.000 NA
ATOM     29  C   UNL     1       5.469   5.651  19.500  0.00  0.00    +0.000 A 
ENDBRANCH  18  19
ENDBRANCH   3  18
TORSDOF 4
ENDMDL
