MODEL 1
REMARK VINA RESULT:      -8.7      0.000      0.000
REMARK  Name = 
REMARK  4 active torsions:
REMARK  status: ('A' for Active; 'I' for Inactive)
REMARK    1  A    between atoms: C_2  and  C_3
REMARK    2  A    between atoms: C_3  and  C_4
REMARK    3  A    between atoms: C_4  and  C_5
REMARK    4  A    between atoms: C_5  and  C_6
REMARK                            x       y       z     vdW  Elec       q    Type
REMARK                         _______ _______ _______ _____ _____    ______ ____
ROOT
ATOM      1  O   UNL     1       1.585   9.482  17.969  0.00  0.00    +0.000 OA
ATOM      2  C   UNL     1       0.529   9.935  18.425  0.00  0.00    +0.000 C 
ATOM      3  N   UNL     1      -0.500  10.157  17.563  0.00  0.00    +0.000 N 
ATOM      4  C   UNL     1      -1.687  10.751  17.869  0.00  0.00    +0.000 A 
ATOM      5  N   UNL     1      -1.992  11.454  18.925  0.00  0.00    +0.000 NA
ATOM      6  C   UNL     1      -3.325  11.807  18.884  0.00  0.00    +0.000 A 
ATOM      7  C   UNL     1      -4.004  12.557  19.862  0.00  0.00    +0.000 A 
ATOM      8  C   UNL     1      -5.374  12.769  19.721  0.00  0.00    +0.000 A 
ATOM      9  C   UNL     1      -6.060  12.266  18.615  0.00  0.00    +0.000 A 
ATOM     10  C   UNL     1      -5.399  11.532  17.624  0.00  0.00    +0.000 A 
ATOM     11  C   UNL     1      -4.023  11.333  17.772  0.00  0.00    +0.000 A 
ATOM     12  S   UNL     1      -2.914  10.533  16.714  0.00  0.00    +0.000 S 
ATOM     13  O   UNL     1      -7.408  12.446  18.424  0.00  0.00    +0.000 OA
ATOM     14  C   UNL     1      -7.909  13.509  19.241  0.00  0.00    +0.000 C 
ATOM     15  C   UNL     1      -7.405  13.373  20.668  0.00  0.00    +0.000 C 
ATOM     16  O   UNL     1      -5.980  13.494  20.717  0.00  0.00    +0.000 OA
ATOM     17  H   UNL     1      -0.361   9.843  16.614  0.00  0.00    +0.000 HD
ENDROOT
BRANCH   2  18
ATOM     18  C   UNL     1       0.336  10.127  19.925  0.00  0.00    +0.000 C 
BRANCH  18  19
ATOM     19  C   UNL     1       0.097   8.815  20.657  0.00  0.00    +0.000 C 
BRANCH  19  20
ATOM     20  C   UNL     1       1.418   8.246  21.176  0.00  0.00    +0.000 C 
BRANCH  20  21
ATOM     21  C   UNL     1       1.759   7.001  20.416  0.00  0.00    +0.000 A 
ATOM     22  N   UNL     1       1.288   5.859  20.793  0.00  0.00    +0.000 NA
ATOM     23  C   UNL     1       1.611   4.736  20.020  0.00  0.00    +0.000 A 
ATOM     24  C   UNL     1       1.112   3.491  20.407  0.00  0.00    +0.000 A 
ATOM     25  C   UNL     1       1.406   2.349  19.655  0.00  0.00    +0.000 A 
ATOM     26  C   UNL     1       2.202   2.444  18.513  0.00  0.00    +0.000 A 
ATOM     27  C   UNL     1       2.708   3.682  18.117  0.00  0.00    +0.000 A 
ATOM     28  C   UNL     1       2.408   4.817  18.875  0.00  0.00    +0.000 A 
ATOM     29  C   UNL     1       2.919   6.144  18.490  0.00  0.00    +0.000 A 
ATOM     30  O   UNL     1       3.630   6.312  17.508  0.00  0.00    +0.000 OA
ATOM     31  N   UNL     1       2.541   7.176  19.308  0.00  0.00    +0.000 N 
ATOM     32  H   UNL     1       2.878   8.095  19.051  0.00  0.00    +0.000 HD
ENDBRANCH  20  21
ENDBRANCH  19  20
ENDBRANCH  18  19
ENDBRANCH   2  18
TORSDOF 4
ENDMDL
MODEL 2
REMARK VINA RESULT:      -8.6      2.798      9.861
REMARK  Name = 
REMARK  4 active torsions:
REMARK  status: ('A' for Active; 'I' for Inactive)
REMARK    1  A    between atoms: C_2  and  C_3
REMARK    2  A    between atoms: C_3  and  C_4
REMARK    3  A    between atoms: C_4  and  C_5
REMARK    4  A    between atoms: C_5  and  C_6
REMARK                            x       y       z     vdW  Elec       q    Type
REMARK                         _______ _______ _______ _____ _____    ______ ____
ROOT
ATOM      1  O   UNL     1      -0.045   8.939  22.221  0.00  0.00    +0.000 OA
ATOM      2  C   UNL     1       0.617   8.590  21.238  0.00  0.00    +0.000 C 
ATOM      3  N   UNL     1       1.160   7.343  21.238  0.00  0.00    +0.000 N 
ATOM      4  C   UNL     1       2.004   6.837  20.296  0.00  0.00    +0.000 A 
ATOM      5  N   UNL     1       2.669   7.479  19.376  0.00  0.00    +0.000 NA
ATOM      6  C   UNL     1       3.346   6.583  18.575  0.00  0.00    +0.000 A 
ATOM      7  C   UNL     1       4.156   6.917  17.475  0.00  0.00    +0.000 A 
ATOM      8  C   UNL     1       4.715   5.895  16.711  0.00  0.00    +0.000 A 
ATOM      9  C   UNL     1       4.494   4.557  17.043  0.00  0.00    +0.000 A 
ATOM     10  C   UNL     1       3.704   4.205  18.143  0.00  0.00    +0.000 A 
ATOM     11  C   UNL     1       3.156   5.240  18.908  0.00  0.00    +0.000 A 
ATOM     12  S   UNL     1       2.197   5.149  20.342  0.00  0.00    +0.000 S 
ATOM     13  O   UNL     1       5.020   3.510  16.328  0.00  0.00    +0.000 OA
ATOM     14  C   UNL     1       6.102   3.943  15.497  0.00  0.00    +0.000 C 
ATOM     15  C   UNL     1       5.725   5.205  14.737  0.00  0.00    +0.000 C 
ATOM     16  O   UNL     1       5.482   6.288  15.642  0.00  0.00    +0.000 OA
ATOM     17  H   UNL     1       0.903   6.746  22.010  0.00  0.00    +0.000 HD
ENDROOT
BRANCH   2  18
ATOM     18  C   UNL     1       0.724   9.480  20.004  0.00  0.00    +0.000 C 
BRANCH  18  19
ATOM     19  C   UNL     1       0.400  10.936  20.302  0.00  0.00    +0.000 C 
BRANCH  19  20
ATOM     20  C   UNL     1       0.249  11.725  19.001  0.00  0.00    +0.000 C 
BRANCH  20  21
ATOM     21  C   UNL     1      -1.165  11.628  18.516  0.00  0.00    +0.000 A 
ATOM     22  N   UNL     1      -2.141  11.976  19.287  0.00  0.00    +0.000 NA
ATOM     23  C   UNL     1      -3.440  11.900  18.764  0.00  0.00    +0.000 A 
ATOM     24  C   UNL     1      -4.511  12.273  19.578  0.00  0.00    +0.000 A 
ATOM     25  C   UNL     1      -5.820  12.219  19.088  0.00  0.00    +0.000 A 
ATOM     26  C   UNL     1      -6.066  11.791  17.783  0.00  0.00    +0.000 A 
ATOM     27  C   UNL     1      -5.004  11.416  16.960  0.00  0.00    +0.000 A 
ATOM     28  C   UNL     1      -3.700  11.473  17.459  0.00  0.00    +0.000 A 
ATOM     29  C   UNL     1      -2.549  11.090  16.624  0.00  0.00    +0.000 A 
ATOM     30  O   UNL     1      -2.678  10.696  15.472  0.00  0.00    +0.000 OA
ATOM     31  N   UNL     1      -1.324  11.205  17.226  0.00  0.00    +0.000 N 
ATOM     32  H   UNL     1      -0.524  10.951  16.661  0.00  0.00    +0.000 HD
ENDBRANCH  20  21
ENDBRANCH  19  20
ENDBRANCH  18  19
ENDBRANCH   2  18
TORSDOF 4
ENDMDL
MODEL 3
REMARK VINA RESULT:      -8.2      2.839     10.248
REMARK  Name = 
REMARK  4 active torsions:
REMARK  status: ('A' for Active; 'I' for Inactive)
REMARK    1  A    between atoms: C_2  and  C_3
REMARK    2  A    between atoms: C_3  and  C_4
REMARK    3  A    between atoms: C_4  and  C_5
REMARK    4  A    between atoms: C_5  and  C_6
REMARK                            x       y       z     vdW  Elec       q    Type
REMARK                         _______ _______ _______ _____ _____    ______ ____
ROOT
ATOM      1  O   UNL     1      -0.210   9.505  21.793  0.00  0.00    +0.000 OA
ATOM      2  C   UNL     1       0.472   9.072  20.858  0.00  0.00    +0.000 C 
ATOM      3  N   UNL     1       1.022   7.834  20.983  0.00  0.00    +0.000 N 
ATOM      4  C   UNL     1       1.886   7.249  20.107  0.00  0.00    +0.000 A 
ATOM      5  N   UNL     1       2.565   7.809  19.143  0.00  0.00    +0.000 NA
ATOM      6  C   UNL     1       3.261   6.848  18.441  0.00  0.00    +0.000 A 
ATOM      7  C   UNL     1       4.090   7.085  17.329  0.00  0.00    +0.000 A 
ATOM      8  C   UNL     1       4.668   6.000  16.672  0.00  0.00    +0.000 A 
ATOM      9  C   UNL     1       4.448   4.698  17.123  0.00  0.00    +0.000 A 
ATOM     10  C   UNL     1       3.640   4.443  18.236  0.00  0.00    +0.000 A 
ATOM     11  C   UNL     1       3.072   5.540  18.892  0.00  0.00    +0.000 A 
ATOM     12  S   UNL     1       2.087   5.574  20.311  0.00  0.00    +0.000 S 
ATOM     13  O   UNL     1       4.993   3.593  16.516  0.00  0.00    +0.000 OA
ATOM     14  C   UNL     1       6.088   3.956  15.668  0.00  0.00    +0.000 C 
ATOM     15  C   UNL     1       5.718   5.139  14.789  0.00  0.00    +0.000 C 
ATOM     16  O   UNL     1       5.453   6.300  15.586  0.00  0.00    +0.000 OA
ATOM     17  H   UNL     1       0.754   7.308  21.801  0.00  0.00    +0.000 HD
ENDROOT
BRANCH   2  18
ATOM     18  C   UNL     1       0.598   9.845  19.550  0.00  0.00    +0.000 C 
BRANCH  18  19
ATOM     19  C   UNL     1      -0.749  10.303  19.009  0.00  0.00    +0.000 C 
BRANCH  19  20
ATOM     20  C   UNL     1      -0.895  11.818  19.159  0.00  0.00    +0.000 C 
BRANCH  20  21
ATOM     21  C   UNL     1      -2.077  12.124  20.027  0.00  0.00    +0.000 A 
ATOM     22  N   UNL     1      -1.962  12.103  21.313  0.00  0.00    +0.000 NA
ATOM     23  C   UNL     1      -3.093  12.437  22.072  0.00  0.00    +0.000 A 
ATOM     24  C   UNL     1      -2.992  12.424  23.464  0.00  0.00    +0.000 A 
ATOM     25  C   UNL     1      -4.097  12.759  24.254  0.00  0.00    +0.000 A 
ATOM     26  C   UNL     1      -5.309  13.107  23.656  0.00  0.00    +0.000 A 
ATOM     27  C   UNL     1      -5.422  13.123  22.266  0.00  0.00    +0.000 A 
ATOM     28  C   UNL     1      -4.313  12.787  21.486  0.00  0.00    +0.000 A 
ATOM     29  C   UNL     1      -4.388  12.794  20.015  0.00  0.00    +0.000 A 
ATOM     30  O   UNL     1      -5.414  13.080  19.413  0.00  0.00    +0.000 OA
ATOM     31  N   UNL     1      -3.227  12.460  19.368  0.00  0.00    +0.000 N 
ATOM     32  H   UNL     1      -3.262  12.468  18.357  0.00  0.00    +0.000 HD
ENDBRANCH  20  21
ENDBRANCH  19  20
ENDBRANCH  18  19
ENDBRANCH   2  18
TORSDOF 4
ENDMDL
MODEL 4
REMARK VINA RESULT:      -8.2      3.106      4.140
REMARK  Name = 
REMARK  4 active torsions:
REMARK  status: ('A' for Active; 'I' for Inactive)
REMARK    1  A    between atoms: C_2  and  C_3
REMARK    2  A    between atoms: C_3  and  C_4
REMARK    3  A    between atoms: C_4  and  C_5
REMARK    4  A    between atoms: C_5  and  C_6
REMARK                            x       y       z     vdW  Elec       q    Type
REMARK                         _______ _______ _______ _____ _____    ______ ____
ROOT
ATOM      1  O   UNL     1       2.658   8.863  17.293  0.00  0.00    +0.000 OA
ATOM      2  C   UNL     1       1.830   9.207  18.143  0.00  0.00    +0.000 C 
ATOM      3  N   UNL     1       1.371  10.488  18.112  0.00  0.00    +0.000 N 
ATOM      4  C   UNL     1       0.548  11.066  19.030  0.00  0.00    +0.000 A 
ATOM      5  N   UNL     1       0.246  10.643  20.227  0.00  0.00    +0.000 NA
ATOM      6  C   UNL     1      -0.687  11.482  20.800  0.00  0.00    +0.000 A 
ATOM      7  C   UNL     1      -1.251  11.329  22.079  0.00  0.00    +0.000 A 
ATOM      8  C   UNL     1      -2.242  12.217  22.492  0.00  0.00    +0.000 A 
ATOM      9  C   UNL     1      -2.655  13.258  21.659  0.00  0.00    +0.000 A 
ATOM     10  C   UNL     1      -2.095  13.436  20.390  0.00  0.00    +0.000 A 
ATOM     11  C   UNL     1      -1.094  12.545  19.990  0.00  0.00    +0.000 A 
ATOM     12  S   UNL     1      -0.170  12.523  18.530  0.00  0.00    +0.000 S 
ATOM     13  O   UNL     1      -3.626  14.162  22.015  0.00  0.00    +0.000 OA
ATOM     14  C   UNL     1      -3.848  14.153  23.429  0.00  0.00    +0.000 C 
ATOM     15  C   UNL     1      -3.980  12.729  23.943  0.00  0.00    +0.000 C 
ATOM     16  O   UNL     1      -2.762  12.003  23.745  0.00  0.00    +0.000 OA
ATOM     17  H   UNL     1       1.672  11.049  17.329  0.00  0.00    +0.000 HD
ENDROOT
BRANCH   2  18
ATOM     18  C   UNL     1       1.242   8.199  19.124  0.00  0.00    +0.000 C 
BRANCH  18  19
ATOM     19  C   UNL     1       2.311   7.426  19.880  0.00  0.00    +0.000 C 
BRANCH  19  20
ATOM     20  C   UNL     1       2.288   5.951  19.476  0.00  0.00    +0.000 C 
BRANCH  20  21
ATOM     21  C   UNL     1       3.581   5.595  18.807  0.00  0.00    +0.000 A 
ATOM     22  N   UNL     1       3.620   5.399  17.531  0.00  0.00    +0.000 NA
ATOM     23  C   UNL     1       4.866   5.107  16.957  0.00  0.00    +0.000 A 
ATOM     24  C   UNL     1       4.934   4.893  15.579  0.00  0.00    +0.000 A 
ATOM     25  C   UNL     1       6.160   4.608  14.970  0.00  0.00    +0.000 A 
ATOM     26  C   UNL     1       7.325   4.533  15.735  0.00  0.00    +0.000 A 
ATOM     27  C   UNL     1       7.269   4.743  17.112  0.00  0.00    +0.000 A 
ATOM     28  C   UNL     1       6.040   5.028  17.711  0.00  0.00    +0.000 A 
ATOM     29  C   UNL     1       5.937   5.260  19.162  0.00  0.00    +0.000 A 
ATOM     30  O   UNL     1       6.908   5.205  19.905  0.00  0.00    +0.000 OA
ATOM     31  N   UNL     1       4.678   5.544  19.622  0.00  0.00    +0.000 N 
ATOM     32  H   UNL     1       4.593   5.713  20.616  0.00  0.00    +0.000 HD
ENDBRANCH  20  21
ENDBRANCH  19  20
ENDBRANCH  18  19
ENDBRANCH   2  18
TORSDOF 4
ENDMDL
MODEL 5
REMARK VINA RESULT:      -8.1      2.772      3.824
REMARK  Name = 
REMARK  4 active torsions:
REMARK  status: ('A' for Active; 'I' for Inactive)
REMARK    1  A    between atoms: C_2  and  C_3
REMARK    2  A    between atoms: C_3  and  C_4
REMARK    3  A    between atoms: C_4  and  C_5
REMARK    4  A    between atoms: C_5  and  C_6
REMARK                            x       y       z     vdW  Elec       q    Type
REMARK                         _______ _______ _______ _____ _____    ______ ____
ROOT
ATOM      1  O   UNL     1       2.196   9.067  17.317  0.00  0.00    +0.000 OA
ATOM      2  C   UNL     1       1.432   9.391  18.233  0.00  0.00    +0.000 C 
ATOM      3  N   UNL     1       0.627  10.472  18.047  0.00  0.00    +0.000 N 
ATOM      4  C   UNL     1      -0.190  11.032  18.981  0.00  0.00    +0.000 A 
ATOM      5  N   UNL     1      -0.189  10.850  20.273  0.00  0.00    +0.000 NA
ATOM      6  C   UNL     1      -1.232  11.545  20.846  0.00  0.00    +0.000 A 
ATOM      7  C   UNL     1      -1.545  11.570  22.218  0.00  0.00    +0.000 A 
ATOM      8  C   UNL     1      -2.680  12.258  22.640  0.00  0.00    +0.000 A 
ATOM      9  C   UNL     1      -3.485  12.933  21.721  0.00  0.00    +0.000 A 
ATOM     10  C   UNL     1      -3.181  12.933  20.355  0.00  0.00    +0.000 A 
ATOM     11  C   UNL     1      -2.035  12.246  19.944  0.00  0.00    +0.000 A 
ATOM     12  S   UNL     1      -1.356  12.102  18.361  0.00  0.00    +0.000 S 
ATOM     13  O   UNL     1      -4.613  13.628  22.081  0.00  0.00    +0.000 OA
ATOM     14  C   UNL     1      -4.624  13.905  23.485  0.00  0.00    +0.000 C 
ATOM     15  C   UNL     1      -4.271  12.660  24.282  0.00  0.00    +0.000 C 
ATOM     16  O   UNL     1      -2.937  12.231  23.989  0.00  0.00    +0.000 OA
ATOM     17  H   UNL     1       0.643  10.885  17.126  0.00  0.00    +0.000 HD
ENDROOT
BRANCH   2  18
ATOM     18  C   UNL     1       1.299   8.535  19.488  0.00  0.00    +0.000 C 
BRANCH  18  19
ATOM     19  C   UNL     1       2.499   7.627  19.707  0.00  0.00    +0.000 C 
BRANCH  19  20
ATOM     20  C   UNL     1       2.082   6.160  19.606  0.00  0.00    +0.000 C 
BRANCH  20  21
ATOM     21  C   UNL     1       2.942   5.462  18.597  0.00  0.00    +0.000 A 
ATOM     22  N   UNL     1       3.646   6.147  17.759  0.00  0.00    +0.000 NA
ATOM     23  C   UNL     1       4.461   5.438  16.865  0.00  0.00    +0.000 A 
ATOM     24  C   UNL     1       5.234   6.157  15.951  0.00  0.00    +0.000 A 
ATOM     25  C   UNL     1       6.065   5.485  15.049  0.00  0.00    +0.000 A 
ATOM     26  C   UNL     1       6.128   4.091  15.054  0.00  0.00    +0.000 A 
ATOM     27  C   UNL     1       5.360   3.362  15.962  0.00  0.00    +0.000 A 
ATOM     28  C   UNL     1       4.533   4.043  16.859  0.00  0.00    +0.000 A 
ATOM     29  C   UNL     1       3.708   3.312  17.837  0.00  0.00    +0.000 A 
ATOM     30  O   UNL     1       3.699   2.090  17.902  0.00  0.00    +0.000 OA
ATOM     31  N   UNL     1       2.953   4.097  18.668  0.00  0.00    +0.000 N 
ATOM     32  H   UNL     1       2.387   3.608  19.350  0.00  0.00    +0.000 HD
ENDBRANCH  20  21
ENDBRANCH  19  20
ENDBRANCH  18  19
ENDBRANCH   2  18
TORSDOF 4
ENDMDL
MODEL 6
REMARK VINA RESULT:      -8.1      1.278      1.898
REMARK  Name = 
REMARK  4 active torsions:
REMARK  status: ('A' for Active; 'I' for Inactive)
REMARK    1  A    between atoms: C_2  and  C_3
REMARK    2  A    between atoms: C_3  and  C_4
REMARK    3  A    between atoms: C_4  and  C_5
REMARK    4  A    between atoms: C_5  and  C_6
REMARK                            x       y       z     vdW  Elec       q    Type
REMARK                         _______ _______ _______ _____ _____    ______ ____
ROOT
ATOM      1  O   UNL     1       1.718   9.235  17.504  0.00  0.00    +0.000 OA
ATOM      2  C   UNL     1       0.808   9.773  18.143  0.00  0.00    +0.000 C 
ATOM      3  N   UNL     1      -0.346  10.075  17.488  0.00  0.00    +0.000 N 
ATOM      4  C   UNL     1      -1.402  10.764  18.003  0.00  0.00    +0.000 A 
ATOM      5  N   UNL     1      -1.445  11.492  19.085  0.00  0.00    +0.000 NA
ATOM      6  C   UNL     1      -2.729  11.952  19.291  0.00  0.00    +0.000 A 
ATOM      7  C   UNL     1      -3.149  12.756  20.365  0.00  0.00    +0.000 A 
ATOM      8  C   UNL     1      -4.499  13.078  20.482  0.00  0.00    +0.000 A 
ATOM      9  C   UNL     1      -5.421  12.629  19.536  0.00  0.00    +0.000 A 
ATOM     10  C   UNL     1      -5.020  11.841  18.451  0.00  0.00    +0.000 A 
ATOM     11  C   UNL     1      -3.661  11.532  18.339  0.00  0.00    +0.000 A 
ATOM     12  S   UNL     1      -2.841  10.642  17.106  0.00  0.00    +0.000 S 
ATOM     13  O   UNL     1      -6.762  12.917  19.600  0.00  0.00    +0.000 OA
ATOM     14  C   UNL     1      -7.013  14.019  20.478  0.00  0.00    +0.000 C 
ATOM     15  C   UNL     1      -6.259  13.847  21.786  0.00  0.00    +0.000 C 
ATOM     16  O   UNL     1      -4.845  13.853  21.562  0.00  0.00    +0.000 OA
ATOM     17  H   UNL     1      -0.415   9.748  16.536  0.00  0.00    +0.000 HD
ENDROOT
BRANCH   2  18
ATOM     18  C   UNL     1       0.920   9.984  19.649  0.00  0.00    +0.000 C 
BRANCH  18  19
ATOM     19  C   UNL     1       0.508   8.755  20.445  0.00  0.00    +0.000 C 
BRANCH  19  20
ATOM     20  C   UNL     1       1.740   8.058  21.023  0.00  0.00    +0.000 C 
BRANCH  20  21
ATOM     21  C   UNL     1       1.963   6.761  20.306  0.00  0.00    +0.000 A 
ATOM     22  N   UNL     1       2.741   6.713  19.276  0.00  0.00    +0.000 NA
ATOM     23  C   UNL     1       2.942   5.464  18.672  0.00  0.00    +0.000 A 
ATOM     24  C   UNL     1       3.780   5.387  17.558  0.00  0.00    +0.000 A 
ATOM     25  C   UNL     1       4.011   4.157  16.934  0.00  0.00    +0.000 A 
ATOM     26  C   UNL     1       3.405   2.997  17.418  0.00  0.00    +0.000 A 
ATOM     27  C   UNL     1       2.565   3.062  18.530  0.00  0.00    +0.000 A 
ATOM     28  C   UNL     1       2.340   4.295  19.146  0.00  0.00    +0.000 A 
ATOM     29  C   UNL     1       1.464   4.407  20.324  0.00  0.00    +0.000 A 
ATOM     30  O   UNL     1       0.888   3.441  20.807  0.00  0.00    +0.000 OA
ATOM     31  N   UNL     1       1.339   5.669  20.843  0.00  0.00    +0.000 N 
ATOM     32  H   UNL     1       0.745   5.760  21.657  0.00  0.00    +0.000 HD
ENDBRANCH  20  21
ENDBRANCH  19  20
ENDBRANCH  18  19
ENDBRANCH   2  18
TORSDOF 4
ENDMDL
MODEL 7
REMARK VINA RESULT:      -8.0      2.522     10.278
REMARK  Name = 
REMARK  4 active torsions:
REMARK  status: ('A' for Active; 'I' for Inactive)
REMARK    1  A    between atoms: C_2  and  C_3
REMARK    2  A    between atoms: C_3  and  C_4
REMARK    3  A    between atoms: C_4  and  C_5
REMARK    4  A    between atoms: C_5  and  C_6
REMARK                            x       y       z     vdW  Elec       q    Type
REMARK                         _______ _______ _______ _____ _____    ______ ____
ROOT
ATOM      1  O   UNL     1      -0.036   8.973  22.111  0.00  0.00    +0.000 OA
ATOM      2  C   UNL     1       0.625   8.611  21.132  0.00  0.00    +0.000 C 
ATOM      3  N   UNL     1       1.205   7.380  21.167  0.00  0.00    +0.000 N 
ATOM      4  C   UNL     1       2.052   6.867  20.232  0.00  0.00    +0.000 A 
ATOM      5  N   UNL     1       2.689   7.497  19.284  0.00  0.00    +0.000 NA
ATOM      6  C   UNL     1       3.382   6.595  18.505  0.00  0.00    +0.000 A 
ATOM      7  C   UNL     1       4.171   6.915  17.385  0.00  0.00    +0.000 A 
ATOM      8  C   UNL     1       4.750   5.885  16.648  0.00  0.00    +0.000 A 
ATOM      9  C   UNL     1       4.572   4.553  17.027  0.00  0.00    +0.000 A 
ATOM     10  C   UNL     1       3.805   4.216  18.147  0.00  0.00    +0.000 A 
ATOM     11  C   UNL     1       3.235   5.259  18.884  0.00  0.00    +0.000 A 
ATOM     12  S   UNL     1       2.295   5.188  20.332  0.00  0.00    +0.000 S 
ATOM     13  O   UNL     1       5.121   3.499  16.340  0.00  0.00    +0.000 OA
ATOM     14  C   UNL     1       6.181   3.935  15.483  0.00  0.00    +0.000 C 
ATOM     15  C   UNL     1       5.759   5.159  14.687  0.00  0.00    +0.000 C 
ATOM     16  O   UNL     1       5.494   6.264  15.558  0.00  0.00    +0.000 OA
ATOM     17  H   UNL     1       0.973   6.802  21.961  0.00  0.00    +0.000 HD
ENDROOT
BRANCH   2  18
ATOM     18  C   UNL     1       0.693   9.461  19.869  0.00  0.00    +0.000 C 
BRANCH  18  19
ATOM     19  C   UNL     1      -0.147  10.726  19.968  0.00  0.00    +0.000 C 
BRANCH  19  20
ATOM     20  C   UNL     1      -0.875  10.986  18.650  0.00  0.00    +0.000 C 
BRANCH  20  21
ATOM     21  C   UNL     1      -2.257  11.494  18.932  0.00  0.00    +0.000 A 
ATOM     22  N   UNL     1      -3.243  11.148  18.174  0.00  0.00    +0.000 NA
ATOM     23  C   UNL     1      -4.518  11.623  18.511  0.00  0.00    +0.000 A 
ATOM     24  C   UNL     1      -5.601  11.261  17.707  0.00  0.00    +0.000 A 
ATOM     25  C   UNL     1      -6.889  11.709  18.017  0.00  0.00    +0.000 A 
ATOM     26  C   UNL     1      -7.103  12.522  19.132  0.00  0.00    +0.000 A 
ATOM     27  C   UNL     1      -6.029  12.891  19.941  0.00  0.00    +0.000 A 
ATOM     28  C   UNL     1      -4.746  12.439  19.623  0.00  0.00    +0.000 A 
ATOM     29  C   UNL     1      -3.585  12.801  20.453  0.00  0.00    +0.000 A 
ATOM     30  O   UNL     1      -3.684  13.516  21.442  0.00  0.00    +0.000 OA
ATOM     31  N   UNL     1      -2.386  12.281  20.042  0.00  0.00    +0.000 N 
ATOM     32  H   UNL     1      -1.580  12.517  20.607  0.00  0.00    +0.000 HD
ENDBRANCH  20  21
ENDBRANCH  19  20
ENDBRANCH  18  19
ENDBRANCH   2  18
TORSDOF 4
ENDMDL
MODEL 8
REMARK VINA RESULT:      -8.0      3.250     10.374
REMARK  Name = 
REMARK  4 active torsions:
REMARK  status: ('A' for Active; 'I' for Inactive)
REMARK    1  A    between atoms: C_2  and  C_3
REMARK    2  A    between atoms: C_3  and  C_4
REMARK    3  A    between atoms: C_4  and  C_5
REMARK    4  A    between atoms: C_5  and  C_6
REMARK                            x       y       z     vdW  Elec       q    Type
REMARK                         _______ _______ _______ _____ _____    ______ ____
ROOT
ATOM      1  O   UNL     1       0.360   8.961  21.710  0.00  0.00    +0.000 OA
ATOM      2  C   UNL     1       0.999   8.569  20.727  0.00  0.00    +0.000 C 
ATOM      3  N   UNL     1       1.610   7.356  20.800  0.00  0.00    +0.000 N 
ATOM      4  C   UNL     1       2.441   6.821  19.862  0.00  0.00    +0.000 A 
ATOM      5  N   UNL     1       3.031   7.420  18.866  0.00  0.00    +0.000 NA
ATOM      6  C   UNL     1       3.722   6.499  18.107  0.00  0.00    +0.000 A 
ATOM      7  C   UNL     1       4.467   6.785  16.948  0.00  0.00    +0.000 A 
ATOM      8  C   UNL     1       5.049   5.736  16.241  0.00  0.00    +0.000 A 
ATOM      9  C   UNL     1       4.916   4.420  16.687  0.00  0.00    +0.000 A 
ATOM     10  C   UNL     1       4.193   4.117  17.846  0.00  0.00    +0.000 A 
ATOM     11  C   UNL     1       3.621   5.179  18.552  0.00  0.00    +0.000 A 
ATOM     12  S   UNL     1       2.728   5.154  20.031  0.00  0.00    +0.000 S 
ATOM     13  O   UNL     1       5.469   3.347  16.031  0.00  0.00    +0.000 OA
ATOM     14  C   UNL     1       6.490   3.768  15.121  0.00  0.00    +0.000 C 
ATOM     15  C   UNL     1       6.013   4.943  14.284  0.00  0.00    +0.000 C 
ATOM     16  O   UNL     1       5.748   6.082  15.111  0.00  0.00    +0.000 OA
ATOM     17  H   UNL     1       1.418   6.810  21.627  0.00  0.00    +0.000 HD
ENDROOT
BRANCH   2  18
ATOM     18  C   UNL     1       1.006   9.362  19.424  0.00  0.00    +0.000 C 
BRANCH  18  19
ATOM     19  C   UNL     1       0.869  10.860  19.649  0.00  0.00    +0.000 C 
BRANCH  19  20
ATOM     20  C   UNL     1      -0.420  11.378  19.011  0.00  0.00    +0.000 C 
BRANCH  20  21
ATOM     21  C   UNL     1      -1.369  11.819  20.084  0.00  0.00    +0.000 A 
ATOM     22  N   UNL     1      -2.531  12.288  19.771  0.00  0.00    +0.000 NA
ATOM     23  C   UNL     1      -3.390  12.647  20.820  0.00  0.00    +0.000 A 
ATOM     24  C   UNL     1      -4.652  13.155  20.507  0.00  0.00    +0.000 A 
ATOM     25  C   UNL     1      -5.539  13.515  21.526  0.00  0.00    +0.000 A 
ATOM     26  C   UNL     1      -5.169  13.372  22.864  0.00  0.00    +0.000 A 
ATOM     27  C   UNL     1      -3.911  12.867  23.189  0.00  0.00    +0.000 A 
ATOM     28  C   UNL     1      -3.032  12.509  22.164  0.00  0.00    +0.000 A 
ATOM     29  C   UNL     1      -1.695  11.968  22.463  0.00  0.00    +0.000 A 
ATOM     30  O   UNL     1      -1.290  11.818  23.608  0.00  0.00    +0.000 OA
ATOM     31  N   UNL     1      -0.937  11.643  21.369  0.00  0.00    +0.000 N 
ATOM     32  H   UNL     1      -0.018  11.264  21.559  0.00  0.00    +0.000 HD
ENDBRANCH  20  21
ENDBRANCH  19  20
ENDBRANCH  18  19
ENDBRANCH   2  18
TORSDOF 4
ENDMDL
MODEL 9
REMARK VINA RESULT:      -8.0      2.739      3.823
REMARK  Name = 
REMARK  4 active torsions:
REMARK  status: ('A' for Active; 'I' for Inactive)
REMARK    1  A    between atoms: C_2  and  C_3
REMARK    2  A    between atoms: C_3  and  C_4
REMARK    3  A    between atoms: C_4  and  C_5
REMARK    4  A    between atoms: C_5  and  C_6
REMARK                            x       y       z     vdW  Elec       q    Type
REMARK                         _______ _______ _______ _____ _____    ______ ____
ROOT
ATOM      1  O   UNL     1       2.712   7.687  18.165  0.00  0.00    +0.000 OA
ATOM      2  C   UNL     1       1.962   8.259  18.963  0.00  0.00    +0.000 C 
ATOM      3  N   UNL     1       1.172   9.264  18.497  0.00  0.00    +0.000 N 
ATOM      4  C   UNL     1       0.374  10.070  19.250  0.00  0.00    +0.000 A 
ATOM      5  N   UNL     1       0.386  10.243  20.543  0.00  0.00    +0.000 NA
ATOM      6  C   UNL     1      -0.640  11.085  20.914  0.00  0.00    +0.000 A 
ATOM      7  C   UNL     1      -0.938  11.485  22.229  0.00  0.00    +0.000 A 
ATOM      8  C   UNL     1      -2.058  12.281  22.457  0.00  0.00    +0.000 A 
ATOM      9  C   UNL     1      -2.863  12.696  21.395  0.00  0.00    +0.000 A 
ATOM     10  C   UNL     1      -2.574  12.323  20.079  0.00  0.00    +0.000 A 
ATOM     11  C   UNL     1      -1.442  11.531  19.861  0.00  0.00    +0.000 A 
ATOM     12  S   UNL     1      -0.783  10.953  18.372  0.00  0.00    +0.000 S 
ATOM     13  O   UNL     1      -3.977  13.482  21.561  0.00  0.00    +0.000 OA
ATOM     14  C   UNL     1      -3.968  14.129  22.838  0.00  0.00    +0.000 C 
ATOM     15  C   UNL     1      -3.625  13.139  23.940  0.00  0.00    +0.000 C 
ATOM     16  O   UNL     1      -2.301  12.624  23.765  0.00  0.00    +0.000 OA
ATOM     17  H   UNL     1       1.184   9.412  17.498  0.00  0.00    +0.000 HD
ENDROOT
BRANCH   2  18
ATOM     18  C   UNL     1       1.830   7.777  20.404  0.00  0.00    +0.000 C 
BRANCH  18  19
ATOM     19  C   UNL     1       1.289   6.358  20.499  0.00  0.00    +0.000 C 
BRANCH  19  20
ATOM     20  C   UNL     1       2.409   5.386  20.872  0.00  0.00    +0.000 C 
BRANCH  20  21
ATOM     21  C   UNL     1       3.193   5.030  19.646  0.00  0.00    +0.000 A 
ATOM     22  N   UNL     1       4.456   5.293  19.583  0.00  0.00    +0.000 NA
ATOM     23  C   UNL     1       5.144   4.900  18.426  0.00  0.00    +0.000 A 
ATOM     24  C   UNL     1       6.510   5.172  18.335  0.00  0.00    +0.000 A 
ATOM     25  C   UNL     1       7.231   4.788  17.200  0.00  0.00    +0.000 A 
ATOM     26  C   UNL     1       6.591   4.131  16.148  0.00  0.00    +0.000 A 
ATOM     27  C   UNL     1       5.226   3.855  16.227  0.00  0.00    +0.000 A 
ATOM     28  C   UNL     1       4.514   4.243  17.365  0.00  0.00    +0.000 A 
ATOM     29  C   UNL     1       3.073   3.967  17.491  0.00  0.00    +0.000 A 
ATOM     30  O   UNL     1       2.435   3.403  16.612  0.00  0.00    +0.000 OA
ATOM     31  N   UNL     1       2.497   4.385  18.662  0.00  0.00    +0.000 N 
ATOM     32  H   UNL     1       1.508   4.196  18.765  0.00  0.00    +0.000 HD
ENDBRANCH  20  21
ENDBRANCH  19  20
ENDBRANCH  18  19
ENDBRANCH   2  18
TORSDOF 4
ENDMDL
