MODEL 1
REMARK VINA RESULT:      -9.0      0.000      0.000
REMARK  Name = 
REMARK  4 active torsions:
REMARK  status: ('A' for Active; 'I' for Inactive)
REMARK    1  A    between atoms: C_1  and  C_2
REMARK    2  A    between atoms: C_7  and  C_8
REMARK    3  A    between atoms: C_16  and  C_17
REMARK    4  A    between atoms: N_19  and  C_20
REMARK                            x       y       z     vdW  Elec       q    Type
REMARK                         _______ _______ _______ _____ _____    ______ ____
ROOT
ATOM      1  C   UNL     1       4.119   1.945  19.720  0.00  0.00    +0.000 C 
ATOM      2  C   UNL     1       3.103   2.912  20.208  0.00  0.00    +0.000 A 
ATOM      3  N   UNL     1       2.143   2.478  21.037  0.00  0.00    +0.000 NA
ATOM      4  O   UNL     1       1.380   3.591  21.352  0.00  0.00    +0.000 OA
ATOM      5  C   UNL     1       1.882   4.685  20.720  0.00  0.00    +0.000 A 
ATOM      6  N   UNL     1       1.363   5.912  20.859  0.00  0.00    +0.000 NA
ATOM      7  C   UNL     1       2.000   6.883  20.164  0.00  0.00    +0.000 A 
ATOM      8  C   UNL     1       3.098   6.632  19.341  0.00  0.00    +0.000 A 
ATOM      9  C   UNL     1       3.612   5.334  19.240  0.00  0.00    +0.000 A 
ATOM     10  C   UNL     1       2.982   4.309  19.962  0.00  0.00    +0.000 A 
ENDROOT
BRANCH   7  11
ATOM     11  C   UNL     1       1.449   8.240  20.351  0.00  0.00    +0.000 A 
ATOM     12  C   UNL     1       1.160   8.736  21.637  0.00  0.00    +0.000 A 
ATOM     13  C   UNL     1       0.677  10.035  21.826  0.00  0.00    +0.000 A 
ATOM     14  C   UNL     1       0.469  10.873  20.733  0.00  0.00    +0.000 A 
ATOM     15  C   UNL     1       0.743  10.407  19.450  0.00  0.00    +0.000 A 
ATOM     16  C   UNL     1       1.228   9.112  19.269  0.00  0.00    +0.000 A 
ATOM     17  F   UNL     1       1.504   8.723  18.017  0.00  0.00    +0.000 F 
ENDBRANCH   7  11
BRANCH   9  18
ATOM     18  C   UNL     1       4.738   5.061  18.331  0.00  0.00    +0.000 C 
ATOM     19  O   UNL     1       5.844   4.869  18.817  0.00  0.00    +0.000 OA
ATOM     20  N   UNL     1       4.451   5.111  16.973  0.00  0.00    +0.000 N 
ATOM     21  H   UNL     1       3.609   5.596  16.686  0.00  0.00    +0.000 HD
BRANCH  20  22
ATOM     22  C   UNL     1       5.471   4.963  16.009  0.00  0.00    +0.000 A 
ATOM     23  C   UNL     1       5.275   4.088  14.944  0.00  0.00    +0.000 A 
ATOM     24  C   UNL     1       6.211   4.057  13.910  0.00  0.00    +0.000 A 
ATOM     25  C   UNL     1       7.345   4.847  14.016  0.00  0.00    +0.000 A 
ATOM     26  N   UNL     1       7.606   5.643  15.071  0.00  0.00    +0.000 NA
ATOM     27  C   UNL     1       6.656   5.698  16.036  0.00  0.00    +0.000 A 
ENDBRANCH  20  22
ENDBRANCH   9  18
TORSDOF 3
ENDMDL
MODEL 2
REMARK VINA RESULT:      -8.7      0.932      1.323
REMARK  Name = 
REMARK  4 active torsions:
REMARK  status: ('A' for Active; 'I' for Inactive)
REMARK    1  A    between atoms: C_1  and  C_2
REMARK    2  A    between atoms: C_7  and  C_8
REMARK    3  A    between atoms: C_16  and  C_17
REMARK    4  A    between atoms: N_19  and  C_20
REMARK                            x       y       z     vdW  Elec       q    Type
REMARK                         _______ _______ _______ _____ _____    ______ ____
ROOT
ATOM      1  C   UNL     1       4.306   2.057  19.879  0.00  0.00    +0.000 C 
ATOM      2  C   UNL     1       3.305   3.070  20.302  0.00  0.00    +0.000 A 
ATOM      3  N   UNL     1       2.397   2.734  21.230  0.00  0.00    +0.000 NA
ATOM      4  O   UNL     1       1.639   3.872  21.450  0.00  0.00    +0.000 OA
ATOM      5  C   UNL     1       2.091   4.884  20.663  0.00  0.00    +0.000 A 
ATOM      6  N   UNL     1       1.564   6.116  20.681  0.00  0.00    +0.000 NA
ATOM      7  C   UNL     1       2.150   6.999  19.840  0.00  0.00    +0.000 A 
ATOM      8  C   UNL     1       3.205   6.657  18.994  0.00  0.00    +0.000 A 
ATOM      9  C   UNL     1       3.728   5.360  19.022  0.00  0.00    +0.000 A 
ATOM     10  C   UNL     1       3.153   4.426  19.896  0.00  0.00    +0.000 A 
ENDROOT
BRANCH   7  11
ATOM     11  C   UNL     1       1.592   8.365  19.892  0.00  0.00    +0.000 A 
ATOM     12  C   UNL     1       1.373   9.105  18.713  0.00  0.00    +0.000 A 
ATOM     13  C   UNL     1       0.807  10.383  18.748  0.00  0.00    +0.000 A 
ATOM     14  C   UNL     1       0.445  10.957  19.965  0.00  0.00    +0.000 A 
ATOM     15  C   UNL     1       0.654  10.250  21.146  0.00  0.00    +0.000 A 
ATOM     16  C   UNL     1       1.216   8.974  21.102  0.00  0.00    +0.000 A 
ATOM     17  F   UNL     1       1.368   8.324  22.265  0.00  0.00    +0.000 F 
ENDBRANCH   7  11
BRANCH   9  18
ATOM     18  C   UNL     1       4.807   4.986  18.091  0.00  0.00    +0.000 C 
ATOM     19  O   UNL     1       5.864   4.584  18.558  0.00  0.00    +0.000 OA
ATOM     20  N   UNL     1       4.546   5.188  16.743  0.00  0.00    +0.000 N 
ATOM     21  H   UNL     1       3.794   5.821  16.498  0.00  0.00    +0.000 HD
BRANCH  20  22
ATOM     22  C   UNL     1       5.540   4.958  15.767  0.00  0.00    +0.000 A 
ATOM     23  C   UNL     1       5.297   4.031  14.757  0.00  0.00    +0.000 A 
ATOM     24  C   UNL     1       6.208   3.917  13.707  0.00  0.00    +0.000 A 
ATOM     25  C   UNL     1       7.366   4.679  13.746  0.00  0.00    +0.000 A 
ATOM     26  N   UNL     1       7.671   5.525  14.749  0.00  0.00    +0.000 NA
ATOM     27  C   UNL     1       6.744   5.660  15.728  0.00  0.00    +0.000 A 
ENDBRANCH  20  22
ENDBRANCH   9  18
TORSDOF 3
ENDMDL
MODEL 3
REMARK VINA RESULT:      -8.0      2.287      6.974
REMARK  Name = 
REMARK  4 active torsions:
REMARK  status: ('A' for Active; 'I' for Inactive)
REMARK    1  A    between atoms: C_1  and  C_2
REMARK    2  A    between atoms: C_7  and  C_8
REMARK    3  A    between atoms: C_16  and  C_17
REMARK    4  A    between atoms: N_19  and  C_20
REMARK                            x       y       z     vdW  Elec       q    Type
REMARK                         _______ _______ _______ _____ _____    ______ ____
ROOT
ATOM      1  C   UNL     1       1.058   3.896  20.428  0.00  0.00    +0.000 C 
ATOM      2  C   UNL     1       1.954   3.311  19.398  0.00  0.00    +0.000 A 
ATOM      3  N   UNL     1       1.953   1.983  19.219  0.00  0.00    +0.000 NA
ATOM      4  O   UNL     1       2.838   1.738  18.182  0.00  0.00    +0.000 OA
ATOM      5  C   UNL     1       3.363   2.911  17.741  0.00  0.00    +0.000 A 
ATOM      6  N   UNL     1       4.233   2.986  16.724  0.00  0.00    +0.000 NA
ATOM      7  C   UNL     1       4.640   4.239  16.413  0.00  0.00    +0.000 A 
ATOM      8  C   UNL     1       4.214   5.370  17.109  0.00  0.00    +0.000 A 
ATOM      9  C   UNL     1       3.295   5.240  18.156  0.00  0.00    +0.000 A 
ATOM     10  C   UNL     1       2.841   3.956  18.490  0.00  0.00    +0.000 A 
ENDROOT
BRANCH   7  11
ATOM     11  C   UNL     1       5.568   4.321  15.267  0.00  0.00    +0.000 A 
ATOM     12  C   UNL     1       5.257   3.711  14.036  0.00  0.00    +0.000 A 
ATOM     13  C   UNL     1       6.110   3.819  12.933  0.00  0.00    +0.000 A 
ATOM     14  C   UNL     1       7.298   4.539  13.033  0.00  0.00    +0.000 A 
ATOM     15  C   UNL     1       7.633   5.148  14.239  0.00  0.00    +0.000 A 
ATOM     16  C   UNL     1       6.775   5.039  15.334  0.00  0.00    +0.000 A 
ATOM     17  F   UNL     1       7.129   5.670  16.462  0.00  0.00    +0.000 F 
ENDBRANCH   7  11
BRANCH   9  18
ATOM     18  C   UNL     1       2.886   6.429  18.923  0.00  0.00    +0.000 C 
ATOM     19  O   UNL     1       3.035   6.416  20.138  0.00  0.00    +0.000 OA
ATOM     20  N   UNL     1       2.300   7.454  18.193  0.00  0.00    +0.000 N 
ATOM     21  H   UNL     1       1.929   7.228  17.277  0.00  0.00    +0.000 HD
BRANCH  20  22
ATOM     22  C   UNL     1       1.781   8.599  18.835  0.00  0.00    +0.000 A 
ATOM     23  C   UNL     1       1.672   9.787  18.118  0.00  0.00    +0.000 A 
ATOM     24  C   UNL     1       1.017  10.873  18.699  0.00  0.00    +0.000 A 
ATOM     25  C   UNL     1       0.562  10.755  20.003  0.00  0.00    +0.000 A 
ATOM     26  N   UNL     1       0.723   9.648  20.754  0.00  0.00    +0.000 NA
ATOM     27  C   UNL     1       1.312   8.588  20.149  0.00  0.00    +0.000 A 
ENDBRANCH  20  22
ENDBRANCH   9  18
TORSDOF 3
ENDMDL
MODEL 4
REMARK VINA RESULT:      -7.9      2.533      6.946
REMARK  Name = 
REMARK  4 active torsions:
REMARK  status: ('A' for Active; 'I' for Inactive)
REMARK    1  A    between atoms: C_1  and  C_2
REMARK    2  A    between atoms: C_7  and  C_8
REMARK    3  A    between atoms: C_16  and  C_17
REMARK    4  A    between atoms: N_19  and  C_20
REMARK                            x       y       z     vdW  Elec       q    Type
REMARK                         _______ _______ _______ _____ _____    ______ ____
ROOT
ATOM      1  C   UNL     1       1.037   4.799  20.442  0.00  0.00    +0.000 C 
ATOM      2  C   UNL     1       2.022   4.112  19.568  0.00  0.00    +0.000 A 
ATOM      3  N   UNL     1       2.158   2.782  19.668  0.00  0.00    +0.000 NA
ATOM      4  O   UNL     1       3.100   2.424  18.717  0.00  0.00    +0.000 OA
ATOM      5  C   UNL     1       3.521   3.530  18.049  0.00  0.00    +0.000 A 
ATOM      6  N   UNL     1       4.414   3.486  17.051  0.00  0.00    +0.000 NA
ATOM      7  C   UNL     1       4.706   4.683  16.493  0.00  0.00    +0.000 A 
ATOM      8  C   UNL     1       4.146   5.883  16.933  0.00  0.00    +0.000 A 
ATOM      9  C   UNL     1       3.208   5.875  17.971  0.00  0.00    +0.000 A 
ATOM     10  C   UNL     1       2.872   4.646  18.558  0.00  0.00    +0.000 A 
ENDROOT
BRANCH   7  11
ATOM     11  C   UNL     1       5.661   4.625  15.368  0.00  0.00    +0.000 A 
ATOM     12  C   UNL     1       5.315   4.000  14.154  0.00  0.00    +0.000 A 
ATOM     13  C   UNL     1       6.197   3.977  13.069  0.00  0.00    +0.000 A 
ATOM     14  C   UNL     1       7.450   4.577  13.170  0.00  0.00    +0.000 A 
ATOM     15  C   UNL     1       7.819   5.198  14.360  0.00  0.00    +0.000 A 
ATOM     16  C   UNL     1       6.933   5.221  15.436  0.00  0.00    +0.000 A 
ATOM     17  F   UNL     1       7.325   5.858  16.549  0.00  0.00    +0.000 F 
ENDBRANCH   7  11
BRANCH   9  18
ATOM     18  C   UNL     1       2.657   7.147  18.470  0.00  0.00    +0.000 C 
ATOM     19  O   UNL     1       2.626   7.333  19.679  0.00  0.00    +0.000 OA
ATOM     20  N   UNL     1       2.153   8.011  17.507  0.00  0.00    +0.000 N 
ATOM     21  H   UNL     1       1.927   7.625  16.598  0.00  0.00    +0.000 HD
BRANCH  20  22
ATOM     22  C   UNL     1       1.513   9.214  17.875  0.00  0.00    +0.000 A 
ATOM     23  C   UNL     1       0.124   9.241  17.969  0.00  0.00    +0.000 A 
ATOM     24  C   UNL     1      -0.500  10.379  18.482  0.00  0.00    +0.000 A 
ATOM     25  C   UNL     1       0.283  11.475  18.810  0.00  0.00    +0.000 A 
ATOM     26  N   UNL     1       1.621  11.512  18.655  0.00  0.00    +0.000 NA
ATOM     27  C   UNL     1       2.209  10.376  18.208  0.00  0.00    +0.000 A 
ENDBRANCH  20  22
ENDBRANCH   9  18
TORSDOF 3
ENDMDL
MODEL 5
REMARK VINA RESULT:      -7.8      1.087      1.150
REMARK  Name = 
REMARK  4 active torsions:
REMARK  status: ('A' for Active; 'I' for Inactive)
REMARK    1  A    between atoms: C_1  and  C_2
REMARK    2  A    between atoms: C_7  and  C_8
REMARK    3  A    between atoms: C_16  and  C_17
REMARK    4  A    between atoms: N_19  and  C_20
REMARK                            x       y       z     vdW  Elec       q    Type
REMARK                         _______ _______ _______ _____ _____    ______ ____
ROOT
ATOM      1  C   UNL     1       4.134   2.950  18.894  0.00  0.00    +0.000 C 
ATOM      2  C   UNL     1       3.168   3.705  19.733  0.00  0.00    +0.000 A 
ATOM      3  N   UNL     1       2.536   3.064  20.726  0.00  0.00    +0.000 NA
ATOM      4  O   UNL     1       1.745   4.015  21.350  0.00  0.00    +0.000 OA
ATOM      5  C   UNL     1       1.906   5.218  20.738  0.00  0.00    +0.000 A 
ATOM      6  N   UNL     1       1.285   6.333  21.145  0.00  0.00    +0.000 NA
ATOM      7  C   UNL     1       1.574   7.442  20.425  0.00  0.00    +0.000 A 
ATOM      8  C   UNL     1       2.431   7.430  19.324  0.00  0.00    +0.000 A 
ATOM      9  C   UNL     1       3.067   6.242  18.948  0.00  0.00    +0.000 A 
ATOM     10  C   UNL     1       2.800   5.079  19.686  0.00  0.00    +0.000 A 
ENDROOT
BRANCH   7  11
ATOM     11  C   UNL     1       0.918   8.677  20.899  0.00  0.00    +0.000 A 
ATOM     12  C   UNL     1       0.589   8.847  22.258  0.00  0.00    +0.000 A 
ATOM     13  C   UNL     1       0.005  10.030  22.724  0.00  0.00    +0.000 A 
ATOM     14  C   UNL     1      -0.267  11.073  21.841  0.00  0.00    +0.000 A 
ATOM     15  C   UNL     1       0.044  10.929  20.492  0.00  0.00    +0.000 A 
ATOM     16  C   UNL     1       0.630   9.748  20.036  0.00  0.00    +0.000 A 
ATOM     17  F   UNL     1       0.937   9.673  18.733  0.00  0.00    +0.000 F 
ENDBRANCH   7  11
BRANCH   9  18
ATOM     18  C   UNL     1       3.931   6.219  17.755  0.00  0.00    +0.000 C 
ATOM     19  O   UNL     1       3.729   7.046  16.876  0.00  0.00    +0.000 OA
ATOM     20  N   UNL     1       4.874   5.202  17.705  0.00  0.00    +0.000 N 
ATOM     21  H   UNL     1       4.733   4.398  18.304  0.00  0.00    +0.000 HD
BRANCH  20  22
ATOM     22  C   UNL     1       5.690   5.023  16.567  0.00  0.00    +0.000 A 
ATOM     23  C   UNL     1       5.280   4.140  15.571  0.00  0.00    +0.000 A 
ATOM     24  C   UNL     1       6.002   4.079  14.379  0.00  0.00    +0.000 A 
ATOM     25  C   UNL     1       7.149   4.847  14.257  0.00  0.00    +0.000 A 
ATOM     26  N   UNL     1       7.620   5.649  15.231  0.00  0.00    +0.000 NA
ATOM     27  C   UNL     1       6.871   5.734  16.358  0.00  0.00    +0.000 A 
ENDBRANCH  20  22
ENDBRANCH   9  18
TORSDOF 3
ENDMDL
MODEL 6
REMARK VINA RESULT:      -7.8      1.438      1.811
REMARK  Name = 
REMARK  4 active torsions:
REMARK  status: ('A' for Active; 'I' for Inactive)
REMARK    1  A    between atoms: C_1  and  C_2
REMARK    2  A    between atoms: C_7  and  C_8
REMARK    3  A    between atoms: C_16  and  C_17
REMARK    4  A    between atoms: N_19  and  C_20
REMARK                            x       y       z     vdW  Elec       q    Type
REMARK                         _______ _______ _______ _____ _____    ______ ____
ROOT
ATOM      1  C   UNL     1       4.046   1.720  17.970  0.00  0.00    +0.000 C 
ATOM      2  C   UNL     1       3.086   2.711  18.519  0.00  0.00    +0.000 A 
ATOM      3  N   UNL     1       2.049   2.272  19.247  0.00  0.00    +0.000 NA
ATOM      4  O   UNL     1       1.363   3.405  19.655  0.00  0.00    +0.000 OA
ATOM      5  C   UNL     1       1.987   4.515  19.178  0.00  0.00    +0.000 A 
ATOM      6  N   UNL     1       1.563   5.759  19.436  0.00  0.00    +0.000 NA
ATOM      7  C   UNL     1       2.314   6.743  18.890  0.00  0.00    +0.000 A 
ATOM      8  C   UNL     1       3.433   6.491  18.095  0.00  0.00    +0.000 A 
ATOM      9  C   UNL     1       3.843   5.173  17.866  0.00  0.00    +0.000 A 
ATOM     10  C   UNL     1       3.093   4.132  18.433  0.00  0.00    +0.000 A 
ENDROOT
BRANCH   7  11
ATOM     11  C   UNL     1       1.866   8.113  19.209  0.00  0.00    +0.000 A 
ATOM     12  C   UNL     1       1.891   9.130  18.234  0.00  0.00    +0.000 A 
ATOM     13  C   UNL     1       1.430  10.420  18.514  0.00  0.00    +0.000 A 
ATOM     14  C   UNL     1       0.932  10.728  19.778  0.00  0.00    +0.000 A 
ATOM     15  C   UNL     1       0.899   9.744  20.761  0.00  0.00    +0.000 A 
ATOM     16  C   UNL     1       1.357   8.458  20.473  0.00  0.00    +0.000 A 
ATOM     17  F   UNL     1       1.276   7.539  21.446  0.00  0.00    +0.000 F 
ENDBRANCH   7  11
BRANCH   9  18
ATOM     18  C   UNL     1       4.993   4.908  16.985  0.00  0.00    +0.000 C 
ATOM     19  O   UNL     1       6.097   4.770  17.494  0.00  0.00    +0.000 OA
ATOM     20  N   UNL     1       4.727   4.900  15.622  0.00  0.00    +0.000 N 
ATOM     21  H   UNL     1       3.874   5.347  15.305  0.00  0.00    +0.000 HD
BRANCH  20  22
ATOM     22  C   UNL     1       5.767   4.754  14.679  0.00  0.00    +0.000 A 
ATOM     23  C   UNL     1       5.623   3.829  13.649  0.00  0.00    +0.000 A 
ATOM     24  C   UNL     1       6.575   3.793  12.630  0.00  0.00    +0.000 A 
ATOM     25  C   UNL     1       7.675   4.631  12.720  0.00  0.00    +0.000 A 
ATOM     26  N   UNL     1       7.888   5.480  13.744  0.00  0.00    +0.000 NA
ATOM     27  C   UNL     1       6.921   5.536  14.692  0.00  0.00    +0.000 A 
ENDBRANCH  20  22
ENDBRANCH   9  18
TORSDOF 3
ENDMDL
MODEL 7
REMARK VINA RESULT:      -7.7      4.449      8.713
REMARK  Name = 
REMARK  4 active torsions:
REMARK  status: ('A' for Active; 'I' for Inactive)
REMARK    1  A    between atoms: C_1  and  C_2
REMARK    2  A    between atoms: C_7  and  C_8
REMARK    3  A    between atoms: C_16  and  C_17
REMARK    4  A    between atoms: N_19  and  C_20
REMARK                            x       y       z     vdW  Elec       q    Type
REMARK                         _______ _______ _______ _____ _____    ______ ____
ROOT
ATOM      1  C   UNL     1      -1.857  11.749  22.432  0.00  0.00    +0.000 C 
ATOM      2  C   UNL     1      -0.714  10.806  22.337  0.00  0.00    +0.000 A 
ATOM      3  N   UNL     1      -0.097  10.422  23.463  0.00  0.00    +0.000 NA
ATOM      4  O   UNL     1       0.883   9.524  23.074  0.00  0.00    +0.000 OA
ATOM      5  C   UNL     1       0.851   9.368  21.724  0.00  0.00    +0.000 A 
ATOM      6  N   UNL     1       1.670   8.537  21.064  0.00  0.00    +0.000 NA
ATOM      7  C   UNL     1       1.487   8.499  19.724  0.00  0.00    +0.000 A 
ATOM      8  C   UNL     1       0.539   9.283  19.065  0.00  0.00    +0.000 A 
ATOM      9  C   UNL     1      -0.302  10.126  19.801  0.00  0.00    +0.000 A 
ATOM     10  C   UNL     1      -0.147  10.173  21.194  0.00  0.00    +0.000 A 
ENDROOT
BRANCH   7  11
ATOM     11  C   UNL     1       2.364   7.554  19.006  0.00  0.00    +0.000 A 
ATOM     12  C   UNL     1       3.103   7.964  17.879  0.00  0.00    +0.000 A 
ATOM     13  C   UNL     1       3.969   7.087  17.217  0.00  0.00    +0.000 A 
ATOM     14  C   UNL     1       4.117   5.776  17.664  0.00  0.00    +0.000 A 
ATOM     15  C   UNL     1       3.395   5.344  18.773  0.00  0.00    +0.000 A 
ATOM     16  C   UNL     1       2.537   6.225  19.430  0.00  0.00    +0.000 A 
ATOM     17  F   UNL     1       1.889   5.767  20.511  0.00  0.00    +0.000 F 
ENDBRANCH   7  11
BRANCH   9  18
ATOM     18  C   UNL     1      -1.266  10.991  19.100  0.00  0.00    +0.000 C 
ATOM     19  O   UNL     1      -0.941  12.145  18.854  0.00  0.00    +0.000 OA
ATOM     20  N   UNL     1      -2.506  10.428  18.831  0.00  0.00    +0.000 N 
ATOM     21  H   UNL     1      -2.777   9.608  19.362  0.00  0.00    +0.000 HD
BRANCH  20  22
ATOM     22  C   UNL     1      -3.542  11.193  18.252  0.00  0.00    +0.000 A 
ATOM     23  C   UNL     1      -3.733  11.142  16.874  0.00  0.00    +0.000 A 
ATOM     24  C   UNL     1      -4.848  11.770  16.320  0.00  0.00    +0.000 A 
ATOM     25  C   UNL     1      -5.689  12.490  17.155  0.00  0.00    +0.000 A 
ATOM     26  N   UNL     1      -5.488  12.628  18.480  0.00  0.00    +0.000 NA
ATOM     27  C   UNL     1      -4.430  11.963  19.003  0.00  0.00    +0.000 A 
ENDBRANCH  20  22
ENDBRANCH   9  18
TORSDOF 3
ENDMDL
MODEL 8
REMARK VINA RESULT:      -7.7      2.103      6.892
REMARK  Name = 
REMARK  4 active torsions:
REMARK  status: ('A' for Active; 'I' for Inactive)
REMARK    1  A    between atoms: C_1  and  C_2
REMARK    2  A    between atoms: C_7  and  C_8
REMARK    3  A    between atoms: C_16  and  C_17
REMARK    4  A    between atoms: N_19  and  C_20
REMARK                            x       y       z     vdW  Elec       q    Type
REMARK                         _______ _______ _______ _____ _____    ______ ____
ROOT
ATOM      1  C   UNL     1       2.074   3.308  22.047  0.00  0.00    +0.000 C 
ATOM      2  C   UNL     1       3.176   3.008  21.099  0.00  0.00    +0.000 A 
ATOM      3  N   UNL     1       3.930   1.919  21.308  0.00  0.00    +0.000 NA
ATOM      4  O   UNL     1       4.833   1.874  20.259  0.00  0.00    +0.000 OA
ATOM      5  C   UNL     1       4.620   2.926  19.425  0.00  0.00    +0.000 A 
ATOM      6  N   UNL     1       5.328   3.127  18.305  0.00  0.00    +0.000 NA
ATOM      7  C   UNL     1       4.968   4.219  17.591  0.00  0.00    +0.000 A 
ATOM      8  C   UNL     1       3.956   5.090  17.994  0.00  0.00    +0.000 A 
ATOM      9  C   UNL     1       3.236   4.829  19.165  0.00  0.00    +0.000 A 
ATOM     10  C   UNL     1       3.575   3.695  19.918  0.00  0.00    +0.000 A 
ENDROOT
BRANCH   7  11
ATOM     11  C   UNL     1       5.725   4.416  16.338  0.00  0.00    +0.000 A 
ATOM     12  C   UNL     1       5.227   3.946  15.108  0.00  0.00    +0.000 A 
ATOM     13  C   UNL     1       5.917   4.164  13.911  0.00  0.00    +0.000 A 
ATOM     14  C   UNL     1       7.125   4.857  13.913  0.00  0.00    +0.000 A 
ATOM     15  C   UNL     1       7.643   5.328  15.116  0.00  0.00    +0.000 A 
ATOM     16  C   UNL     1       6.947   5.110  16.306  0.00  0.00    +0.000 A 
ATOM     17  F   UNL     1       7.474   5.611  17.432  0.00  0.00    +0.000 F 
ENDBRANCH   7  11
BRANCH   9  18
ATOM     18  C   UNL     1       2.204   5.777  19.616  0.00  0.00    +0.000 C 
ATOM     19  O   UNL     1       1.054   5.375  19.728  0.00  0.00    +0.000 OA
ATOM     20  N   UNL     1       2.624   7.085  19.817  0.00  0.00    +0.000 N 
ATOM     21  H   UNL     1       3.493   7.374  19.384  0.00  0.00    +0.000 HD
BRANCH  20  22
ATOM     22  C   UNL     1       1.703   8.101  20.155  0.00  0.00    +0.000 A 
ATOM     23  C   UNL     1       1.352   9.044  19.193  0.00  0.00    +0.000 A 
ATOM     24  C   UNL     1       0.329   9.951  19.473  0.00  0.00    +0.000 A 
ATOM     25  C   UNL     1      -0.252   9.929  20.731  0.00  0.00    +0.000 A 
ATOM     26  N   UNL     1       0.119   9.083  21.712  0.00  0.00    +0.000 NA
ATOM     27  C   UNL     1       1.075   8.176  21.398  0.00  0.00    +0.000 A 
ENDBRANCH  20  22
ENDBRANCH   9  18
TORSDOF 3
ENDMDL
MODEL 9
REMARK VINA RESULT:      -7.6      2.155      7.078
REMARK  Name = 
REMARK  4 active torsions:
REMARK  status: ('A' for Active; 'I' for Inactive)
REMARK    1  A    between atoms: C_1  and  C_2
REMARK    2  A    between atoms: C_7  and  C_8
REMARK    3  A    between atoms: C_16  and  C_17
REMARK    4  A    between atoms: N_19  and  C_20
REMARK                            x       y       z     vdW  Elec       q    Type
REMARK                         _______ _______ _______ _____ _____    ______ ____
ROOT
ATOM      1  C   UNL     1       1.997   3.997  21.276  0.00  0.00    +0.000 C 
ATOM      2  C   UNL     1       3.104   3.569  20.382  0.00  0.00    +0.000 A 
ATOM      3  N   UNL     1       3.813   2.479  20.708  0.00  0.00    +0.000 NA
ATOM      4  O   UNL     1       4.731   2.303  19.686  0.00  0.00    +0.000 OA
ATOM      5  C   UNL     1       4.570   3.278  18.752  0.00  0.00    +0.000 A 
ATOM      6  N   UNL     1       5.304   3.346  17.633  0.00  0.00    +0.000 NA
ATOM      7  C   UNL     1       4.996   4.376  16.811  0.00  0.00    +0.000 A 
ATOM      8  C   UNL     1       4.011   5.318  17.110  0.00  0.00    +0.000 A 
ATOM      9  C   UNL     1       3.262   5.195  18.286  0.00  0.00    +0.000 A 
ATOM     10  C   UNL     1       3.547   4.126  19.149  0.00  0.00    +0.000 A 
ENDROOT
BRANCH   7  11
ATOM     11  C   UNL     1       5.781   4.426  15.561  0.00  0.00    +0.000 A 
ATOM     12  C   UNL     1       5.386   3.689  14.427  0.00  0.00    +0.000 A 
ATOM     13  C   UNL     1       6.099   3.763  13.226  0.00  0.00    +0.000 A 
ATOM     14  C   UNL     1       7.227   4.574  13.128  0.00  0.00    +0.000 A 
ATOM     15  C   UNL     1       7.642   5.310  14.234  0.00  0.00    +0.000 A 
ATOM     16  C   UNL     1       6.923   5.235  15.428  0.00  0.00    +0.000 A 
ATOM     17  F   UNL     1       7.347   5.986  16.454  0.00  0.00    +0.000 F 
ENDBRANCH   7  11
BRANCH   9  18
ATOM     18  C   UNL     1       2.258   6.218  18.625  0.00  0.00    +0.000 C 
ATOM     19  O   UNL     1       1.268   6.318  17.914  0.00  0.00    +0.000 OA
ATOM     20  N   UNL     1       2.562   7.035  19.704  0.00  0.00    +0.000 N 
ATOM     21  H   UNL     1       3.530   7.086  20.000  0.00  0.00    +0.000 HD
BRANCH  20  22
ATOM     22  C   UNL     1       1.722   8.112  20.060  0.00  0.00    +0.000 A 
ATOM     23  C   UNL     1       1.092   8.100  21.302  0.00  0.00    +0.000 A 
ATOM     24  C   UNL     1       0.390   9.231  21.718  0.00  0.00    +0.000 A 
ATOM     25  C   UNL     1       0.279  10.303  20.846  0.00  0.00    +0.000 A 
ATOM     26  N   UNL     1       0.806  10.316  19.606  0.00  0.00    +0.000 NA
ATOM     27  C   UNL     1       1.531   9.229  19.247  0.00  0.00    +0.000 A 
ENDBRANCH  20  22
ENDBRANCH   9  18
TORSDOF 3
ENDMDL
