MODEL 1
REMARK VINA RESULT:      -8.7      0.000      0.000
REMARK  Name = 
REMARK  3 active torsions:
REMARK  status: ('A' for Active; 'I' for Inactive)
REMARK    1  A    between atoms: C_2  and  C_3
REMARK    2  A    between atoms: C_3  and  C_4
REMARK    3  A    between atoms: C_18  and  C_19
REMARK                            x       y       z     vdW  Elec       q    Type
REMARK                         _______ _______ _______ _____ _____    ______ ____
ROOT
ATOM      1  O   UNL     1       2.344   7.066  20.358  0.00  0.00    +0.000 OA
ATOM      2  C   UNL     1       2.138   7.788  19.377  0.00  0.00    +0.000 C 
ATOM      3  N   UNL     1       1.322   8.908  19.428  0.00  0.00    +0.000 N 
ATOM      4  C   UNL     1       0.969   9.745  18.281  0.00  0.00    +0.000 C 
ATOM      5  C   UNL     1       1.148  11.224  18.609  0.00  0.00    +0.000 C 
ATOM      6  C   UNL     1       0.403  11.637  19.884  0.00  0.00    +0.000 C 
ATOM      7  C   UNL     1       0.707  10.674  21.040  0.00  0.00    +0.000 C 
ATOM      8  C   UNL     1       0.581   9.202  20.652  0.00  0.00    +0.000 C 
ENDROOT
BRANCH   6   9
ATOM      9  C   UNL     1      -1.079  11.775  19.628  0.00  0.00    +0.000 A 
ATOM     10  N   UNL     1      -1.689  11.391  18.528  0.00  0.00    +0.000 NA
ATOM     11  C   UNL     1      -3.033  11.720  18.586  0.00  0.00    +0.000 A 
ATOM     12  C   UNL     1      -3.990  11.480  17.578  0.00  0.00    +0.000 A 
ATOM     13  C   UNL     1      -5.319  11.874  17.772  0.00  0.00    +0.000 A 
ATOM     14  C   UNL     1      -5.701  12.502  18.953  0.00  0.00    +0.000 A 
ATOM     15  C   UNL     1      -4.772  12.749  19.967  0.00  0.00    +0.000 A 
ATOM     16  C   UNL     1      -3.441  12.349  19.762  0.00  0.00    +0.000 A 
ATOM     17  S   UNL     1      -2.086  12.518  20.806  0.00  0.00    +0.000 S 
ENDBRANCH   6   9
BRANCH   2  18
ATOM     18  C   UNL     1       2.839   7.466  18.076  0.00  0.00    +0.000 C 
BRANCH  18  19
ATOM     19  C   UNL     1       2.995   5.972  17.879  0.00  0.00    +0.000 A 
ATOM     20  N   UNL     1       2.070   5.204  18.377  0.00  0.00    +0.000 NA
ATOM     21  N   UNL     1       2.181   3.861  18.215  0.00  0.00    +0.000 N 
ATOM     22  C   UNL     1       3.225   3.205  17.615  0.00  0.00    +0.000 A 
ATOM     23  O   UNL     1       3.272   1.982  17.535  0.00  0.00    +0.000 OA
ATOM     24  C   UNL     1       4.289   4.057  17.058  0.00  0.00    +0.000 A 
ATOM     25  C   UNL     1       5.398   3.475  16.434  0.00  0.00    +0.000 A 
ATOM     26  C   UNL     1       6.385   4.290  15.881  0.00  0.00    +0.000 A 
ATOM     27  C   UNL     1       6.252   5.676  15.933  0.00  0.00    +0.000 A 
ATOM     28  C   UNL     1       5.143   6.255  16.556  0.00  0.00    +0.000 A 
ATOM     29  C   UNL     1       4.167   5.442  17.142  0.00  0.00    +0.000 A 
ATOM     30  H   UNL     1       1.431   3.292  18.595  0.00  0.00    +0.000 HD
ENDBRANCH  18  19
ENDBRANCH   2  18
TORSDOF 3
ENDMDL
MODEL 2
REMARK VINA RESULT:      -8.7      1.598      2.266
REMARK  Name = 
REMARK  3 active torsions:
REMARK  status: ('A' for Active; 'I' for Inactive)
REMARK    1  A    between atoms: C_2  and  C_3
REMARK    2  A    between atoms: C_3  and  C_4
REMARK    3  A    between atoms: C_18  and  C_19
REMARK                            x       y       z     vdW  Elec       q    Type
REMARK                         _______ _______ _______ _____ _____    ______ ____
ROOT
ATOM      1  O   UNL     1       2.329   7.438  20.169  0.00  0.00    +0.000 OA
ATOM      2  C   UNL     1       1.860   8.133  19.261  0.00  0.00    +0.000 C 
ATOM      3  N   UNL     1       1.085   9.257  19.501  0.00  0.00    +0.000 N 
ATOM      4  C   UNL     1       0.429  10.063  18.470  0.00  0.00    +0.000 C 
ATOM      5  C   UNL     1       0.685  11.550  18.695  0.00  0.00    +0.000 C 
ATOM      6  C   UNL     1       0.316  12.003  20.112  0.00  0.00    +0.000 C 
ATOM      7  C   UNL     1       0.927  11.071  21.169  0.00  0.00    +0.000 C 
ATOM      8  C   UNL     1       0.705   9.589  20.872  0.00  0.00    +0.000 C 
ENDROOT
BRANCH   6   9
ATOM      9  C   UNL     1      -1.181  12.140  20.268  0.00  0.00    +0.000 A 
ATOM     10  N   UNL     1      -2.055  11.960  19.301  0.00  0.00    +0.000 NA
ATOM     11  C   UNL     1      -3.334  12.226  19.756  0.00  0.00    +0.000 A 
ATOM     12  C   UNL     1      -4.518  12.158  18.993  0.00  0.00    +0.000 A 
ATOM     13  C   UNL     1      -5.748  12.463  19.587  0.00  0.00    +0.000 A 
ATOM     14  C   UNL     1      -5.810  12.833  20.926  0.00  0.00    +0.000 A 
ATOM     15  C   UNL     1      -4.652  12.906  21.704  0.00  0.00    +0.000 A 
ATOM     16  C   UNL     1      -3.423  12.598  21.098  0.00  0.00    +0.000 A 
ATOM     17  S   UNL     1      -1.846  12.603  21.783  0.00  0.00    +0.000 S 
ENDBRANCH   6   9
BRANCH   2  18
ATOM     18  C   UNL     1       2.180   7.771  17.828  0.00  0.00    +0.000 C 
BRANCH  18  19
ATOM     19  C   UNL     1       3.329   6.787  17.742  0.00  0.00    +0.000 A 
ATOM     20  N   UNL     1       4.530   7.278  17.641  0.00  0.00    +0.000 NA
ATOM     21  N   UNL     1       5.580   6.421  17.565  0.00  0.00    +0.000 N 
ATOM     22  C   UNL     1       5.502   5.052  17.523  0.00  0.00    +0.000 A 
ATOM     23  O   UNL     1       6.496   4.343  17.419  0.00  0.00    +0.000 OA
ATOM     24  C   UNL     1       4.150   4.479  17.622  0.00  0.00    +0.000 A 
ATOM     25  C   UNL     1       3.972   3.092  17.579  0.00  0.00    +0.000 A 
ATOM     26  C   UNL     1       2.691   2.555  17.706  0.00  0.00    +0.000 A 
ATOM     27  C   UNL     1       1.600   3.400  17.895  0.00  0.00    +0.000 A 
ATOM     28  C   UNL     1       1.779   4.786  17.937  0.00  0.00    +0.000 A 
ATOM     29  C   UNL     1       3.057   5.330  17.777  0.00  0.00    +0.000 A 
ATOM     30  H   UNL     1       6.504   6.836  17.510  0.00  0.00    +0.000 HD
ENDBRANCH  18  19
ENDBRANCH   2  18
TORSDOF 3
ENDMDL
MODEL 3
REMARK VINA RESULT:      -8.6      7.348     10.146
REMARK  Name = 
REMARK  3 active torsions:
REMARK  status: ('A' for Active; 'I' for Inactive)
REMARK    1  A    between atoms: C_2  and  C_3
REMARK    2  A    between atoms: C_3  and  C_4
REMARK    3  A    between atoms: C_18  and  C_19
REMARK                            x       y       z     vdW  Elec       q    Type
REMARK                         _______ _______ _______ _____ _____    ______ ____
ROOT
ATOM      1  O   UNL     1       7.739   9.622  17.101  0.00  0.00    +0.000 OA
ATOM      2  C   UNL     1       7.969   8.760  17.957  0.00  0.00    +0.000 C 
ATOM      3  N   UNL     1       7.387   7.502  17.928  0.00  0.00    +0.000 N 
ATOM      4  C   UNL     1       7.548   6.476  18.960  0.00  0.00    +0.000 C 
ATOM      5  C   UNL     1       7.878   5.124  18.337  0.00  0.00    +0.000 C 
ATOM      6  C   UNL     1       6.871   4.712  17.258  0.00  0.00    +0.000 C 
ATOM      7  C   UNL     1       6.638   5.850  16.253  0.00  0.00    +0.000 C 
ATOM      8  C   UNL     1       6.376   7.201  16.917  0.00  0.00    +0.000 C 
ENDROOT
BRANCH   6   9
ATOM      9  C   UNL     1       5.583   4.220  17.875  0.00  0.00    +0.000 A 
ATOM     10  N   UNL     1       5.443   3.859  19.132  0.00  0.00    +0.000 NA
ATOM     11  C   UNL     1       4.158   3.397  19.358  0.00  0.00    +0.000 A 
ATOM     12  C   UNL     1       3.654   2.909  20.581  0.00  0.00    +0.000 A 
ATOM     13  C   UNL     1       2.329   2.466  20.662  0.00  0.00    +0.000 A 
ATOM     14  C   UNL     1       1.505   2.506  19.542  0.00  0.00    +0.000 A 
ATOM     15  C   UNL     1       1.980   2.988  18.319  0.00  0.00    +0.000 A 
ATOM     16  C   UNL     1       3.311   3.428  18.250  0.00  0.00    +0.000 A 
ATOM     17  S   UNL     1       4.174   4.061  16.903  0.00  0.00    +0.000 S 
ENDBRANCH   6   9
BRANCH   2  18
ATOM     18  C   UNL     1       8.960   9.071  19.056  0.00  0.00    +0.000 C 
BRANCH  18  19
ATOM     19  C   UNL     1       9.604  10.428  18.861  0.00  0.00    +0.000 A 
ATOM     20  N   UNL     1      10.192  10.653  17.722  0.00  0.00    +0.000 NA
ATOM     21  N   UNL     1      10.777  11.860  17.517  0.00  0.00    +0.000 N 
ATOM     22  C   UNL     1      10.867  12.878  18.432  0.00  0.00    +0.000 A 
ATOM     23  O   UNL     1      11.442  13.932  18.185  0.00  0.00    +0.000 OA
ATOM     24  C   UNL     1      10.221  12.637  19.732  0.00  0.00    +0.000 A 
ATOM     25  C   UNL     1      10.269  13.615  20.731  0.00  0.00    +0.000 A 
ATOM     26  C   UNL     1       9.627  13.392  21.949  0.00  0.00    +0.000 A 
ATOM     27  C   UNL     1       8.923  12.207  22.156  0.00  0.00    +0.000 A 
ATOM     28  C   UNL     1       8.876  11.231  21.157  0.00  0.00    +0.000 A 
ATOM     29  C   UNL     1       9.547  11.436  19.947  0.00  0.00    +0.000 A 
ATOM     30  H   UNL     1      11.206  12.011  16.610  0.00  0.00    +0.000 HD
ENDBRANCH  18  19
ENDBRANCH   2  18
TORSDOF 3
ENDMDL
MODEL 4
REMARK VINA RESULT:      -8.6      1.753      2.569
REMARK  Name = 
REMARK  3 active torsions:
REMARK  status: ('A' for Active; 'I' for Inactive)
REMARK    1  A    between atoms: C_2  and  C_3
REMARK    2  A    between atoms: C_3  and  C_4
REMARK    3  A    between atoms: C_18  and  C_19
REMARK                            x       y       z     vdW  Elec       q    Type
REMARK                         _______ _______ _______ _____ _____    ______ ____
ROOT
ATOM      1  O   UNL     1       2.280   7.362  20.159  0.00  0.00    +0.000 OA
ATOM      2  C   UNL     1       1.873   8.101  19.255  0.00  0.00    +0.000 C 
ATOM      3  N   UNL     1       1.146   9.254  19.502  0.00  0.00    +0.000 N 
ATOM      4  C   UNL     1       0.561  10.116  18.473  0.00  0.00    +0.000 C 
ATOM      5  C   UNL     1       0.879  11.583  18.745  0.00  0.00    +0.000 C 
ATOM      6  C   UNL     1       0.488  12.018  20.161  0.00  0.00    +0.000 C 
ATOM      7  C   UNL     1       1.021  11.032  21.211  0.00  0.00    +0.000 C 
ATOM      8  C   UNL     1       0.739   9.570  20.869  0.00  0.00    +0.000 C 
ENDROOT
BRANCH   6   9
ATOM      9  C   UNL     1      -1.004  12.223  20.275  0.00  0.00    +0.000 A 
ATOM     10  N   UNL     1      -1.645  12.460  21.400  0.00  0.00    +0.000 NA
ATOM     11  C   UNL     1      -3.008  12.532  21.168  0.00  0.00    +0.000 A 
ATOM     12  C   UNL     1      -4.004  12.753  22.141  0.00  0.00    +0.000 A 
ATOM     13  C   UNL     1      -5.351  12.794  21.762  0.00  0.00    +0.000 A 
ATOM     14  C   UNL     1      -5.712  12.619  20.430  0.00  0.00    +0.000 A 
ATOM     15  C   UNL     1      -4.743  12.400  19.447  0.00  0.00    +0.000 A 
ATOM     16  C   UNL     1      -3.396  12.360  19.839  0.00  0.00    +0.000 A 
ATOM     17  S   UNL     1      -1.994  12.107  18.875  0.00  0.00    +0.000 S 
ENDBRANCH   6   9
BRANCH   2  18
ATOM     18  C   UNL     1       2.220   7.759  17.824  0.00  0.00    +0.000 C 
BRANCH  18  19
ATOM     19  C   UNL     1       3.364   6.769  17.746  0.00  0.00    +0.000 A 
ATOM     20  N   UNL     1       4.569   7.253  17.656  0.00  0.00    +0.000 NA
ATOM     21  N   UNL     1       5.615   6.391  17.587  0.00  0.00    +0.000 N 
ATOM     22  C   UNL     1       5.530   5.022  17.541  0.00  0.00    +0.000 A 
ATOM     23  O   UNL     1       6.521   4.307  17.445  0.00  0.00    +0.000 OA
ATOM     24  C   UNL     1       4.173   4.456  17.627  0.00  0.00    +0.000 A 
ATOM     25  C   UNL     1       3.988   3.070  17.579  0.00  0.00    +0.000 A 
ATOM     26  C   UNL     1       2.703   2.540  17.693  0.00  0.00    +0.000 A 
ATOM     27  C   UNL     1       1.615   3.391  17.874  0.00  0.00    +0.000 A 
ATOM     28  C   UNL     1       1.801   4.776  17.922  0.00  0.00    +0.000 A 
ATOM     29  C   UNL     1       3.084   5.313  17.774  0.00  0.00    +0.000 A 
ATOM     30  H   UNL     1       6.542   6.800  17.542  0.00  0.00    +0.000 HD
ENDBRANCH  18  19
ENDBRANCH   2  18
TORSDOF 3
ENDMDL
MODEL 5
REMARK VINA RESULT:      -8.6      1.890      2.539
REMARK  Name = 
REMARK  3 active torsions:
REMARK  status: ('A' for Active; 'I' for Inactive)
REMARK    1  A    between atoms: C_2  and  C_3
REMARK    2  A    between atoms: C_3  and  C_4
REMARK    3  A    between atoms: C_18  and  C_19
REMARK                            x       y       z     vdW  Elec       q    Type
REMARK                         _______ _______ _______ _____ _____    ______ ____
ROOT
ATOM      1  O   UNL     1       2.302   6.922  20.929  0.00  0.00    +0.000 OA
ATOM      2  C   UNL     1       2.174   7.447  19.817  0.00  0.00    +0.000 C 
ATOM      3  N   UNL     1       1.403   8.579  19.607  0.00  0.00    +0.000 N 
ATOM      4  C   UNL     1       1.142   9.188  18.302  0.00  0.00    +0.000 C 
ATOM      5  C   UNL     1       1.363  10.697  18.350  0.00  0.00    +0.000 C 
ATOM      6  C   UNL     1       0.575  11.372  19.477  0.00  0.00    +0.000 C 
ATOM      7  C   UNL     1       0.781  10.642  20.812  0.00  0.00    +0.000 C 
ATOM      8  C   UNL     1       0.615   9.127  20.707  0.00  0.00    +0.000 C 
ENDROOT
BRANCH   6   9
ATOM      9  C   UNL     1      -0.887  11.502  19.117  0.00  0.00    +0.000 A 
ATOM     10  N   UNL     1      -1.401  11.187  17.947  0.00  0.00    +0.000 NA
ATOM     11  C   UNL     1      -2.753  11.488  17.923  0.00  0.00    +0.000 A 
ATOM     12  C   UNL     1      -3.624  11.304  16.830  0.00  0.00    +0.000 A 
ATOM     13  C   UNL     1      -4.972  11.662  16.946  0.00  0.00    +0.000 A 
ATOM     14  C   UNL     1      -5.458  12.196  18.135  0.00  0.00    +0.000 A 
ATOM     15  C   UNL     1      -4.615  12.386  19.233  0.00  0.00    +0.000 A 
ATOM     16  C   UNL     1      -3.264  12.025  19.105  0.00  0.00    +0.000 A 
ATOM     17  S   UNL     1      -1.997  12.142  20.261  0.00  0.00    +0.000 S 
ENDBRANCH   6   9
BRANCH   2  18
ATOM     18  C   UNL     1       2.925   6.857  18.644  0.00  0.00    +0.000 C 
BRANCH  18  19
ATOM     19  C   UNL     1       3.516   5.503  18.981  0.00  0.00    +0.000 A 
ATOM     20  N   UNL     1       4.780   5.463  19.289  0.00  0.00    +0.000 NA
ATOM     21  N   UNL     1       5.338   4.265  19.597  0.00  0.00    +0.000 N 
ATOM     22  C   UNL     1       4.706   3.047  19.560  0.00  0.00    +0.000 A 
ATOM     23  O   UNL     1       5.286   2.000  19.821  0.00  0.00    +0.000 OA
ATOM     24  C   UNL     1       3.279   3.072  19.199  0.00  0.00    +0.000 A 
ATOM     25  C   UNL     1       2.554   1.877  19.128  0.00  0.00    +0.000 A 
ATOM     26  C   UNL     1       1.195   1.911  18.816  0.00  0.00    +0.000 A 
ATOM     27  C   UNL     1       0.563   3.134  18.599  0.00  0.00    +0.000 A 
ATOM     28  C   UNL     1       1.288   4.326  18.671  0.00  0.00    +0.000 A 
ATOM     29  C   UNL     1       2.658   4.294  18.950  0.00  0.00    +0.000 A 
ATOM     30  H   UNL     1       6.319   4.271  19.856  0.00  0.00    +0.000 HD
ENDBRANCH  18  19
ENDBRANCH   2  18
TORSDOF 3
ENDMDL
MODEL 6
REMARK VINA RESULT:      -8.5      0.920      1.284
REMARK  Name = 
REMARK  3 active torsions:
REMARK  status: ('A' for Active; 'I' for Inactive)
REMARK    1  A    between atoms: C_2  and  C_3
REMARK    2  A    between atoms: C_3  and  C_4
REMARK    3  A    between atoms: C_18  and  C_19
REMARK                            x       y       z     vdW  Elec       q    Type
REMARK                         _______ _______ _______ _____ _____    ______ ____
ROOT
ATOM      1  O   UNL     1       1.893   7.402  20.723  0.00  0.00    +0.000 OA
ATOM      2  C   UNL     1       1.797   8.085  19.697  0.00  0.00    +0.000 C 
ATOM      3  N   UNL     1       0.927   9.159  19.592  0.00  0.00    +0.000 N 
ATOM      4  C   UNL     1       0.703   9.945  18.377  0.00  0.00    +0.000 C 
ATOM      5  C   UNL     1       0.757  11.439  18.676  0.00  0.00    +0.000 C 
ATOM      6  C   UNL     1      -0.185  11.845  19.815  0.00  0.00    +0.000 C 
ATOM      7  C   UNL     1      -0.006  10.931  21.036  0.00  0.00    +0.000 C 
ATOM      8  C   UNL     1       0.001   9.444  20.685  0.00  0.00    +0.000 C 
ENDROOT
BRANCH   6   9
ATOM      9  C   UNL     1      -1.619  11.895  19.343  0.00  0.00    +0.000 A 
ATOM     10  N   UNL     1      -2.645  12.228  20.097  0.00  0.00    +0.000 NA
ATOM     11  C   UNL     1      -3.824  12.108  19.380  0.00  0.00    +0.000 A 
ATOM     12  C   UNL     1      -5.122  12.362  19.870  0.00  0.00    +0.000 A 
ATOM     13  C   UNL     1      -6.228  12.191  19.030  0.00  0.00    +0.000 A 
ATOM     14  C   UNL     1      -6.056  11.774  17.715  0.00  0.00    +0.000 A 
ATOM     15  C   UNL     1      -4.779  11.518  17.206  0.00  0.00    +0.000 A 
ATOM     16  C   UNL     1      -3.677  11.692  18.057  0.00  0.00    +0.000 A 
ATOM     17  S   UNL     1      -2.005  11.455  17.728  0.00  0.00    +0.000 S 
ENDBRANCH   6   9
BRANCH   2  18
ATOM     18  C   UNL     1       2.695   7.767  18.524  0.00  0.00    +0.000 C 
BRANCH  18  19
ATOM     19  C   UNL     1       2.705   6.284  18.211  0.00  0.00    +0.000 A 
ATOM     20  N   UNL     1       1.713   5.572  18.661  0.00  0.00    +0.000 NA
ATOM     21  N   UNL     1       1.693   4.242  18.395  0.00  0.00    +0.000 N 
ATOM     22  C   UNL     1       2.665   3.536  17.733  0.00  0.00    +0.000 A 
ATOM     23  O   UNL     1       2.593   2.325  17.559  0.00  0.00    +0.000 OA
ATOM     24  C   UNL     1       3.803   4.323  17.229  0.00  0.00    +0.000 A 
ATOM     25  C   UNL     1       4.847   3.688  16.548  0.00  0.00    +0.000 A 
ATOM     26  C   UNL     1       5.905   4.444  16.045  0.00  0.00    +0.000 A 
ATOM     27  C   UNL     1       5.907   5.828  16.205  0.00  0.00    +0.000 A 
ATOM     28  C   UNL     1       4.863   6.462  16.885  0.00  0.00    +0.000 A 
ATOM     29  C   UNL     1       3.816   5.703  17.420  0.00  0.00    +0.000 A 
ATOM     30  H   UNL     1       0.894   3.720  18.741  0.00  0.00    +0.000 HD
ENDBRANCH  18  19
ENDBRANCH   2  18
TORSDOF 3
ENDMDL
MODEL 7
REMARK VINA RESULT:      -8.5      2.179      2.734
REMARK  Name = 
REMARK  3 active torsions:
REMARK  status: ('A' for Active; 'I' for Inactive)
REMARK    1  A    between atoms: C_2  and  C_3
REMARK    2  A    between atoms: C_3  and  C_4
REMARK    3  A    between atoms: C_18  and  C_19
REMARK                            x       y       z     vdW  Elec       q    Type
REMARK                         _______ _______ _______ _____ _____    ______ ____
ROOT
ATOM      1  O   UNL     1       2.451   5.026  20.827  0.00  0.00    +0.000 OA
ATOM      2  C   UNL     1       2.412   5.488  19.681  0.00  0.00    +0.000 C 
ATOM      3  N   UNL     1       1.880   6.736  19.395  0.00  0.00    +0.000 N 
ATOM      4  C   UNL     1       1.724   7.296  18.052  0.00  0.00    +0.000 C 
ATOM      5  C   UNL     1       2.245   8.728  17.994  0.00  0.00    +0.000 C 
ATOM      6  C   UNL     1       1.627   9.623  19.074  0.00  0.00    +0.000 C 
ATOM      7  C   UNL     1       1.706   8.959  20.456  0.00  0.00    +0.000 C 
ATOM      8  C   UNL     1       1.237   7.505  20.458  0.00  0.00    +0.000 C 
ENDROOT
BRANCH   6   9
ATOM      9  C   UNL     1       0.216  10.021  18.710  0.00  0.00    +0.000 A 
ATOM     10  N   UNL     1      -0.390   9.695  17.589  0.00  0.00    +0.000 NA
ATOM     11  C   UNL     1      -1.647  10.272  17.538  0.00  0.00    +0.000 A 
ATOM     12  C   UNL     1      -2.571  10.157  16.479  0.00  0.00    +0.000 A 
ATOM     13  C   UNL     1      -3.809  10.804  16.562  0.00  0.00    +0.000 A 
ATOM     14  C   UNL     1      -4.135  11.559  17.684  0.00  0.00    +0.000 A 
ATOM     15  C   UNL     1      -3.237  11.686  18.748  0.00  0.00    +0.000 A 
ATOM     16  C   UNL     1      -1.998  11.033  18.653  0.00  0.00    +0.000 A 
ATOM     17  S   UNL     1      -0.699  11.006  19.781  0.00  0.00    +0.000 S 
ENDBRANCH   6   9
BRANCH   2  18
ATOM     18  C   UNL     1       3.008   4.682  18.550  0.00  0.00    +0.000 C 
BRANCH  18  19
ATOM     19  C   UNL     1       4.521   4.767  18.539  0.00  0.00    +0.000 A 
ATOM     20  N   UNL     1       5.117   4.966  19.679  0.00  0.00    +0.000 NA
ATOM     21  N   UNL     1       6.471   5.044  19.701  0.00  0.00    +0.000 N 
ATOM     22  C   UNL     1       7.301   4.993  18.609  0.00  0.00    +0.000 A 
ATOM     23  O   UNL     1       8.518   5.105  18.705  0.00  0.00    +0.000 OA
ATOM     24  C   UNL     1       6.644   4.783  17.309  0.00  0.00    +0.000 A 
ATOM     25  C   UNL     1       7.408   4.725  16.139  0.00  0.00    +0.000 A 
ATOM     26  C   UNL     1       6.781   4.494  14.915  0.00  0.00    +0.000 A 
ATOM     27  C   UNL     1       5.403   4.300  14.866  0.00  0.00    +0.000 A 
ATOM     28  C   UNL     1       4.640   4.358  16.036  0.00  0.00    +0.000 A 
ATOM     29  C   UNL     1       5.260   4.623  17.261  0.00  0.00    +0.000 A 
ATOM     30  H   UNL     1       6.906   5.177  20.609  0.00  0.00    +0.000 HD
ENDBRANCH  18  19
ENDBRANCH   2  18
TORSDOF 3
ENDMDL
MODEL 8
REMARK VINA RESULT:      -8.4      1.555      1.919
REMARK  Name = 
REMARK  3 active torsions:
REMARK  status: ('A' for Active; 'I' for Inactive)
REMARK    1  A    between atoms: C_2  and  C_3
REMARK    2  A    between atoms: C_3  and  C_4
REMARK    3  A    between atoms: C_18  and  C_19
REMARK                            x       y       z     vdW  Elec       q    Type
REMARK                         _______ _______ _______ _____ _____    ______ ____
ROOT
ATOM      1  O   UNL     1       1.498   8.465  21.677  0.00  0.00    +0.000 OA
ATOM      2  C   UNL     1       1.178   8.815  20.536  0.00  0.00    +0.000 C 
ATOM      3  N   UNL     1       0.224   9.790  20.291  0.00  0.00    +0.000 N 
ATOM      4  C   UNL     1      -0.260  10.179  18.965  0.00  0.00    +0.000 C 
ATOM      5  C   UNL     1      -0.270  11.697  18.812  0.00  0.00    +0.000 C 
ATOM      6  C   UNL     1      -1.035  12.397  19.941  0.00  0.00    +0.000 C 
ATOM      7  C   UNL     1      -0.584  11.885  21.317  0.00  0.00    +0.000 C 
ATOM      8  C   UNL     1      -0.523  10.361  21.408  0.00  0.00    +0.000 C 
ENDROOT
BRANCH   6   9
ATOM      9  C   UNL     1      -2.528  12.272  19.746  0.00  0.00    +0.000 A 
ATOM     10  N   UNL     1      -3.106  11.796  18.664  0.00  0.00    +0.000 NA
ATOM     11  C   UNL     1      -4.483  11.881  18.781  0.00  0.00    +0.000 A 
ATOM     12  C   UNL     1      -5.424  11.485  17.808  0.00  0.00    +0.000 A 
ATOM     13  C   UNL     1      -6.792  11.636  18.060  0.00  0.00    +0.000 A 
ATOM     14  C   UNL     1      -7.230  12.173  19.266  0.00  0.00    +0.000 A 
ATOM     15  C   UNL     1      -6.317  12.571  20.247  0.00  0.00    +0.000 A 
ATOM     16  C   UNL     1      -4.947  12.416  19.982  0.00  0.00    +0.000 A 
ATOM     17  S   UNL     1      -3.600  12.813  20.976  0.00  0.00    +0.000 S 
ENDBRANCH   6   9
BRANCH   2  18
ATOM     18  C   UNL     1       1.887   8.188  19.357  0.00  0.00    +0.000 C 
BRANCH  18  19
ATOM     19  C   UNL     1       2.207   6.728  19.607  0.00  0.00    +0.000 A 
ATOM     20  N   UNL     1       1.574   6.135  20.577  0.00  0.00    +0.000 NA
ATOM     21  N   UNL     1       1.837   4.827  20.824  0.00  0.00    +0.000 N 
ATOM     22  C   UNL     1       2.770   4.056  20.179  0.00  0.00    +0.000 A 
ATOM     23  O   UNL     1       2.976   2.886  20.481  0.00  0.00    +0.000 OA
ATOM     24  C   UNL     1       3.507   4.714  19.087  0.00  0.00    +0.000 A 
ATOM     25  C   UNL     1       4.485   4.008  18.377  0.00  0.00    +0.000 A 
ATOM     26  C   UNL     1       5.156   4.628  17.324  0.00  0.00    +0.000 A 
ATOM     27  C   UNL     1       4.835   5.937  16.971  0.00  0.00    +0.000 A 
ATOM     28  C   UNL     1       3.858   6.641  17.681  0.00  0.00    +0.000 A 
ATOM     29  C   UNL     1       3.207   6.034  18.759  0.00  0.00    +0.000 A 
ATOM     30  H   UNL     1       1.309   4.389  21.573  0.00  0.00    +0.000 HD
ENDBRANCH  18  19
ENDBRANCH   2  18
TORSDOF 3
ENDMDL
MODEL 9
REMARK VINA RESULT:      -8.4      6.695      9.733
REMARK  Name = 
REMARK  3 active torsions:
REMARK  status: ('A' for Active; 'I' for Inactive)
REMARK    1  A    between atoms: C_2  and  C_3
REMARK    2  A    between atoms: C_3  and  C_4
REMARK    3  A    between atoms: C_18  and  C_19
REMARK                            x       y       z     vdW  Elec       q    Type
REMARK                         _______ _______ _______ _____ _____    ______ ____
ROOT
ATOM      1  O   UNL     1       7.691   9.958  17.335  0.00  0.00    +0.000 OA
ATOM      2  C   UNL     1       8.032   8.962  17.981  0.00  0.00    +0.000 C 
ATOM      3  N   UNL     1       7.311   7.778  17.969  0.00  0.00    +0.000 N 
ATOM      4  C   UNL     1       7.614   6.600  18.783  0.00  0.00    +0.000 C 
ATOM      5  C   UNL     1       7.592   5.331  17.936  0.00  0.00    +0.000 C 
ATOM      6  C   UNL     1       6.289   5.174  17.145  0.00  0.00    +0.000 C 
ATOM      7  C   UNL     1       5.939   6.465  16.391  0.00  0.00    +0.000 C 
ATOM      8  C   UNL     1       6.037   7.720  17.258  0.00  0.00    +0.000 C 
ENDROOT
BRANCH   6   9
ATOM      9  C   UNL     1       5.163   4.711  18.039  0.00  0.00    +0.000 A 
ATOM     10  N   UNL     1       5.286   3.820  18.999  0.00  0.00    +0.000 NA
ATOM     11  C   UNL     1       4.055   3.571  19.582  0.00  0.00    +0.000 A 
ATOM     12  C   UNL     1       3.801   2.661  20.628  0.00  0.00    +0.000 A 
ATOM     13  C   UNL     1       2.498   2.506  21.116  0.00  0.00    +0.000 A 
ATOM     14  C   UNL     1       1.452   3.246  20.575  0.00  0.00    +0.000 A 
ATOM     15  C   UNL     1       1.678   4.156  19.539  0.00  0.00    +0.000 A 
ATOM     16  C   UNL     1       2.989   4.302  19.057  0.00  0.00    +0.000 A 
ATOM     17  S   UNL     1       3.575   5.324  17.804  0.00  0.00    +0.000 S 
ENDBRANCH   6   9
BRANCH   2  18
ATOM     18  C   UNL     1       9.313   9.018  18.784  0.00  0.00    +0.000 C 
BRANCH  18  19
ATOM     19  C   UNL     1       9.419  10.303  19.579  0.00  0.00    +0.000 A 
ATOM     20  N   UNL     1       8.904  10.311  20.774  0.00  0.00    +0.000 NA
ATOM     21  N   UNL     1       8.986  11.447  21.512  0.00  0.00    +0.000 N 
ATOM     22  C   UNL     1       9.518  12.642  21.097  0.00  0.00    +0.000 A 
ATOM     23  O   UNL     1       9.526  13.638  21.811  0.00  0.00    +0.000 OA
ATOM     24  C   UNL     1      10.093  12.656  19.742  0.00  0.00    +0.000 A 
ATOM     25  C   UNL     1      10.651  13.833  19.230  0.00  0.00    +0.000 A 
ATOM     26  C   UNL     1      11.222  13.830  17.958  0.00  0.00    +0.000 A 
ATOM     27  C   UNL     1      11.254  12.653  17.213  0.00  0.00    +0.000 A 
ATOM     28  C   UNL     1      10.696  11.478  17.726  0.00  0.00    +0.000 A 
ATOM     29  C   UNL     1      10.092  11.485  18.987  0.00  0.00    +0.000 A 
ATOM     30  H   UNL     1       8.594  11.412  22.448  0.00  0.00    +0.000 HD
ENDBRANCH  18  19
ENDBRANCH   2  18
TORSDOF 3
ENDMDL
