MODEL 1
REMARK VINA RESULT:      -8.8      0.000      0.000
REMARK  Name = 
REMARK  8 active torsions:
REMARK  status: ('A' for Active; 'I' for Inactive)
REMARK    1  A    between atoms: C_1  and  N_2
REMARK    2  A    between atoms: C_6  and  C_7
REMARK    3  A    between atoms: C_7  and  C_8
REMARK    4  A    between atoms: C_8  and  C_9
REMARK    5  A    between atoms: C_13  and  N_14
REMARK    6  A    between atoms: C_19  and  O_20
REMARK    7  A    between atoms: O_20  and  N_21
REMARK    8  A    between atoms: C_23  and  C_24
REMARK                            x       y       z     vdW  Elec       q    Type
REMARK                         _______ _______ _______ _____ _____    ______ ____
ROOT
ATOM      1  N   UNL     1       4.279   4.546  19.010  0.00  0.00    +0.000 N 
ATOM      2  C   UNL     1       5.598   5.190  19.223  0.00  0.00    +0.000 C 
ATOM      3  C   UNL     1       6.219   5.086  17.862  0.00  0.00    +0.000 A 
ATOM      4  C   UNL     1       5.661   3.966  17.237  0.00  0.00    +0.000 A 
ATOM      5  C   UNL     1       5.857   3.667  15.902  0.00  0.00    +0.000 A 
ATOM      6  C   UNL     1       6.632   4.557  15.159  0.00  0.00    +0.000 A 
ATOM      7  C   UNL     1       7.197   5.695  15.773  0.00  0.00    +0.000 A 
ATOM      8  C   UNL     1       7.003   5.981  17.142  0.00  0.00    +0.000 A 
ATOM      9  C   UNL     1       4.514   3.519  18.061  0.00  0.00    +0.000 C 
ATOM     10  O   UNL     1       3.805   2.564  17.787  0.00  0.00    +0.000 OA
ENDROOT
BRANCH   1  15
ATOM     11  C   UNL     1       2.164   7.466  19.570  0.00  0.00    +0.000 A 
ATOM     12  C   UNL     1       2.570   8.217  18.457  0.00  0.00    +0.000 A 
ATOM     13  C   UNL     1       3.149   7.593  17.358  0.00  0.00    +0.000 A 
ATOM     14  C   UNL     1       3.444   6.236  17.411  0.00  0.00    +0.000 A 
ATOM     15  C   UNL     1       3.287   5.543  18.621  0.00  0.00    +0.000 A 
ATOM     16  C   UNL     1       2.507   6.112  19.635  0.00  0.00    +0.000 A 
BRANCH  11  17
ATOM     17  C   UNL     1       1.479   8.135  20.738  0.00  0.00    +0.000 C 
BRANCH  17  18
ATOM     18  C   UNL     1       0.896   9.496  20.352  0.00  0.00    +0.000 C 
BRANCH  18  24
ATOM     19  C   UNL     1      -1.326  11.626  20.095  0.00  0.00    +0.000 C 
ATOM     20  N   UNL     1      -0.825  11.079  21.321  0.00  0.00    +0.000 N 
ATOM     21  C   UNL     1      -1.223  11.418  22.574  0.00  0.00    +0.000 A 
ATOM     22  N   UNL     1      -0.549  10.714  23.452  0.00  0.00    +0.000 NA
ATOM     23  N   UNL     1       0.314   9.902  22.761  0.00  0.00    +0.000 NA
ATOM     24  C   UNL     1       0.144  10.120  21.471  0.00  0.00    +0.000 A 
ENDBRANCH  18  24
ENDBRANCH  17  18
ENDBRANCH  11  17
ENDBRANCH   1  15
BRANCH   8  25
ATOM     25  C   UNL     1       7.527   7.279  17.701  0.00  0.00    +0.000 C 
ATOM     26  F   UNL     1       8.366   7.948  16.865  0.00  0.00    +0.000 F 
ATOM     27  F   UNL     1       6.523   8.154  17.991  0.00  0.00    +0.000 F 
ATOM     28  F   UNL     1       8.217   7.103  18.861  0.00  0.00    +0.000 F 
ENDBRANCH   8  25
BRANCH   6  29
ATOM     29  O   UNL     1       6.773   4.494  13.788  0.00  0.00    +0.000 OA
BRANCH  29  30
ATOM     30  N   UNL     1       6.089   3.337  13.238  0.00  0.00    +0.000 NA
ATOM     31  H   UNL     1       5.233   3.775  12.895  0.00  0.00    +0.000 HD
ATOM     32  H   UNL     1       5.827   2.838  14.087  0.00  0.00    +0.000 HD
ENDBRANCH  29  30
ENDBRANCH   6  29
TORSDOF 7
ENDMDL
MODEL 2
REMARK VINA RESULT:      -8.6      3.943      6.754
REMARK  Name = 
REMARK  8 active torsions:
REMARK  status: ('A' for Active; 'I' for Inactive)
REMARK    1  A    between atoms: C_1  and  N_2
REMARK    2  A    between atoms: C_6  and  C_7
REMARK    3  A    between atoms: C_7  and  C_8
REMARK    4  A    between atoms: C_8  and  C_9
REMARK    5  A    between atoms: C_13  and  N_14
REMARK    6  A    between atoms: C_19  and  O_20
REMARK    7  A    between atoms: O_20  and  N_21
REMARK    8  A    between atoms: C_23  and  C_24
REMARK                            x       y       z     vdW  Elec       q    Type
REMARK                         _______ _______ _______ _____ _____    ______ ____
ROOT
ATOM      1  N   UNL     1       6.022   5.316  15.625  0.00  0.00    +0.000 N 
ATOM      2  C   UNL     1       4.845   6.195  15.832  0.00  0.00    +0.000 C 
ATOM      3  C   UNL     1       4.078   5.447  16.881  0.00  0.00    +0.000 A 
ATOM      4  C   UNL     1       4.392   4.091  16.735  0.00  0.00    +0.000 A 
ATOM      5  C   UNL     1       4.016   3.124  17.648  0.00  0.00    +0.000 A 
ATOM      6  C   UNL     1       3.312   3.552  18.774  0.00  0.00    +0.000 A 
ATOM      7  C   UNL     1       2.993   4.917  18.939  0.00  0.00    +0.000 A 
ATOM      8  C   UNL     1       3.369   5.894  17.991  0.00  0.00    +0.000 A 
ATOM      9  C   UNL     1       5.537   3.995  15.801  0.00  0.00    +0.000 C 
ATOM     10  O   UNL     1       6.060   2.945  15.465  0.00  0.00    +0.000 OA
ENDROOT
BRANCH   1  15
ATOM     11  C   UNL     1       7.823   7.645  17.781  0.00  0.00    +0.000 A 
ATOM     12  C   UNL     1       7.890   6.838  18.926  0.00  0.00    +0.000 A 
ATOM     13  C   UNL     1       7.763   5.458  18.825  0.00  0.00    +0.000 A 
ATOM     14  C   UNL     1       7.441   4.882  17.602  0.00  0.00    +0.000 A 
ATOM     15  C   UNL     1       7.109   5.708  16.517  0.00  0.00    +0.000 A 
ATOM     16  C   UNL     1       7.453   7.063  16.564  0.00  0.00    +0.000 A 
BRANCH  11  17
ATOM     17  C   UNL     1       8.023   9.138  17.881  0.00  0.00    +0.000 C 
BRANCH  17  18
ATOM     18  C   UNL     1       8.921   9.513  19.063  0.00  0.00    +0.000 C 
BRANCH  18  24
ATOM     19  C   UNL     1       9.163  11.697  21.233  0.00  0.00    +0.000 C 
ATOM     20  N   UNL     1       9.608  11.809  19.876  0.00  0.00    +0.000 N 
ATOM     21  C   UNL     1      10.189  12.898  19.309  0.00  0.00    +0.000 A 
ATOM     22  N   UNL     1      10.466  12.641  18.052  0.00  0.00    +0.000 NA
ATOM     23  N   UNL     1      10.050  11.360  17.788  0.00  0.00    +0.000 NA
ATOM     24  C   UNL     1       9.535  10.855  18.894  0.00  0.00    +0.000 A 
ENDBRANCH  18  24
ENDBRANCH  17  18
ENDBRANCH  11  17
ENDBRANCH   1  15
BRANCH   8  25
ATOM     25  C   UNL     1       3.109   7.347  18.294  0.00  0.00    +0.000 C 
ATOM     26  F   UNL     1       2.113   7.902  17.552  0.00  0.00    +0.000 F 
ATOM     27  F   UNL     1       2.751   7.542  19.594  0.00  0.00    +0.000 F 
ATOM     28  F   UNL     1       4.207   8.124  18.086  0.00  0.00    +0.000 F 
ENDBRANCH   8  25
BRANCH   6  29
ATOM     29  O   UNL     1       3.022   2.743  19.852  0.00  0.00    +0.000 OA
BRANCH  29  30
ATOM     30  N   UNL     1       2.460   3.508  20.953  0.00  0.00    +0.000 NA
ATOM     31  H   UNL     1       3.014   3.147  21.729  0.00  0.00    +0.000 HD
ATOM     32  H   UNL     1       1.539   3.079  21.043  0.00  0.00    +0.000 HD
ENDBRANCH  29  30
ENDBRANCH   6  29
TORSDOF 7
ENDMDL
MODEL 3
REMARK VINA RESULT:      -8.4      4.194      6.435
REMARK  Name = 
REMARK  8 active torsions:
REMARK  status: ('A' for Active; 'I' for Inactive)
REMARK    1  A    between atoms: C_1  and  N_2
REMARK    2  A    between atoms: C_6  and  C_7
REMARK    3  A    between atoms: C_7  and  C_8
REMARK    4  A    between atoms: C_8  and  C_9
REMARK    5  A    between atoms: C_13  and  N_14
REMARK    6  A    between atoms: C_19  and  O_20
REMARK    7  A    between atoms: O_20  and  N_21
REMARK    8  A    between atoms: C_23  and  C_24
REMARK                            x       y       z     vdW  Elec       q    Type
REMARK                         _______ _______ _______ _____ _____    ______ ____
ROOT
ATOM      1  N   UNL     1       6.086   5.498  15.576  0.00  0.00    +0.000 N 
ATOM      2  C   UNL     1       4.851   6.259  15.888  0.00  0.00    +0.000 C 
ATOM      3  C   UNL     1       4.173   5.361  16.879  0.00  0.00    +0.000 A 
ATOM      4  C   UNL     1       4.585   4.053  16.601  0.00  0.00    +0.000 A 
ATOM      5  C   UNL     1       4.310   2.980  17.428  0.00  0.00    +0.000 A 
ATOM      6  C   UNL     1       3.606   3.247  18.603  0.00  0.00    +0.000 A 
ATOM      7  C   UNL     1       3.188   4.562  18.899  0.00  0.00    +0.000 A 
ATOM      8  C   UNL     1       3.462   5.647  18.038  0.00  0.00    +0.000 A 
ATOM      9  C   UNL     1       5.709   4.133  15.639  0.00  0.00    +0.000 C 
ATOM     10  O   UNL     1       6.302   3.163  15.197  0.00  0.00    +0.000 OA
ENDROOT
BRANCH   1  15
ATOM     11  C   UNL     1       7.789   7.781  17.858  0.00  0.00    +0.000 A 
ATOM     12  C   UNL     1       7.919   6.907  18.947  0.00  0.00    +0.000 A 
ATOM     13  C   UNL     1       7.867   5.531  18.757  0.00  0.00    +0.000 A 
ATOM     14  C   UNL     1       7.558   5.018  17.503  0.00  0.00    +0.000 A 
ATOM     15  C   UNL     1       7.163   5.892  16.479  0.00  0.00    +0.000 A 
ATOM     16  C   UNL     1       7.432   7.259  16.610  0.00  0.00    +0.000 A 
BRANCH  11  17
ATOM     17  C   UNL     1       7.907   9.273  18.053  0.00  0.00    +0.000 C 
BRANCH  17  18
ATOM     18  C   UNL     1       9.293   9.671  18.567  0.00  0.00    +0.000 C 
BRANCH  18  24
ATOM     19  C   UNL     1       9.336  12.635  17.700  0.00  0.00    +0.000 C 
ATOM     20  N   UNL     1       9.278  12.156  19.048  0.00  0.00    +0.000 N 
ATOM     21  C   UNL     1       9.255  12.919  20.171  0.00  0.00    +0.000 A 
ATOM     22  N   UNL     1       9.201  12.142  21.227  0.00  0.00    +0.000 NA
ATOM     23  N   UNL     1       9.195  10.842  20.787  0.00  0.00    +0.000 NA
ATOM     24  C   UNL     1       9.238  10.851  19.468  0.00  0.00    +0.000 A 
ENDBRANCH  18  24
ENDBRANCH  17  18
ENDBRANCH  11  17
ENDBRANCH   1  15
BRANCH   8  25
ATOM     25  C   UNL     1       3.099   7.042  18.480  0.00  0.00    +0.000 C 
ATOM     26  F   UNL     1       2.922   7.175  19.822  0.00  0.00    +0.000 F 
ATOM     27  F   UNL     1       4.058   7.950  18.145  0.00  0.00    +0.000 F 
ATOM     28  F   UNL     1       1.947   7.484  17.906  0.00  0.00    +0.000 F 
ENDBRANCH   8  25
BRANCH   6  29
ATOM     29  O   UNL     1       3.409   2.323  19.607  0.00  0.00    +0.000 OA
BRANCH  29  30
ATOM     30  N   UNL     1       4.672   1.818  20.119  0.00  0.00    +0.000 NA
ATOM     31  H   UNL     1       4.833   2.471  20.886  0.00  0.00    +0.000 HD
ATOM     32  H   UNL     1       5.312   2.096  19.376  0.00  0.00    +0.000 HD
ENDBRANCH  29  30
ENDBRANCH   6  29
TORSDOF 7
ENDMDL
MODEL 4
REMARK VINA RESULT:      -8.3      0.784      1.161
REMARK  Name = 
REMARK  8 active torsions:
REMARK  status: ('A' for Active; 'I' for Inactive)
REMARK    1  A    between atoms: C_1  and  N_2
REMARK    2  A    between atoms: C_6  and  C_7
REMARK    3  A    between atoms: C_7  and  C_8
REMARK    4  A    between atoms: C_8  and  C_9
REMARK    5  A    between atoms: C_13  and  N_14
REMARK    6  A    between atoms: C_19  and  O_20
REMARK    7  A    between atoms: O_20  and  N_21
REMARK    8  A    between atoms: C_23  and  C_24
REMARK                            x       y       z     vdW  Elec       q    Type
REMARK                         _______ _______ _______ _____ _____    ______ ____
ROOT
ATOM      1  N   UNL     1       4.006   4.527  19.146  0.00  0.00    +0.000 N 
ATOM      2  C   UNL     1       5.364   5.109  19.285  0.00  0.00    +0.000 C 
ATOM      3  C   UNL     1       5.891   5.006  17.885  0.00  0.00    +0.000 A 
ATOM      4  C   UNL     1       5.245   3.923  17.278  0.00  0.00    +0.000 A 
ATOM      5  C   UNL     1       5.341   3.644  15.928  0.00  0.00    +0.000 A 
ATOM      6  C   UNL     1       6.107   4.514  15.152  0.00  0.00    +0.000 A 
ATOM      7  C   UNL     1       6.761   5.613  15.748  0.00  0.00    +0.000 A 
ATOM      8  C   UNL     1       6.667   5.880  17.132  0.00  0.00    +0.000 A 
ATOM      9  C   UNL     1       4.133   3.511  18.166  0.00  0.00    +0.000 C 
ATOM     10  O   UNL     1       3.366   2.594  17.922  0.00  0.00    +0.000 OA
ENDROOT
BRANCH   1  15
ATOM     11  C   UNL     1       2.058   7.522  19.895  0.00  0.00    +0.000 A 
ATOM     12  C   UNL     1       2.429   8.280  18.775  0.00  0.00    +0.000 A 
ATOM     13  C   UNL     1       2.913   7.658  17.630  0.00  0.00    +0.000 A 
ATOM     14  C   UNL     1       3.151   6.289  17.637  0.00  0.00    +0.000 A 
ATOM     15  C   UNL     1       3.037   5.575  18.840  0.00  0.00    +0.000 A 
ATOM     16  C   UNL     1       2.345   6.152  19.910  0.00  0.00    +0.000 A 
BRANCH  11  17
ATOM     17  C   UNL     1       1.475   8.191  21.116  0.00  0.00    +0.000 C 
BRANCH  17  18
ATOM     18  C   UNL     1       0.150   8.889  20.803  0.00  0.00    +0.000 C 
BRANCH  18  24
ATOM     19  C   UNL     1      -1.036  10.578  23.101  0.00  0.00    +0.000 C 
ATOM     20  N   UNL     1      -0.310  11.085  21.975  0.00  0.00    +0.000 N 
ATOM     21  C   UNL     1      -0.039  12.390  21.715  0.00  0.00    +0.000 A 
ATOM     22  N   UNL     1       0.646  12.481  20.600  0.00  0.00    +0.000 NA
ATOM     23  N   UNL     1       0.821  11.209  20.114  0.00  0.00    +0.000 NA
ATOM     24  C   UNL     1       0.247  10.364  20.949  0.00  0.00    +0.000 A 
ENDBRANCH  18  24
ENDBRANCH  17  18
ENDBRANCH  11  17
ENDBRANCH   1  15
BRANCH   8  25
ATOM     25  C   UNL     1       7.284   7.142  17.678  0.00  0.00    +0.000 C 
ATOM     26  F   UNL     1       8.165   7.744  16.834  0.00  0.00    +0.000 F 
ATOM     27  F   UNL     1       6.345   8.087  17.964  0.00  0.00    +0.000 F 
ATOM     28  F   UNL     1       7.964   6.927  18.837  0.00  0.00    +0.000 F 
ENDBRANCH   8  25
BRANCH   6  29
ATOM     29  O   UNL     1       6.158   4.473  13.774  0.00  0.00    +0.000 OA
BRANCH  29  30
ATOM     30  N   UNL     1       6.317   3.112  13.290  0.00  0.00    +0.000 NA
ATOM     31  H   UNL     1       7.155   3.216  12.719  0.00  0.00    +0.000 HD
ATOM     32  H   UNL     1       5.538   3.042  12.636  0.00  0.00    +0.000 HD
ENDBRANCH  29  30
ENDBRANCH   6  29
TORSDOF 7
ENDMDL
MODEL 5
REMARK VINA RESULT:      -8.3      4.008      6.842
REMARK  Name = 
REMARK  8 active torsions:
REMARK  status: ('A' for Active; 'I' for Inactive)
REMARK    1  A    between atoms: C_1  and  N_2
REMARK    2  A    between atoms: C_6  and  C_7
REMARK    3  A    between atoms: C_7  and  C_8
REMARK    4  A    between atoms: C_8  and  C_9
REMARK    5  A    between atoms: C_13  and  N_14
REMARK    6  A    between atoms: C_19  and  O_20
REMARK    7  A    between atoms: O_20  and  N_21
REMARK    8  A    between atoms: C_23  and  C_24
REMARK                            x       y       z     vdW  Elec       q    Type
REMARK                         _______ _______ _______ _____ _____    ______ ____
ROOT
ATOM      1  N   UNL     1       6.072   5.409  15.627  0.00  0.00    +0.000 N 
ATOM      2  C   UNL     1       4.850   6.225  15.829  0.00  0.00    +0.000 C 
ATOM      3  C   UNL     1       4.123   5.443  16.882  0.00  0.00    +0.000 A 
ATOM      4  C   UNL     1       4.509   4.105  16.744  0.00  0.00    +0.000 A 
ATOM      5  C   UNL     1       4.186   3.125  17.663  0.00  0.00    +0.000 A 
ATOM      6  C   UNL     1       3.459   3.521  18.786  0.00  0.00    +0.000 A 
ATOM      7  C   UNL     1       3.067   4.868  18.943  0.00  0.00    +0.000 A 
ATOM      8  C   UNL     1       3.391   5.858  17.989  0.00  0.00    +0.000 A 
ATOM      9  C   UNL     1       5.659   4.065  15.811  0.00  0.00    +0.000 C 
ATOM     10  O   UNL     1       6.238   3.043  15.481  0.00  0.00    +0.000 OA
ENDROOT
BRANCH   1  15
ATOM     11  C   UNL     1       7.712   7.822  17.820  0.00  0.00    +0.000 A 
ATOM     12  C   UNL     1       7.856   6.996  18.945  0.00  0.00    +0.000 A 
ATOM     13  C   UNL     1       7.837   5.612  18.811  0.00  0.00    +0.000 A 
ATOM     14  C   UNL     1       7.546   5.042  17.577  0.00  0.00    +0.000 A 
ATOM     15  C   UNL     1       7.135   5.864  16.517  0.00  0.00    +0.000 A 
ATOM     16  C   UNL     1       7.373   7.241  16.593  0.00  0.00    +0.000 A 
BRANCH  11  17
ATOM     17  C   UNL     1       7.795   9.323  17.955  0.00  0.00    +0.000 C 
BRANCH  17  18
ATOM     18  C   UNL     1       9.143   9.768  18.527  0.00  0.00    +0.000 C 
BRANCH  18  24
ATOM     19  C   UNL     1      11.576  11.377  19.543  0.00  0.00    +0.000 C 
ATOM     20  N   UNL     1      10.476  11.903  18.792  0.00  0.00    +0.000 N 
ATOM     21  C   UNL     1      10.304  13.198  18.420  0.00  0.00    +0.000 A 
ATOM     22  N   UNL     1       9.186  13.314  17.743  0.00  0.00    +0.000 NA
ATOM     23  N   UNL     1       8.608  12.070  17.678  0.00  0.00    +0.000 NA
ATOM     24  C   UNL     1       9.392  11.216  18.309  0.00  0.00    +0.000 A 
ENDBRANCH  18  24
ENDBRANCH  17  18
ENDBRANCH  11  17
ENDBRANCH   1  15
BRANCH   8  25
ATOM     25  C   UNL     1       3.053   7.297  18.283  0.00  0.00    +0.000 C 
ATOM     26  F   UNL     1       4.054   8.174  18.003  0.00  0.00    +0.000 F 
ATOM     27  F   UNL     1       1.977   7.727  17.565  0.00  0.00    +0.000 F 
ATOM     28  F   UNL     1       2.735   7.497  19.591  0.00  0.00    +0.000 F 
ENDBRANCH   8  25
BRANCH   6  29
ATOM     29  O   UNL     1       3.212   2.704  19.869  0.00  0.00    +0.000 OA
BRANCH  29  30
ATOM     30  N   UNL     1       1.800   2.376  19.975  0.00  0.00    +0.000 NA
ATOM     31  H   UNL     1       1.572   2.225  18.993  0.00  0.00    +0.000 HD
ATOM     32  H   UNL     1       1.404   3.283  20.219  0.00  0.00    +0.000 HD
ENDBRANCH  29  30
ENDBRANCH   6  29
TORSDOF 7
ENDMDL
MODEL 6
REMARK VINA RESULT:      -8.3      1.134      1.434
REMARK  Name = 
REMARK  8 active torsions:
REMARK  status: ('A' for Active; 'I' for Inactive)
REMARK    1  A    between atoms: C_1  and  N_2
REMARK    2  A    between atoms: C_6  and  C_7
REMARK    3  A    between atoms: C_7  and  C_8
REMARK    4  A    between atoms: C_8  and  C_9
REMARK    5  A    between atoms: C_13  and  N_14
REMARK    6  A    between atoms: C_19  and  O_20
REMARK    7  A    between atoms: O_20  and  N_21
REMARK    8  A    between atoms: C_23  and  C_24
REMARK                            x       y       z     vdW  Elec       q    Type
REMARK                         _______ _______ _______ _____ _____    ______ ____
ROOT
ATOM      1  N   UNL     1       4.056   4.728  19.246  0.00  0.00    +0.000 N 
ATOM      2  C   UNL     1       5.403   5.332  19.399  0.00  0.00    +0.000 C 
ATOM      3  C   UNL     1       6.010   5.085  18.050  0.00  0.00    +0.000 A 
ATOM      4  C   UNL     1       5.402   3.939  17.526  0.00  0.00    +0.000 A 
ATOM      5  C   UNL     1       5.577   3.520  16.221  0.00  0.00    +0.000 A 
ATOM      6  C   UNL     1       6.384   4.309  15.402  0.00  0.00    +0.000 A 
ATOM      7  C   UNL     1       7.000   5.470  15.914  0.00  0.00    +0.000 A 
ATOM      8  C   UNL     1       6.827   5.881  17.254  0.00  0.00    +0.000 A 
ATOM      9  C   UNL     1       4.242   3.614  18.388  0.00  0.00    +0.000 C 
ATOM     10  O   UNL     1       3.493   2.670  18.199  0.00  0.00    +0.000 OA
ENDROOT
BRANCH   1  15
ATOM     11  C   UNL     1       2.051   7.760  19.566  0.00  0.00    +0.000 A 
ATOM     12  C   UNL     1       2.490   8.407  18.402  0.00  0.00    +0.000 A 
ATOM     13  C   UNL     1       3.049   7.680  17.358  0.00  0.00    +0.000 A 
ATOM     14  C   UNL     1       3.293   6.321  17.517  0.00  0.00    +0.000 A 
ATOM     15  C   UNL     1       3.105   5.728  18.775  0.00  0.00    +0.000 A 
ATOM     16  C   UNL     1       2.342   6.402  19.736  0.00  0.00    +0.000 A 
BRANCH  11  17
ATOM     17  C   UNL     1       1.387   8.540  20.675  0.00  0.00    +0.000 C 
BRANCH  17  18
ATOM     18  C   UNL     1       0.322   9.499  20.135  0.00  0.00    +0.000 C 
BRANCH  18  24
ATOM     19  C   UNL     1       1.678  11.852  18.665  0.00  0.00    +0.000 C 
ATOM     20  N   UNL     1       1.122  11.896  19.984  0.00  0.00    +0.000 N 
ATOM     21  C   UNL     1       1.116  12.967  20.818  0.00  0.00    +0.000 A 
ATOM     22  N   UNL     1       0.522  12.643  21.942  0.00  0.00    +0.000 NA
ATOM     23  N   UNL     1       0.137  11.329  21.846  0.00  0.00    +0.000 NA
ATOM     24  C   UNL     1       0.497  10.879  20.659  0.00  0.00    +0.000 A 
ENDBRANCH  18  24
ENDBRANCH  17  18
ENDBRANCH  11  17
ENDBRANCH   1  15
BRANCH   8  25
ATOM     25  C   UNL     1       7.408   7.199  17.698  0.00  0.00    +0.000 C 
ATOM     26  F   UNL     1       8.151   7.127  18.835  0.00  0.00    +0.000 F 
ATOM     27  F   UNL     1       8.231   7.738  16.755  0.00  0.00    +0.000 F 
ATOM     28  F   UNL     1       6.449   8.134  17.936  0.00  0.00    +0.000 F 
ENDBRANCH   8  25
BRANCH   6  29
ATOM     29  O   UNL     1       6.514   4.122  14.041  0.00  0.00    +0.000 OA
BRANCH  29  30
ATOM     30  N   UNL     1       7.341   5.156  13.441  0.00  0.00    +0.000 NA
ATOM     31  H   UNL     1       8.049   5.269  14.166  0.00  0.00    +0.000 HD
ATOM     32  H   UNL     1       6.729   5.968  13.517  0.00  0.00    +0.000 HD
ENDBRANCH  29  30
ENDBRANCH   6  29
TORSDOF 7
ENDMDL
MODEL 7
REMARK VINA RESULT:      -8.2      1.066      1.428
REMARK  Name = 
REMARK  8 active torsions:
REMARK  status: ('A' for Active; 'I' for Inactive)
REMARK    1  A    between atoms: C_1  and  N_2
REMARK    2  A    between atoms: C_6  and  C_7
REMARK    3  A    between atoms: C_7  and  C_8
REMARK    4  A    between atoms: C_8  and  C_9
REMARK    5  A    between atoms: C_13  and  N_14
REMARK    6  A    between atoms: C_19  and  O_20
REMARK    7  A    between atoms: O_20  and  N_21
REMARK    8  A    between atoms: C_23  and  C_24
REMARK                            x       y       z     vdW  Elec       q    Type
REMARK                         _______ _______ _______ _____ _____    ______ ____
ROOT
ATOM      1  N   UNL     1       3.232   3.803  18.776  0.00  0.00    +0.000 N 
ATOM      2  C   UNL     1       4.604   3.973  19.315  0.00  0.00    +0.000 C 
ATOM      3  C   UNL     1       5.420   4.090  18.063  0.00  0.00    +0.000 A 
ATOM      4  C   UNL     1       4.741   3.389  17.060  0.00  0.00    +0.000 A 
ATOM      5  C   UNL     1       5.100   3.437  15.726  0.00  0.00    +0.000 A 
ATOM      6  C   UNL     1       6.181   4.251  15.388  0.00  0.00    +0.000 A 
ATOM      7  C   UNL     1       6.873   4.969  16.387  0.00  0.00    +0.000 A 
ATOM      8  C   UNL     1       6.505   4.900  17.749  0.00  0.00    +0.000 A 
ATOM      9  C   UNL     1       3.392   3.062  17.578  0.00  0.00    +0.000 C 
ATOM     10  O   UNL     1       2.544   2.457  16.943  0.00  0.00    +0.000 OA
ENDROOT
BRANCH   1  15
ATOM     11  C   UNL     1       1.822   6.932  20.018  0.00  0.00    +0.000 A 
ATOM     12  C   UNL     1       2.567   7.812  19.220  0.00  0.00    +0.000 A 
ATOM     13  C   UNL     1       3.145   7.372  18.035  0.00  0.00    +0.000 A 
ATOM     14  C   UNL     1       3.093   6.024  17.700  0.00  0.00    +0.000 A 
ATOM     15  C   UNL     1       2.584   5.102  18.627  0.00  0.00    +0.000 A 
ATOM     16  C   UNL     1       1.813   5.570  19.698  0.00  0.00    +0.000 A 
BRANCH  11  17
ATOM     17  C   UNL     1       1.142   7.423  21.273  0.00  0.00    +0.000 C 
BRANCH  17  18
ATOM     18  C   UNL     1       1.648   8.806  21.690  0.00  0.00    +0.000 C 
BRANCH  18  24
ATOM     19  C   UNL     1      -0.034  10.671  19.893  0.00  0.00    +0.000 C 
ATOM     20  N   UNL     1      -0.170  10.525  21.311  0.00  0.00    +0.000 N 
ATOM     21  C   UNL     1      -1.042  11.195  22.108  0.00  0.00    +0.000 A 
ATOM     22  N   UNL     1      -0.886  10.807  23.351  0.00  0.00    +0.000 NA
ATOM     23  N   UNL     1       0.115   9.868  23.371  0.00  0.00    +0.000 NA
ATOM     24  C   UNL     1       0.544   9.694  22.136  0.00  0.00    +0.000 A 
ENDBRANCH  18  24
ENDBRANCH  17  18
ENDBRANCH  11  17
ENDBRANCH   1  15
BRANCH   8  25
ATOM     25  C   UNL     1       7.205   5.792  18.743  0.00  0.00    +0.000 C 
ATOM     26  F   UNL     1       6.492   6.031  19.876  0.00  0.00    +0.000 F 
ATOM     27  F   UNL     1       8.390   5.263  19.159  0.00  0.00    +0.000 F 
ATOM     28  F   UNL     1       7.502   7.013  18.223  0.00  0.00    +0.000 F 
ENDBRANCH   8  25
BRANCH   6  29
ATOM     29  O   UNL     1       6.549   4.540  14.091  0.00  0.00    +0.000 OA
BRANCH  29  30
ATOM     30  N   UNL     1       6.234   3.442  13.193  0.00  0.00    +0.000 NA
ATOM     31  H   UNL     1       5.253   3.640  12.997  0.00  0.00    +0.000 HD
ATOM     32  H   UNL     1       6.238   2.652  13.838  0.00  0.00    +0.000 HD
ENDBRANCH  29  30
ENDBRANCH   6  29
TORSDOF 7
ENDMDL
MODEL 8
REMARK VINA RESULT:      -8.2      3.842      5.232
REMARK  Name = 
REMARK  8 active torsions:
REMARK  status: ('A' for Active; 'I' for Inactive)
REMARK    1  A    between atoms: C_1  and  N_2
REMARK    2  A    between atoms: C_6  and  C_7
REMARK    3  A    between atoms: C_7  and  C_8
REMARK    4  A    between atoms: C_8  and  C_9
REMARK    5  A    between atoms: C_13  and  N_14
REMARK    6  A    between atoms: C_19  and  O_20
REMARK    7  A    between atoms: O_20  and  N_21
REMARK    8  A    between atoms: C_23  and  C_24
REMARK                            x       y       z     vdW  Elec       q    Type
REMARK                         _______ _______ _______ _____ _____    ______ ____
ROOT
ATOM      1  N   UNL     1       2.998   5.712  17.423  0.00  0.00    +0.000 N 
ATOM      2  C   UNL     1       1.933   4.720  17.709  0.00  0.00    +0.000 C 
ATOM      3  C   UNL     1       2.635   3.764  18.627  0.00  0.00    +0.000 A 
ATOM      4  C   UNL     1       3.997   3.814  18.312  0.00  0.00    +0.000 A 
ATOM      5  C   UNL     1       4.974   3.206  19.077  0.00  0.00    +0.000 A 
ATOM      6  C   UNL     1       4.556   2.537  20.228  0.00  0.00    +0.000 A 
ATOM      7  C   UNL     1       3.186   2.482  20.562  0.00  0.00    +0.000 A 
ATOM      8  C   UNL     1       2.195   3.095  19.763  0.00  0.00    +0.000 A 
ATOM      9  C   UNL     1       4.206   4.969  17.408  0.00  0.00    +0.000 C 
ATOM     10  O   UNL     1       5.289   5.295  16.952  0.00  0.00    +0.000 OA
ENDROOT
BRANCH   1  15
ATOM     11  C   UNL     1       1.803   8.914  18.703  0.00  0.00    +0.000 A 
ATOM     12  C   UNL     1       1.405   8.479  19.975  0.00  0.00    +0.000 A 
ATOM     13  C   UNL     1       1.933   7.314  20.520  0.00  0.00    +0.000 A 
ATOM     14  C   UNL     1       2.764   6.508  19.752  0.00  0.00    +0.000 A 
ATOM     15  C   UNL     1       2.946   6.802  18.392  0.00  0.00    +0.000 A 
ATOM     16  C   UNL     1       2.602   8.074  17.920  0.00  0.00    +0.000 A 
BRANCH  11  17
ATOM     17  C   UNL     1       1.278  10.211  18.136  0.00  0.00    +0.000 C 
BRANCH  17  18
ATOM     18  C   UNL     1       0.131  10.775  18.978  0.00  0.00    +0.000 C 
BRANCH  18  24
ATOM     19  C   UNL     1      -2.446  12.331  19.672  0.00  0.00    +0.000 C 
ATOM     20  N   UNL     1      -2.310  11.351  18.636  0.00  0.00    +0.000 N 
ATOM     21  C   UNL     1      -3.292  10.923  17.802  0.00  0.00    +0.000 A 
ATOM     22  N   UNL     1      -2.807  10.022  16.981  0.00  0.00    +0.000 NA
ATOM     23  N   UNL     1      -1.481   9.849  17.289  0.00  0.00    +0.000 NA
ATOM     24  C   UNL     1      -1.180  10.657  18.288  0.00  0.00    +0.000 A 
ENDBRANCH  18  24
ENDBRANCH  17  18
ENDBRANCH  11  17
ENDBRANCH   1  15
BRANCH   8  25
ATOM     25  C   UNL     1       0.768   3.107  20.247  0.00  0.00    +0.000 C 
ATOM     26  F   UNL     1       0.227   4.351  20.359  0.00  0.00    +0.000 F 
ATOM     27  F   UNL     1      -0.062   2.420  19.413  0.00  0.00    +0.000 F 
ATOM     28  F   UNL     1       0.631   2.529  21.472  0.00  0.00    +0.000 F 
ENDBRANCH   8  25
BRANCH   6  29
ATOM     29  O   UNL     1       5.417   2.034  21.180  0.00  0.00    +0.000 OA
BRANCH  29  30
ATOM     30  N   UNL     1       5.616   0.605  21.013  0.00  0.00    +0.000 NA
ATOM     31  H   UNL     1       5.005   0.247  21.748  0.00  0.00    +0.000 HD
ATOM     32  H   UNL     1       6.568   0.495  21.361  0.00  0.00    +0.000 HD
ENDBRANCH  29  30
ENDBRANCH   6  29
TORSDOF 7
ENDMDL
MODEL 9
REMARK VINA RESULT:      -8.1      1.390      1.632
REMARK  Name = 
REMARK  8 active torsions:
REMARK  status: ('A' for Active; 'I' for Inactive)
REMARK    1  A    between atoms: C_1  and  N_2
REMARK    2  A    between atoms: C_6  and  C_7
REMARK    3  A    between atoms: C_7  and  C_8
REMARK    4  A    between atoms: C_8  and  C_9
REMARK    5  A    between atoms: C_13  and  N_14
REMARK    6  A    between atoms: C_19  and  O_20
REMARK    7  A    between atoms: O_20  and  N_21
REMARK    8  A    between atoms: C_23  and  C_24
REMARK                            x       y       z     vdW  Elec       q    Type
REMARK                         _______ _______ _______ _____ _____    ______ ____
ROOT
ATOM      1  N   UNL     1       3.177   3.927  18.765  0.00  0.00    +0.000 N 
ATOM      2  C   UNL     1       4.547   4.045  19.322  0.00  0.00    +0.000 C 
ATOM      3  C   UNL     1       5.383   4.129  18.080  0.00  0.00    +0.000 A 
ATOM      4  C   UNL     1       4.691   3.452  17.070  0.00  0.00    +0.000 A 
ATOM      5  C   UNL     1       5.069   3.484  15.741  0.00  0.00    +0.000 A 
ATOM      6  C   UNL     1       6.185   4.255  15.416  0.00  0.00    +0.000 A 
ATOM      7  C   UNL     1       6.890   4.948  16.423  0.00  0.00    +0.000 A 
ATOM      8  C   UNL     1       6.503   4.895  17.780  0.00  0.00    +0.000 A 
ATOM      9  C   UNL     1       3.324   3.178  17.570  0.00  0.00    +0.000 C 
ATOM     10  O   UNL     1       2.462   2.604  16.925  0.00  0.00    +0.000 OA
ENDROOT
BRANCH   1  15
ATOM     11  C   UNL     1       2.119   7.216  19.941  0.00  0.00    +0.000 A 
ATOM     12  C   UNL     1       2.787   7.990  18.981  0.00  0.00    +0.000 A 
ATOM     13  C   UNL     1       3.166   7.433  17.765  0.00  0.00    +0.000 A 
ATOM     14  C   UNL     1       2.999   6.070  17.547  0.00  0.00    +0.000 A 
ATOM     15  C   UNL     1       2.581   5.249  18.606  0.00  0.00    +0.000 A 
ATOM     16  C   UNL     1       1.996   5.838  19.733  0.00  0.00    +0.000 A 
BRANCH  11  17
ATOM     17  C   UNL     1       1.651   7.835  21.235  0.00  0.00    +0.000 C 
BRANCH  17  18
ATOM     18  C   UNL     1       0.338   8.602  21.057  0.00  0.00    +0.000 C 
BRANCH  18  24
ATOM     19  C   UNL     1      -0.147  10.258  18.495  0.00  0.00    +0.000 C 
ATOM     20  N   UNL     1       0.353  10.763  19.739  0.00  0.00    +0.000 N 
ATOM     21  C   UNL     1       0.720  12.045  19.995  0.00  0.00    +0.000 A 
ATOM     22  N   UNL     1       1.129  12.142  21.238  0.00  0.00    +0.000 NA
ATOM     23  N   UNL     1       1.036  10.896  21.806  0.00  0.00    +0.000 NA
ATOM     24  C   UNL     1       0.562  10.063  20.899  0.00  0.00    +0.000 A 
ENDBRANCH  18  24
ENDBRANCH  17  18
ENDBRANCH  11  17
ENDBRANCH   1  15
BRANCH   8  25
ATOM     25  C   UNL     1       7.223   5.762  18.781  0.00  0.00    +0.000 C 
ATOM     26  F   UNL     1       7.544   7.000  18.319  0.00  0.00    +0.000 F 
ATOM     27  F   UNL     1       6.480   5.970  19.904  0.00  0.00    +0.000 F 
ATOM     28  F   UNL     1       8.391   5.206  19.202  0.00  0.00    +0.000 F 
ENDBRANCH   8  25
BRANCH   6  29
ATOM     29  O   UNL     1       6.581   4.527  14.123  0.00  0.00    +0.000 OA
BRANCH  29  30
ATOM     30  N   UNL     1       7.689   5.467  14.095  0.00  0.00    +0.000 NA
ATOM     31  H   UNL     1       7.301   6.191  13.491  0.00  0.00    +0.000 HD
ATOM     32  H   UNL     1       8.365   4.959  13.525  0.00  0.00    +0.000 HD
ENDBRANCH  29  30
ENDBRANCH   6  29
TORSDOF 7
ENDMDL
