MODEL 1
REMARK VINA RESULT:      -8.6      0.000      0.000
REMARK  Name = 
REMARK  5 active torsions:
REMARK  status: ('A' for Active; 'I' for Inactive)
REMARK    1  A    between atoms: C_1  and  C_2
REMARK    2  A    between atoms: C_4  and  C_5
REMARK    3  A    between atoms: N_7  and  C_8
REMARK    4  A    between atoms: C_8  and  C_9
REMARK    5  A    between atoms: C_9  and  O_11
REMARK                            x       y       z     vdW  Elec       q    Type
REMARK                         _______ _______ _______ _____ _____    ______ ____
ROOT
ATOM      1  C   UNL     1       1.974   7.900  19.431  0.00  0.00    +0.000 C 
ATOM      2  O   UNL     1       1.868   8.015  20.650  0.00  0.00    +0.000 OA
ATOM      3  N   UNL     1       1.426   8.825  18.565  0.00  0.00    +0.000 N 
ATOM      4  H   UNL     1       1.503   8.701  17.559  0.00  0.00    +0.000 HD
ENDROOT
BRANCH   1   8
ATOM      5  C   UNL     1       5.168   6.015  16.084  0.00  0.00    +0.000 C 
ATOM      6  C   UNL     1       4.189   5.856  17.208  0.00  0.00    +0.000 A 
ATOM      7  C   UNL     1       3.634   6.955  17.841  0.00  0.00    +0.000 A 
ATOM      8  C   UNL     1       2.695   6.734  18.851  0.00  0.00    +0.000 A 
ATOM      9  C   UNL     1       2.342   5.405  19.227  0.00  0.00    +0.000 A 
ATOM     10  C   UNL     1       1.447   5.043  20.273  0.00  0.00    +0.000 A 
ATOM     11  C   UNL     1       1.119   3.711  20.532  0.00  0.00    +0.000 A 
ATOM     12  C   UNL     1       1.682   2.711  19.757  0.00  0.00    +0.000 A 
ATOM     13  C   UNL     1       2.591   3.049  18.755  0.00  0.00    +0.000 A 
ATOM     14  C   UNL     1       2.943   4.368  18.489  0.00  0.00    +0.000 A 
ATOM     15  N   UNL     1       3.841   4.588  17.516  0.00  0.00    +0.000 NA
ENDBRANCH   1   8
BRANCH   3  16
ATOM     16  C   UNL     1       0.756  10.068  19.018  0.00  0.00    +0.000 C 
ATOM     17  C   UNL     1       0.529  10.075  20.553  0.00  0.00    +0.000 C 
ATOM     18  C   UNL     1      -0.679  10.955  20.679  0.00  0.00    +0.000 A 
ATOM     19  C   UNL     1      -1.137  11.600  21.814  0.00  0.00    +0.000 A 
ATOM     20  C   UNL     1      -2.213  12.478  21.682  0.00  0.00    +0.000 A 
ATOM     21  C   UNL     1      -2.820  12.684  20.433  0.00  0.00    +0.000 A 
ATOM     22  C   UNL     1      -2.377  11.998  19.301  0.00  0.00    +0.000 A 
ATOM     23  C   UNL     1      -1.303  11.136  19.437  0.00  0.00    +0.000 A 
ATOM     24  C   UNL     1      -0.630  10.322  18.368  0.00  0.00    +0.000 C 
BRANCH  16  25
ATOM     25  C   UNL     1       1.705  11.213  18.563  0.00  0.00    +0.000 C 
ATOM     26  O   UNL     1       1.932  12.194  19.272  0.00  0.00    +0.000 OA
BRANCH  25  27
ATOM     27  O   UNL     1       2.321  11.083  17.366  0.00  0.00    +0.000 OA
ATOM     28  H   UNL     1       2.256  10.213  16.925  0.00  0.00    +0.000 HD
ENDBRANCH  25  27
ENDBRANCH  16  25
ENDBRANCH   3  16
TORSDOF 4
ENDMDL
MODEL 2
REMARK VINA RESULT:      -8.5      1.468      1.878
REMARK  Name = 
REMARK  5 active torsions:
REMARK  status: ('A' for Active; 'I' for Inactive)
REMARK    1  A    between atoms: C_1  and  C_2
REMARK    2  A    between atoms: C_4  and  C_5
REMARK    3  A    between atoms: N_7  and  C_8
REMARK    4  A    between atoms: C_8  and  C_9
REMARK    5  A    between atoms: C_9  and  O_11
REMARK                            x       y       z     vdW  Elec       q    Type
REMARK                         _______ _______ _______ _____ _____    ______ ____
ROOT
ATOM      1  C   UNL     1       1.770   8.210  19.730  0.00  0.00    +0.000 C 
ATOM      2  O   UNL     1       1.783   8.295  20.956  0.00  0.00    +0.000 OA
ATOM      3  N   UNL     1       1.059   9.097  18.948  0.00  0.00    +0.000 N 
ATOM      4  H   UNL     1       1.040   8.997  17.937  0.00  0.00    +0.000 HD
ENDROOT
BRANCH   1   8
ATOM      5  C   UNL     1       4.961   6.708  16.191  0.00  0.00    +0.000 C 
ATOM      6  C   UNL     1       4.013   6.427  17.318  0.00  0.00    +0.000 A 
ATOM      7  C   UNL     1       3.431   7.453  18.043  0.00  0.00    +0.000 A 
ATOM      8  C   UNL     1       2.522   7.120  19.049  0.00  0.00    +0.000 A 
ATOM      9  C   UNL     1       2.228   5.753  19.330  0.00  0.00    +0.000 A 
ATOM     10  C   UNL     1       1.369   5.278  20.361  0.00  0.00    +0.000 A 
ATOM     11  C   UNL     1       1.096   3.920  20.524  0.00  0.00    +0.000 A 
ATOM     12  C   UNL     1       1.680   3.003  19.665  0.00  0.00    +0.000 A 
ATOM     13  C   UNL     1       2.554   3.452  18.675  0.00  0.00    +0.000 A 
ATOM     14  C   UNL     1       2.851   4.799  18.504  0.00  0.00    +0.000 A 
ATOM     15  N   UNL     1       3.720   5.127  17.535  0.00  0.00    +0.000 NA
ENDBRANCH   1   8
BRANCH   3  16
ATOM     16  C   UNL     1       0.337  10.271  19.499  0.00  0.00    +0.000 C 
ATOM     17  C   UNL     1       1.292  11.469  19.750  0.00  0.00    +0.000 C 
ATOM     18  C   UNL     1       0.592  12.187  20.865  0.00  0.00    +0.000 A 
ATOM     19  C   UNL     1       0.783  13.495  21.276  0.00  0.00    +0.000 A 
ATOM     20  C   UNL     1      -0.067  14.006  22.256  0.00  0.00    +0.000 A 
ATOM     21  C   UNL     1      -1.075  13.206  22.819  0.00  0.00    +0.000 A 
ATOM     22  C   UNL     1      -1.233  11.875  22.427  0.00  0.00    +0.000 A 
ATOM     23  C   UNL     1      -0.393  11.378  21.447  0.00  0.00    +0.000 A 
ATOM     24  C   UNL     1      -0.393  10.002  20.841  0.00  0.00    +0.000 C 
BRANCH  16  25
ATOM     25  C   UNL     1      -0.746  10.600  18.432  0.00  0.00    +0.000 C 
ATOM     26  O   UNL     1      -1.705   9.856  18.224  0.00  0.00    +0.000 OA
BRANCH  25  27
ATOM     27  O   UNL     1      -0.630  11.764  17.754  0.00  0.00    +0.000 OA
ATOM     28  H   UNL     1       0.270  12.028  17.476  0.00  0.00    +0.000 HD
ENDBRANCH  25  27
ENDBRANCH  16  25
ENDBRANCH   3  16
TORSDOF 4
ENDMDL
MODEL 3
REMARK VINA RESULT:      -8.3      1.837      3.616
REMARK  Name = 
REMARK  5 active torsions:
REMARK  status: ('A' for Active; 'I' for Inactive)
REMARK    1  A    between atoms: C_1  and  C_2
REMARK    2  A    between atoms: C_4  and  C_5
REMARK    3  A    between atoms: N_7  and  C_8
REMARK    4  A    between atoms: C_8  and  C_9
REMARK    5  A    between atoms: C_9  and  O_11
REMARK                            x       y       z     vdW  Elec       q    Type
REMARK                         _______ _______ _______ _____ _____    ______ ____
ROOT
ATOM      1  C   UNL     1       1.844   7.689  19.849  0.00  0.00    +0.000 C 
ATOM      2  O   UNL     1       1.869   8.462  18.894  0.00  0.00    +0.000 OA
ATOM      3  N   UNL     1       1.340   8.068  21.077  0.00  0.00    +0.000 N 
ATOM      4  H   UNL     1       1.349   7.423  21.862  0.00  0.00    +0.000 HD
ENDROOT
BRANCH   1   8
ATOM      5  C   UNL     1       2.266   3.011  21.551  0.00  0.00    +0.000 C 
ATOM      6  C   UNL     1       2.602   4.093  20.569  0.00  0.00    +0.000 A 
ATOM      7  C   UNL     1       1.986   5.331  20.623  0.00  0.00    +0.000 A 
ATOM      8  C   UNL     1       2.379   6.307  19.705  0.00  0.00    +0.000 A 
ATOM      9  C   UNL     1       3.374   6.015  18.725  0.00  0.00    +0.000 A 
ATOM     10  C   UNL     1       3.822   6.896  17.701  0.00  0.00    +0.000 A 
ATOM     11  C   UNL     1       4.844   6.541  16.821  0.00  0.00    +0.000 A 
ATOM     12  C   UNL     1       5.438   5.295  16.937  0.00  0.00    +0.000 A 
ATOM     13  C   UNL     1       4.982   4.407  17.912  0.00  0.00    +0.000 A 
ATOM     14  C   UNL     1       3.956   4.735  18.790  0.00  0.00    +0.000 A 
ATOM     15  N   UNL     1       3.576   3.804  19.680  0.00  0.00    +0.000 NA
ENDBRANCH   1   8
BRANCH   3  16
ATOM     16  C   UNL     1       0.706   9.386  21.326  0.00  0.00    +0.000 C 
ATOM     17  C   UNL     1      -0.522   9.618  20.405  0.00  0.00    +0.000 C 
ATOM     18  C   UNL     1      -0.547  11.114  20.302  0.00  0.00    +0.000 A 
ATOM     19  C   UNL     1      -1.602  11.913  19.900  0.00  0.00    +0.000 A 
ATOM     20  C   UNL     1      -1.454  13.297  19.999  0.00  0.00    +0.000 A 
ATOM     21  C   UNL     1      -0.257  13.856  20.477  0.00  0.00    +0.000 A 
ATOM     22  C   UNL     1       0.817  13.043  20.841  0.00  0.00    +0.000 A 
ATOM     23  C   UNL     1       0.659  11.671  20.750  0.00  0.00    +0.000 A 
ATOM     24  C   UNL     1       1.648  10.601  21.115  0.00  0.00    +0.000 C 
BRANCH  16  25
ATOM     25  C   UNL     1       0.311   9.352  22.830  0.00  0.00    +0.000 C 
ATOM     26  O   UNL     1       1.108   9.650  23.721  0.00  0.00    +0.000 OA
BRANCH  25  27
ATOM     27  O   UNL     1      -0.963   9.023  23.140  0.00  0.00    +0.000 OA
ATOM     28  H   UNL     1      -1.671   9.450  22.617  0.00  0.00    +0.000 HD
ENDBRANCH  25  27
ENDBRANCH  16  25
ENDBRANCH   3  16
TORSDOF 4
ENDMDL
MODEL 4
REMARK VINA RESULT:      -8.3      1.420      2.359
REMARK  Name = 
REMARK  5 active torsions:
REMARK  status: ('A' for Active; 'I' for Inactive)
REMARK    1  A    between atoms: C_1  and  C_2
REMARK    2  A    between atoms: C_4  and  C_5
REMARK    3  A    between atoms: N_7  and  C_8
REMARK    4  A    between atoms: C_8  and  C_9
REMARK    5  A    between atoms: C_9  and  O_11
REMARK                            x       y       z     vdW  Elec       q    Type
REMARK                         _______ _______ _______ _____ _____    ______ ____
ROOT
ATOM      1  C   UNL     1       1.802   8.386  19.027  0.00  0.00    +0.000 C 
ATOM      2  O   UNL     1       1.394   9.151  18.156  0.00  0.00    +0.000 OA
ATOM      3  N   UNL     1       1.512   8.585  20.362  0.00  0.00    +0.000 N 
ATOM      4  H   UNL     1       1.877   7.955  21.071  0.00  0.00    +0.000 HD
ENDROOT
BRANCH   1   8
ATOM      5  C   UNL     1       5.302   6.315  16.124  0.00  0.00    +0.000 C 
ATOM      6  C   UNL     1       4.285   6.239  17.223  0.00  0.00    +0.000 A 
ATOM      7  C   UNL     1       3.611   7.366  17.660  0.00  0.00    +0.000 A 
ATOM      8  C   UNL     1       2.645   7.215  18.658  0.00  0.00    +0.000 A 
ATOM      9  C   UNL     1       2.385   5.931  19.220  0.00  0.00    +0.000 A 
ATOM     10  C   UNL     1       1.473   5.650  20.275  0.00  0.00    +0.000 A 
ATOM     11  C   UNL     1       1.244   4.348  20.723  0.00  0.00    +0.000 A 
ATOM     12  C   UNL     1       1.925   3.298  20.131  0.00  0.00    +0.000 A 
ATOM     13  C   UNL     1       2.851   3.563  19.122  0.00  0.00    +0.000 A 
ATOM     14  C   UNL     1       3.105   4.853  18.671  0.00  0.00    +0.000 A 
ATOM     15  N   UNL     1       4.029   5.005  17.709  0.00  0.00    +0.000 NA
ENDBRANCH   1   8
BRANCH   3  16
ATOM     16  C   UNL     1       0.618   9.664  20.849  0.00  0.00    +0.000 C 
ATOM     17  C   UNL     1      -0.627   9.836  19.938  0.00  0.00    +0.000 C 
ATOM     18  C   UNL     1      -0.960  11.284  20.148  0.00  0.00    +0.000 A 
ATOM     19  C   UNL     1      -2.156  11.922  19.871  0.00  0.00    +0.000 A 
ATOM     20  C   UNL     1      -2.296  13.253  20.263  0.00  0.00    +0.000 A 
ATOM     21  C   UNL     1      -1.243  13.926  20.905  0.00  0.00    +0.000 A 
ATOM     22  C   UNL     1      -0.026  13.285  21.144  0.00  0.00    +0.000 A 
ATOM     23  C   UNL     1       0.102  11.962  20.761  0.00  0.00    +0.000 A 
ATOM     24  C   UNL     1       1.290  11.059  20.943  0.00  0.00    +0.000 C 
BRANCH  16  25
ATOM     25  C   UNL     1       0.231   9.230  22.291  0.00  0.00    +0.000 C 
ATOM     26  O   UNL     1       0.797   9.690  23.285  0.00  0.00    +0.000 OA
BRANCH  25  27
ATOM     27  O   UNL     1      -0.787   8.353  22.435  0.00  0.00    +0.000 OA
ATOM     28  H   UNL     1      -0.586   7.510  22.888  0.00  0.00    +0.000 HD
ENDBRANCH  25  27
ENDBRANCH  16  25
ENDBRANCH   3  16
TORSDOF 4
ENDMDL
MODEL 5
REMARK VINA RESULT:      -8.1      2.262      7.561
REMARK  Name = 
REMARK  5 active torsions:
REMARK  status: ('A' for Active; 'I' for Inactive)
REMARK    1  A    between atoms: C_1  and  C_2
REMARK    2  A    between atoms: C_4  and  C_5
REMARK    3  A    between atoms: N_7  and  C_8
REMARK    4  A    between atoms: C_8  and  C_9
REMARK    5  A    between atoms: C_9  and  O_11
REMARK                            x       y       z     vdW  Elec       q    Type
REMARK                         _______ _______ _______ _____ _____    ______ ____
ROOT
ATOM      1  C   UNL     1       2.041   8.188  18.422  0.00  0.00    +0.000 C 
ATOM      2  O   UNL     1       3.000   8.713  17.861  0.00  0.00    +0.000 OA
ATOM      3  N   UNL     1       1.986   6.827  18.643  0.00  0.00    +0.000 N 
ATOM      4  H   UNL     1       1.174   6.406  19.087  0.00  0.00    +0.000 HD
ENDROOT
BRANCH   1   8
ATOM      5  C   UNL     1      -1.705  11.321  17.368  0.00  0.00    +0.000 C 
ATOM      6  C   UNL     1      -0.861  10.554  18.341  0.00  0.00    +0.000 A 
ATOM      7  C   UNL     1       0.110   9.668  17.909  0.00  0.00    +0.000 A 
ATOM      8  C   UNL     1       0.890   9.021  18.870  0.00  0.00    +0.000 A 
ATOM      9  C   UNL     1       0.665   9.257  20.258  0.00  0.00    +0.000 A 
ATOM     10  C   UNL     1       1.348   8.623  21.334  0.00  0.00    +0.000 A 
ATOM     11  C   UNL     1       1.097   8.961  22.664  0.00  0.00    +0.000 A 
ATOM     12  C   UNL     1       0.156   9.936  22.951  0.00  0.00    +0.000 A 
ATOM     13  C   UNL     1      -0.547  10.538  21.908  0.00  0.00    +0.000 A 
ATOM     14  C   UNL     1      -0.324  10.206  20.576  0.00  0.00    +0.000 A 
ATOM     15  N   UNL     1      -1.066  10.828  19.647  0.00  0.00    +0.000 NA
ENDBRANCH   1   8
BRANCH   3  16
ATOM     16  C   UNL     1       3.100   5.903  18.318  0.00  0.00    +0.000 C 
ATOM     17  C   UNL     1       4.248   5.996  19.358  0.00  0.00    +0.000 C 
ATOM     18  C   UNL     1       5.437   5.596  18.535  0.00  0.00    +0.000 A 
ATOM     19  C   UNL     1       6.671   5.167  18.991  0.00  0.00    +0.000 A 
ATOM     20  C   UNL     1       7.600   4.720  18.051  0.00  0.00    +0.000 A 
ATOM     21  C   UNL     1       7.291   4.724  16.681  0.00  0.00    +0.000 A 
ATOM     22  C   UNL     1       6.058   5.196  16.228  0.00  0.00    +0.000 A 
ATOM     23  C   UNL     1       5.138   5.629  17.166  0.00  0.00    +0.000 A 
ATOM     24  C   UNL     1       3.745   6.141  16.928  0.00  0.00    +0.000 C 
BRANCH  16  25
ATOM     25  C   UNL     1       2.445   4.492  18.296  0.00  0.00    +0.000 C 
ATOM     26  O   UNL     1       2.677   3.651  19.166  0.00  0.00    +0.000 OA
BRANCH  25  27
ATOM     27  O   UNL     1       1.566   4.220  17.305  0.00  0.00    +0.000 OA
ATOM     28  H   UNL     1       0.618   4.354  17.504  0.00  0.00    +0.000 HD
ENDBRANCH  25  27
ENDBRANCH  16  25
ENDBRANCH   3  16
TORSDOF 4
ENDMDL
MODEL 6
REMARK VINA RESULT:      -8.1      1.891      2.608
REMARK  Name = 
REMARK  5 active torsions:
REMARK  status: ('A' for Active; 'I' for Inactive)
REMARK    1  A    between atoms: C_1  and  C_2
REMARK    2  A    between atoms: C_4  and  C_5
REMARK    3  A    between atoms: N_7  and  C_8
REMARK    4  A    between atoms: C_8  and  C_9
REMARK    5  A    between atoms: C_9  and  O_11
REMARK                            x       y       z     vdW  Elec       q    Type
REMARK                         _______ _______ _______ _____ _____    ______ ____
ROOT
ATOM      1  C   UNL     1       2.767   7.756  18.014  0.00  0.00    +0.000 C 
ATOM      2  O   UNL     1       2.572   8.528  17.078  0.00  0.00    +0.000 OA
ATOM      3  N   UNL     1       2.184   7.953  19.249  0.00  0.00    +0.000 N 
ATOM      4  H   UNL     1       2.376   7.317  20.020  0.00  0.00    +0.000 HD
ENDROOT
BRANCH   1   8
ATOM      5  C   UNL     1       7.218   5.852  16.778  0.00  0.00    +0.000 C 
ATOM      6  C   UNL     1       5.787   5.697  17.195  0.00  0.00    +0.000 A 
ATOM      7  C   UNL     1       5.002   6.795  17.500  0.00  0.00    +0.000 A 
ATOM      8  C   UNL     1       3.664   6.580  17.838  0.00  0.00    +0.000 A 
ATOM      9  C   UNL     1       3.138   5.256  17.888  0.00  0.00    +0.000 A 
ATOM     10  C   UNL     1       1.815   4.896  18.271  0.00  0.00    +0.000 A 
ATOM     11  C   UNL     1       1.373   3.574  18.235  0.00  0.00    +0.000 A 
ATOM     12  C   UNL     1       2.242   2.578  17.821  0.00  0.00    +0.000 A 
ATOM     13  C   UNL     1       3.553   2.912  17.480  0.00  0.00    +0.000 A 
ATOM     14  C   UNL     1       4.019   4.221  17.523  0.00  0.00    +0.000 A 
ATOM     15  N   UNL     1       5.303   4.436  17.194  0.00  0.00    +0.000 NA
ENDBRANCH   1   8
BRANCH   3  16
ATOM     16  C   UNL     1       1.211   9.037  19.528  0.00  0.00    +0.000 C 
ATOM     17  C   UNL     1       0.001   8.989  18.557  0.00  0.00    +0.000 C 
ATOM     18  C   UNL     1      -0.420  10.428  18.525  0.00  0.00    +0.000 A 
ATOM     19  C   UNL     1      -1.636  10.941  18.108  0.00  0.00    +0.000 A 
ATOM     20  C   UNL     1      -1.868  12.305  18.280  0.00  0.00    +0.000 A 
ATOM     21  C   UNL     1      -0.884  13.133  18.846  0.00  0.00    +0.000 A 
ATOM     22  C   UNL     1       0.355  12.614  19.226  0.00  0.00    +0.000 A 
ATOM     23  C   UNL     1       0.574  11.258  19.061  0.00  0.00    +0.000 A 
ATOM     24  C   UNL     1       1.800  10.468  19.425  0.00  0.00    +0.000 C 
BRANCH  16  25
ATOM     25  C   UNL     1       0.784   8.809  21.006  0.00  0.00    +0.000 C 
ATOM     26  O   UNL     1      -0.398   8.688  21.333  0.00  0.00    +0.000 OA
BRANCH  25  27
ATOM     27  O   UNL     1       1.760   8.704  21.936  0.00  0.00    +0.000 OA
ATOM     28  H   UNL     1       2.628   9.095  21.713  0.00  0.00    +0.000 HD
ENDBRANCH  25  27
ENDBRANCH  16  25
ENDBRANCH   3  16
TORSDOF 4
ENDMDL
MODEL 7
REMARK VINA RESULT:      -8.1      2.251      7.396
REMARK  Name = 
REMARK  5 active torsions:
REMARK  status: ('A' for Active; 'I' for Inactive)
REMARK    1  A    between atoms: C_1  and  C_2
REMARK    2  A    between atoms: C_4  and  C_5
REMARK    3  A    between atoms: N_7  and  C_8
REMARK    4  A    between atoms: C_8  and  C_9
REMARK    5  A    between atoms: C_9  and  O_11
REMARK                            x       y       z     vdW  Elec       q    Type
REMARK                         _______ _______ _______ _____ _____    ______ ____
ROOT
ATOM      1  C   UNL     1       1.899   7.958  19.655  0.00  0.00    +0.000 C 
ATOM      2  O   UNL     1       1.598   7.114  20.496  0.00  0.00    +0.000 OA
ATOM      3  N   UNL     1       2.754   7.669  18.610  0.00  0.00    +0.000 N 
ATOM      4  H   UNL     1       3.010   8.386  17.937  0.00  0.00    +0.000 HD
ENDROOT
BRANCH   1   8
ATOM      5  C   UNL     1       1.735  12.677  18.022  0.00  0.00    +0.000 C 
ATOM      6  C   UNL     1       1.330  11.598  18.981  0.00  0.00    +0.000 A 
ATOM      7  C   UNL     1       1.727  10.285  18.797  0.00  0.00    +0.000 A 
ATOM      8  C   UNL     1       1.350   9.339  19.752  0.00  0.00    +0.000 A 
ATOM      9  C   UNL     1       0.556   9.724  20.873  0.00  0.00    +0.000 A 
ATOM     10  C   UNL     1       0.059   8.853  21.883  0.00  0.00    +0.000 A 
ATOM     11  C   UNL     1      -0.665   9.333  22.976  0.00  0.00    +0.000 A 
ATOM     12  C   UNL     1      -0.915  10.691  23.081  0.00  0.00    +0.000 A 
ATOM     13  C   UNL     1      -0.466  11.550  22.078  0.00  0.00    +0.000 A 
ATOM     14  C   UNL     1       0.244  11.093  20.974  0.00  0.00    +0.000 A 
ATOM     15  N   UNL     1       0.614  11.997  20.054  0.00  0.00    +0.000 NA
ENDBRANCH   1   8
BRANCH   3  16
ATOM     16  C   UNL     1       3.301   6.314  18.357  0.00  0.00    +0.000 C 
ATOM     17  C   UNL     1       2.247   5.378  17.707  0.00  0.00    +0.000 C 
ATOM     18  C   UNL     1       2.708   4.029  18.175  0.00  0.00    +0.000 A 
ATOM     19  C   UNL     1       2.373   2.795  17.647  0.00  0.00    +0.000 A 
ATOM     20  C   UNL     1       3.016   1.667  18.155  0.00  0.00    +0.000 A 
ATOM     21  C   UNL     1       3.965   1.785  19.185  0.00  0.00    +0.000 A 
ATOM     22  C   UNL     1       4.266   3.031  19.738  0.00  0.00    +0.000 A 
ATOM     23  C   UNL     1       3.631   4.146  19.223  0.00  0.00    +0.000 A 
ATOM     24  C   UNL     1       3.816   5.583  19.625  0.00  0.00    +0.000 C 
BRANCH  16  25
ATOM     25  C   UNL     1       4.523   6.553  17.425  0.00  0.00    +0.000 C 
ATOM     26  O   UNL     1       4.393   6.956  16.268  0.00  0.00    +0.000 OA
BRANCH  25  27
ATOM     27  O   UNL     1       5.757   6.346  17.936  0.00  0.00    +0.000 OA
ATOM     28  H   UNL     1       5.933   5.467  18.328  0.00  0.00    +0.000 HD
ENDBRANCH  25  27
ENDBRANCH  16  25
ENDBRANCH   3  16
TORSDOF 4
ENDMDL
MODEL 8
REMARK VINA RESULT:      -8.0      1.988      3.659
REMARK  Name = 
REMARK  5 active torsions:
REMARK  status: ('A' for Active; 'I' for Inactive)
REMARK    1  A    between atoms: C_1  and  C_2
REMARK    2  A    between atoms: C_4  and  C_5
REMARK    3  A    between atoms: N_7  and  C_8
REMARK    4  A    between atoms: C_8  and  C_9
REMARK    5  A    between atoms: C_9  and  O_11
REMARK                            x       y       z     vdW  Elec       q    Type
REMARK                         _______ _______ _______ _____ _____    ______ ____
ROOT
ATOM      1  C   UNL     1       2.207   8.150  18.463  0.00  0.00    +0.000 C 
ATOM      2  O   UNL     1       2.363   8.630  17.343  0.00  0.00    +0.000 OA
ATOM      3  N   UNL     1       1.666   8.885  19.499  0.00  0.00    +0.000 N 
ATOM      4  H   UNL     1       1.566   8.479  20.426  0.00  0.00    +0.000 HD
ENDROOT
BRANCH   1   8
ATOM      5  C   UNL     1       1.835   3.986  21.200  0.00  0.00    +0.000 C 
ATOM      6  C   UNL     1       2.454   4.787  20.094  0.00  0.00    +0.000 A 
ATOM      7  C   UNL     1       1.966   6.036  19.748  0.00  0.00    +0.000 A 
ATOM      8  C   UNL     1       2.618   6.745  18.738  0.00  0.00    +0.000 A 
ATOM      9  C   UNL     1       3.743   6.177  18.070  0.00  0.00    +0.000 A 
ATOM     10  C   UNL     1       4.459   6.768  16.991  0.00  0.00    +0.000 A 
ATOM     11  C   UNL     1       5.586   6.159  16.436  0.00  0.00    +0.000 A 
ATOM     12  C   UNL     1       6.019   4.945  16.941  0.00  0.00    +0.000 A 
ATOM     13  C   UNL     1       5.304   4.337  17.973  0.00  0.00    +0.000 A 
ATOM     14  C   UNL     1       4.171   4.918  18.531  0.00  0.00    +0.000 A 
ATOM     15  N   UNL     1       3.541   4.244  19.506  0.00  0.00    +0.000 NA
ENDBRANCH   1   8
BRANCH   3  16
ATOM     16  C   UNL     1       1.144  10.263  19.334  0.00  0.00    +0.000 C 
ATOM     17  C   UNL     1       2.024  11.102  18.368  0.00  0.00    +0.000 C 
ATOM     18  C   UNL     1       1.785  12.494  18.871  0.00  0.00    +0.000 A 
ATOM     19  C   UNL     1       2.027  13.683  18.206  0.00  0.00    +0.000 A 
ATOM     20  C   UNL     1       1.613  14.870  18.810  0.00  0.00    +0.000 A 
ATOM     21  C   UNL     1       0.985  14.854  20.066  0.00  0.00    +0.000 A 
ATOM     22  C   UNL     1       0.782  13.653  20.748  0.00  0.00    +0.000 A 
ATOM     23  C   UNL     1       1.187  12.478  20.138  0.00  0.00    +0.000 A 
ATOM     24  C   UNL     1       1.044  11.073  20.653  0.00  0.00    +0.000 C 
BRANCH  16  25
ATOM     25  C   UNL     1      -0.301  10.072  18.790  0.00  0.00    +0.000 C 
ATOM     26  O   UNL     1      -1.278  10.018  19.538  0.00  0.00    +0.000 OA
BRANCH  25  27
ATOM     27  O   UNL     1      -0.467  10.007  17.450  0.00  0.00    +0.000 OA
ATOM     28  H   UNL     1      -1.386  10.020  17.115  0.00  0.00    +0.000 HD
ENDBRANCH  25  27
ENDBRANCH  16  25
ENDBRANCH   3  16
TORSDOF 4
ENDMDL
MODEL 9
REMARK VINA RESULT:      -8.0      1.934      2.506
REMARK  Name = 
REMARK  5 active torsions:
REMARK  status: ('A' for Active; 'I' for Inactive)
REMARK    1  A    between atoms: C_1  and  C_2
REMARK    2  A    between atoms: C_4  and  C_5
REMARK    3  A    between atoms: N_7  and  C_8
REMARK    4  A    between atoms: C_8  and  C_9
REMARK    5  A    between atoms: C_9  and  O_11
REMARK                            x       y       z     vdW  Elec       q    Type
REMARK                         _______ _______ _______ _____ _____    ______ ____
ROOT
ATOM      1  C   UNL     1       2.484   7.336  18.860  0.00  0.00    +0.000 C 
ATOM      2  O   UNL     1       2.262   7.808  17.747  0.00  0.00    +0.000 OA
ATOM      3  N   UNL     1       1.998   7.926  20.009  0.00  0.00    +0.000 N 
ATOM      4  H   UNL     1       2.211   7.536  20.923  0.00  0.00    +0.000 HD
ENDROOT
BRANCH   1   8
ATOM      5  C   UNL     1       6.644   4.772  17.817  0.00  0.00    +0.000 C 
ATOM      6  C   UNL     1       5.286   4.886  18.442  0.00  0.00    +0.000 A 
ATOM      7  C   UNL     1       4.588   6.081  18.437  0.00  0.00    +0.000 A 
ATOM      8  C   UNL     1       3.309   6.104  18.998  0.00  0.00    +0.000 A 
ATOM      9  C   UNL     1       2.757   4.925  19.579  0.00  0.00    +0.000 A 
ATOM     10  C   UNL     1       1.495   4.827  20.230  0.00  0.00    +0.000 A 
ATOM     11  C   UNL     1       1.013   3.613  20.720  0.00  0.00    +0.000 A 
ATOM     12  C   UNL     1       1.781   2.470  20.577  0.00  0.00    +0.000 A 
ATOM     13  C   UNL     1       3.037   2.559  19.975  0.00  0.00    +0.000 A 
ATOM     14  C   UNL     1       3.543   3.760  19.493  0.00  0.00    +0.000 A 
ATOM     15  N   UNL     1       4.769   3.745  18.948  0.00  0.00    +0.000 NA
ENDBRANCH   1   8
BRANCH   3  16
ATOM     16  C   UNL     1       1.099   9.107  20.000  0.00  0.00    +0.000 C 
ATOM     17  C   UNL     1      -0.137   8.884  19.088  0.00  0.00    +0.000 C 
ATOM     18  C   UNL     1      -0.471  10.288  18.681  0.00  0.00    +0.000 A 
ATOM     19  C   UNL     1      -1.664  10.751  18.154  0.00  0.00    +0.000 A 
ATOM     20  C   UNL     1      -1.809  12.125  17.963  0.00  0.00    +0.000 A 
ATOM     21  C   UNL     1      -0.763  13.007  18.281  0.00  0.00    +0.000 A 
ATOM     22  C   UNL     1       0.452  12.526  18.774  0.00  0.00    +0.000 A 
ATOM     23  C   UNL     1       0.585  11.163  18.970  0.00  0.00    +0.000 A 
ATOM     24  C   UNL     1       1.770  10.420  19.519  0.00  0.00    +0.000 C 
BRANCH  16  25
ATOM     25  C   UNL     1       0.697   9.303  21.490  0.00  0.00    +0.000 C 
ATOM     26  O   UNL     1       1.364   9.996  22.260  0.00  0.00    +0.000 OA
BRANCH  25  27
ATOM     27  O   UNL     1      -0.445   8.719  21.918  0.00  0.00    +0.000 OA
ATOM     28  H   UNL     1      -1.252   9.272  21.919  0.00  0.00    +0.000 HD
ENDBRANCH  25  27
ENDBRANCH  16  25
ENDBRANCH   3  16
TORSDOF 4
ENDMDL
