MODEL 1
REMARK VINA RESULT:      -9.2      0.000      0.000
REMARK  Name = 
REMARK  6 active torsions:
REMARK  status: ('A' for Active; 'I' for Inactive)
REMARK    1  A    between atoms: C_1  and  C_2
REMARK    2  A    between atoms: C_5  and  C_6
REMARK    3  A    between atoms: C_9  and  C_10
REMARK    4  A    between atoms: C_10  and  C_11
REMARK    5  A    between atoms: C_15  and  O_16
REMARK    6  A    between atoms: O_16  and  C_17
REMARK                            x       y       z     vdW  Elec       q    Type
REMARK                         _______ _______ _______ _____ _____    ______ ____
ROOT
ATOM      1  C   UNL     1       2.533   4.987  19.527  0.00  0.00    +0.000 C 
ATOM      2  C   UNL     1       2.534   4.253  20.918  0.00  0.00    +0.000 C 
ATOM      3  C   UNL     1       1.088   3.817  20.604  0.00  0.00    +0.000 C 
ATOM      4  C   UNL     1       1.451   3.925  19.110  0.00  0.00    +0.000 C 
ENDROOT
BRANCH   1   5
ATOM      5  C   UNL     1       2.091   6.543  19.566  0.00  0.00    +0.000 A 
ATOM      6  C   UNL     1       2.015   7.351  18.414  0.00  0.00    +0.000 A 
ATOM      7  C   UNL     1       1.700   8.710  18.489  0.00  0.00    +0.000 A 
ATOM      8  C   UNL     1       1.421   9.295  19.724  0.00  0.00    +0.000 A 
ATOM      9  C   UNL     1       1.436   8.522  20.883  0.00  0.00    +0.000 A 
ATOM     10  C   UNL     1       1.781   7.173  20.794  0.00  0.00    +0.000 A 
BRANCH   9  11
ATOM     11  O   UNL     1       1.153   9.200  22.027  0.00  0.00    +0.000 OA
BRANCH  11  12
ATOM     12  C   UNL     1      -0.196   9.370  22.436  0.00  0.00    +0.000 C 
ATOM     13  F   UNL     1      -0.800  10.466  21.927  0.00  0.00    +0.000 F 
ATOM     14  F   UNL     1      -0.914   8.280  22.089  0.00  0.00    +0.000 F 
ATOM     15  F   UNL     1      -0.222   9.478  23.783  0.00  0.00    +0.000 F 
ENDBRANCH  11  12
ENDBRANCH   9  11
ENDBRANCH   1   5
BRANCH   1  19
ATOM     16  C   UNL     1       5.372   4.696  17.303  0.00  0.00    +0.000 A 
ATOM     17  N   UNL     1       6.022   4.440  18.447  0.00  0.00    +0.000 NA
ATOM     18  O   UNL     1       5.044   4.548  19.429  0.00  0.00    +0.000 OA
ATOM     19  C   UNL     1       3.871   4.831  18.791  0.00  0.00    +0.000 A 
ATOM     20  N   UNL     1       4.014   4.925  17.485  0.00  0.00    +0.000 NA
BRANCH  16  25
ATOM     21  C   UNL     1       8.052   4.992  12.309  0.00  0.00    +0.000 C 
ATOM     22  C   UNL     1       7.273   4.885  13.578  0.00  0.00    +0.000 A 
ATOM     23  C   UNL     1       6.123   4.115  13.676  0.00  0.00    +0.000 A 
ATOM     24  C   UNL     1       5.471   4.042  14.906  0.00  0.00    +0.000 A 
ATOM     25  C   UNL     1       5.996   4.734  15.987  0.00  0.00    +0.000 A 
ATOM     26  N   UNL     1       7.120   5.475  15.855  0.00  0.00    +0.000 NA
ATOM     27  N   UNL     1       7.762   5.547  14.645  0.00  0.00    +0.000 NA
ENDBRANCH  16  25
ENDBRANCH   1  19
TORSDOF 5
ENDMDL
MODEL 2
REMARK VINA RESULT:      -9.1      4.759      8.512
REMARK  Name = 
REMARK  6 active torsions:
REMARK  status: ('A' for Active; 'I' for Inactive)
REMARK    1  A    between atoms: C_1  and  C_2
REMARK    2  A    between atoms: C_5  and  C_6
REMARK    3  A    between atoms: C_9  and  C_10
REMARK    4  A    between atoms: C_10  and  C_11
REMARK    5  A    between atoms: C_15  and  O_16
REMARK    6  A    between atoms: O_16  and  C_17
REMARK                            x       y       z     vdW  Elec       q    Type
REMARK                         _______ _______ _______ _____ _____    ______ ____
ROOT
ATOM      1  C   UNL     1       3.079   4.802  18.944  0.00  0.00    +0.000 C 
ATOM      2  C   UNL     1       2.056   3.921  18.137  0.00  0.00    +0.000 C 
ATOM      3  C   UNL     1       2.349   2.791  19.146  0.00  0.00    +0.000 C 
ATOM      4  C   UNL     1       2.707   3.888  20.168  0.00  0.00    +0.000 C 
ENDROOT
BRANCH   1   5
ATOM      5  C   UNL     1       4.603   4.762  18.404  0.00  0.00    +0.000 A 
ATOM      6  C   UNL     1       5.692   5.277  19.135  0.00  0.00    +0.000 A 
ATOM      7  C   UNL     1       6.987   5.292  18.610  0.00  0.00    +0.000 A 
ATOM      8  C   UNL     1       7.234   4.760  17.345  0.00  0.00    +0.000 A 
ATOM      9  C   UNL     1       6.195   4.196  16.608  0.00  0.00    +0.000 A 
ATOM     10  C   UNL     1       4.903   4.215  17.134  0.00  0.00    +0.000 A 
BRANCH   9  11
ATOM     11  O   UNL     1       6.554   3.714  15.388  0.00  0.00    +0.000 OA
BRANCH  11  12
ATOM     12  C   UNL     1       6.348   4.500  14.225  0.00  0.00    +0.000 C 
ATOM     13  F   UNL     1       5.380   5.435  14.347  0.00  0.00    +0.000 F 
ATOM     14  F   UNL     1       7.502   5.114  13.885  0.00  0.00    +0.000 F 
ATOM     15  F   UNL     1       5.996   3.678  13.212  0.00  0.00    +0.000 F 
ENDBRANCH  11  12
ENDBRANCH   9  11
ENDBRANCH   1   5
BRANCH   1  19
ATOM     16  C   UNL     1       1.699   8.041  19.777  0.00  0.00    +0.000 A 
ATOM     17  N   UNL     1       2.234   8.380  18.596  0.00  0.00    +0.000 NA
ATOM     18  O   UNL     1       2.846   7.215  18.149  0.00  0.00    +0.000 OA
ATOM     19  C   UNL     1       2.602   6.254  19.088  0.00  0.00    +0.000 A 
ATOM     20  N   UNL     1       1.896   6.706  20.104  0.00  0.00    +0.000 NA
BRANCH  16  25
ATOM     21  C   UNL     1      -1.246  11.737  22.920  0.00  0.00    +0.000 C 
ATOM     22  C   UNL     1      -0.428  10.740  22.169  0.00  0.00    +0.000 A 
ATOM     23  C   UNL     1       0.224   9.691  22.804  0.00  0.00    +0.000 A 
ATOM     24  C   UNL     1       0.942   8.784  22.026  0.00  0.00    +0.000 A 
ATOM     25  C   UNL     1       0.975   8.955  20.651  0.00  0.00    +0.000 A 
ATOM     26  N   UNL     1       0.327   9.989  20.066  0.00  0.00    +0.000 NA
ATOM     27  N   UNL     1      -0.380  10.882  20.830  0.00  0.00    +0.000 NA
ENDBRANCH  16  25
ENDBRANCH   1  19
TORSDOF 5
ENDMDL
MODEL 3
REMARK VINA RESULT:      -8.9      3.541      7.346
REMARK  Name = 
REMARK  6 active torsions:
REMARK  status: ('A' for Active; 'I' for Inactive)
REMARK    1  A    between atoms: C_1  and  C_2
REMARK    2  A    between atoms: C_5  and  C_6
REMARK    3  A    between atoms: C_9  and  C_10
REMARK    4  A    between atoms: C_10  and  C_11
REMARK    5  A    between atoms: C_15  and  O_16
REMARK    6  A    between atoms: O_16  and  C_17
REMARK                            x       y       z     vdW  Elec       q    Type
REMARK                         _______ _______ _______ _____ _____    ______ ____
ROOT
ATOM      1  C   UNL     1       4.418   5.983  17.432  0.00  0.00    +0.000 C 
ATOM      2  C   UNL     1       5.854   6.241  18.018  0.00  0.00    +0.000 C 
ATOM      3  C   UNL     1       6.413   5.681  16.695  0.00  0.00    +0.000 C 
ATOM      4  C   UNL     1       5.103   6.138  16.025  0.00  0.00    +0.000 C 
ENDROOT
BRANCH   1   5
ATOM      5  C   UNL     1       3.766   4.550  17.802  0.00  0.00    +0.000 A 
ATOM      6  C   UNL     1       3.282   3.650  16.832  0.00  0.00    +0.000 A 
ATOM      7  C   UNL     1       2.659   2.450  17.189  0.00  0.00    +0.000 A 
ATOM      8  C   UNL     1       2.530   2.103  18.533  0.00  0.00    +0.000 A 
ATOM      9  C   UNL     1       3.038   2.941  19.523  0.00  0.00    +0.000 A 
ATOM     10  C   UNL     1       3.631   4.148  19.153  0.00  0.00    +0.000 A 
BRANCH   9  11
ATOM     11  O   UNL     1       2.850   2.501  20.797  0.00  0.00    +0.000 OA
BRANCH  11  12
ATOM     12  C   UNL     1       1.825   3.068  21.600  0.00  0.00    +0.000 C 
ATOM     13  F   UNL     1       1.209   2.189  22.419  0.00  0.00    +0.000 F 
ATOM     14  F   UNL     1       2.339   4.069  22.347  0.00  0.00    +0.000 F 
ATOM     15  F   UNL     1       0.886   3.593  20.783  0.00  0.00    +0.000 F 
ENDBRANCH  11  12
ENDBRANCH   9  11
ENDBRANCH   1   5
BRANCH   1  19
ATOM     16  C   UNL     1       2.071   8.394  18.761  0.00  0.00    +0.000 A 
ATOM     17  N   UNL     1       2.153   8.899  17.522  0.00  0.00    +0.000 NA
ATOM     18  O   UNL     1       3.068   8.075  16.876  0.00  0.00    +0.000 OA
ATOM     19  C   UNL     1       3.442   7.117  17.774  0.00  0.00    +0.000 A 
ATOM     20  N   UNL     1       2.854   7.262  18.944  0.00  0.00    +0.000 NA
BRANCH  16  25
ATOM     21  C   UNL     1      -0.949  10.399  23.130  0.00  0.00    +0.000 C 
ATOM     22  C   UNL     1      -0.216   9.909  21.925  0.00  0.00    +0.000 A 
ATOM     23  C   UNL     1      -0.409  10.463  20.667  0.00  0.00    +0.000 A 
ATOM     24  C   UNL     1       0.340   9.970  19.599  0.00  0.00    +0.000 A 
ATOM     25  C   UNL     1       1.251   8.952  19.829  0.00  0.00    +0.000 A 
ATOM     26  N   UNL     1       1.413   8.435  21.069  0.00  0.00    +0.000 NA
ATOM     27  N   UNL     1       0.678   8.920  22.121  0.00  0.00    +0.000 NA
ENDBRANCH  16  25
ENDBRANCH   1  19
TORSDOF 5
ENDMDL
MODEL 4
REMARK VINA RESULT:      -8.9      4.702      8.405
REMARK  Name = 
REMARK  6 active torsions:
REMARK  status: ('A' for Active; 'I' for Inactive)
REMARK    1  A    between atoms: C_1  and  C_2
REMARK    2  A    between atoms: C_5  and  C_6
REMARK    3  A    between atoms: C_9  and  C_10
REMARK    4  A    between atoms: C_10  and  C_11
REMARK    5  A    between atoms: C_15  and  O_16
REMARK    6  A    between atoms: O_16  and  C_17
REMARK                            x       y       z     vdW  Elec       q    Type
REMARK                         _______ _______ _______ _____ _____    ______ ____
ROOT
ATOM      1  C   UNL     1       3.148   4.930  19.007  0.00  0.00    +0.000 C 
ATOM      2  C   UNL     1       2.119   4.000  18.266  0.00  0.00    +0.000 C 
ATOM      3  C   UNL     1       2.412   2.941  19.348  0.00  0.00    +0.000 C 
ATOM      4  C   UNL     1       2.778   4.104  20.292  0.00  0.00    +0.000 C 
ENDROOT
BRANCH   1   5
ATOM      5  C   UNL     1       4.671   4.848  18.466  0.00  0.00    +0.000 A 
ATOM      6  C   UNL     1       5.781   5.276  19.221  0.00  0.00    +0.000 A 
ATOM      7  C   UNL     1       7.076   5.258  18.697  0.00  0.00    +0.000 A 
ATOM      8  C   UNL     1       7.301   4.779  17.407  0.00  0.00    +0.000 A 
ATOM      9  C   UNL     1       6.239   4.301  16.643  0.00  0.00    +0.000 A 
ATOM     10  C   UNL     1       4.948   4.352  17.169  0.00  0.00    +0.000 A 
BRANCH   9  11
ATOM     11  O   UNL     1       6.578   3.864  15.401  0.00  0.00    +0.000 OA
BRANCH  11  12
ATOM     12  C   UNL     1       6.139   4.576  14.253  0.00  0.00    +0.000 C 
ATOM     13  F   UNL     1       7.072   4.703  13.285  0.00  0.00    +0.000 F 
ATOM     14  F   UNL     1       5.054   3.965  13.731  0.00  0.00    +0.000 F 
ATOM     15  F   UNL     1       5.777   5.820  14.638  0.00  0.00    +0.000 F 
ENDBRANCH  11  12
ENDBRANCH   9  11
ENDBRANCH   1   5
BRANCH   1  19
ATOM     16  C   UNL     1       1.745   8.213  19.597  0.00  0.00    +0.000 A 
ATOM     17  N   UNL     1       2.368   8.496  18.445  0.00  0.00    +0.000 NA
ATOM     18  O   UNL     1       2.999   7.308  18.094  0.00  0.00    +0.000 OA
ATOM     19  C   UNL     1       2.678   6.391  19.053  0.00  0.00    +0.000 A 
ATOM     20  N   UNL     1       1.904   6.891  19.995  0.00  0.00    +0.000 NA
BRANCH  16  25
ATOM     21  C   UNL     1      -1.083  11.880  22.879  0.00  0.00    +0.000 C 
ATOM     22  C   UNL     1      -0.405  10.925  21.953  0.00  0.00    +0.000 A 
ATOM     23  C   UNL     1      -0.692  10.882  20.596  0.00  0.00    +0.000 A 
ATOM     24  C   UNL     1       0.010   9.982  19.794  0.00  0.00    +0.000 A 
ATOM     25  C   UNL     1       0.969   9.169  20.376  0.00  0.00    +0.000 A 
ATOM     26  N   UNL     1       1.223   9.239  21.703  0.00  0.00    +0.000 NA
ATOM     27  N   UNL     1       0.534  10.123  22.493  0.00  0.00    +0.000 NA
ENDBRANCH  16  25
ENDBRANCH   1  19
TORSDOF 5
ENDMDL
MODEL 5
REMARK VINA RESULT:      -8.9      4.438      8.251
REMARK  Name = 
REMARK  6 active torsions:
REMARK  status: ('A' for Active; 'I' for Inactive)
REMARK    1  A    between atoms: C_1  and  C_2
REMARK    2  A    between atoms: C_5  and  C_6
REMARK    3  A    between atoms: C_9  and  C_10
REMARK    4  A    between atoms: C_10  and  C_11
REMARK    5  A    between atoms: C_15  and  O_16
REMARK    6  A    between atoms: O_16  and  C_17
REMARK                            x       y       z     vdW  Elec       q    Type
REMARK                         _______ _______ _______ _____ _____    ______ ____
ROOT
ATOM      1  C   UNL     1       2.185   5.064  20.140  0.00  0.00    +0.000 C 
ATOM      2  C   UNL     1       0.884   4.184  20.064  0.00  0.00    +0.000 C 
ATOM      3  C   UNL     1       1.556   3.236  21.077  0.00  0.00    +0.000 C 
ATOM      4  C   UNL     1       2.363   4.450  21.577  0.00  0.00    +0.000 C 
ENDROOT
BRANCH   1   5
ATOM      5  C   UNL     1       3.312   4.732  19.029  0.00  0.00    +0.000 A 
ATOM      6  C   UNL     1       3.058   3.950  17.885  0.00  0.00    +0.000 A 
ATOM      7  C   UNL     1       4.071   3.621  16.980  0.00  0.00    +0.000 A 
ATOM      8  C   UNL     1       5.368   4.094  17.181  0.00  0.00    +0.000 A 
ATOM      9  C   UNL     1       5.652   4.912  18.273  0.00  0.00    +0.000 A 
ATOM     10  C   UNL     1       4.636   5.207  19.182  0.00  0.00    +0.000 A 
BRANCH   9  11
ATOM     11  O   UNL     1       6.949   5.309  18.368  0.00  0.00    +0.000 OA
BRANCH  11  12
ATOM     12  C   UNL     1       7.369   6.517  17.752  0.00  0.00    +0.000 C 
ATOM     13  F   UNL     1       8.352   7.168  18.412  0.00  0.00    +0.000 F 
ATOM     14  F   UNL     1       7.789   6.260  16.494  0.00  0.00    +0.000 F 
ATOM     15  F   UNL     1       6.307   7.349  17.678  0.00  0.00    +0.000 F 
ENDBRANCH  11  12
ENDBRANCH   9  11
ENDBRANCH   1   5
BRANCH   1  19
ATOM     16  C   UNL     1       1.125   8.489  20.633  0.00  0.00    +0.000 A 
ATOM     17  N   UNL     1       1.776   8.675  19.477  0.00  0.00    +0.000 NA
ATOM     18  O   UNL     1       2.282   7.419  19.162  0.00  0.00    +0.000 OA
ATOM     19  C   UNL     1       1.866   6.566  20.144  0.00  0.00    +0.000 A 
ATOM     20  N   UNL     1       1.147   7.170  21.068  0.00  0.00    +0.000 NA
BRANCH  16  25
ATOM     21  C   UNL     1      -1.415  12.795  23.321  0.00  0.00    +0.000 C 
ATOM     22  C   UNL     1      -0.762  11.611  22.688  0.00  0.00    +0.000 A 
ATOM     23  C   UNL     1      -0.975  10.318  23.145  0.00  0.00    +0.000 A 
ATOM     24  C   UNL     1      -0.352   9.263  22.477  0.00  0.00    +0.000 A 
ATOM     25  C   UNL     1       0.451   9.541  21.382  0.00  0.00    +0.000 A 
ATOM     26  N   UNL     1       0.636  10.815  20.965  0.00  0.00    +0.000 NA
ATOM     27  N   UNL     1       0.024  11.853  21.620  0.00  0.00    +0.000 NA
ENDBRANCH  16  25
ENDBRANCH   1  19
TORSDOF 5
ENDMDL
MODEL 6
REMARK VINA RESULT:      -8.8      3.521      7.336
REMARK  Name = 
REMARK  6 active torsions:
REMARK  status: ('A' for Active; 'I' for Inactive)
REMARK    1  A    between atoms: C_1  and  C_2
REMARK    2  A    between atoms: C_5  and  C_6
REMARK    3  A    between atoms: C_9  and  C_10
REMARK    4  A    between atoms: C_10  and  C_11
REMARK    5  A    between atoms: C_15  and  O_16
REMARK    6  A    between atoms: O_16  and  C_17
REMARK                            x       y       z     vdW  Elec       q    Type
REMARK                         _______ _______ _______ _____ _____    ______ ____
ROOT
ATOM      1  C   UNL     1       4.392   5.985  17.457  0.00  0.00    +0.000 C 
ATOM      2  C   UNL     1       5.826   6.220  18.059  0.00  0.00    +0.000 C 
ATOM      3  C   UNL     1       6.390   5.691  16.725  0.00  0.00    +0.000 C 
ATOM      4  C   UNL     1       5.087   6.174  16.058  0.00  0.00    +0.000 C 
ENDROOT
BRANCH   1   5
ATOM      5  C   UNL     1       3.730   4.546  17.785  0.00  0.00    +0.000 A 
ATOM      6  C   UNL     1       3.272   3.663  16.787  0.00  0.00    +0.000 A 
ATOM      7  C   UNL     1       2.639   2.458  17.107  0.00  0.00    +0.000 A 
ATOM      8  C   UNL     1       2.473   2.089  18.441  0.00  0.00    +0.000 A 
ATOM      9  C   UNL     1       2.955   2.909  19.459  0.00  0.00    +0.000 A 
ATOM     10  C   UNL     1       3.558   4.122  19.125  0.00  0.00    +0.000 A 
BRANCH   9  11
ATOM     11  O   UNL     1       2.732   2.449  20.719  0.00  0.00    +0.000 OA
BRANCH  11  12
ATOM     12  C   UNL     1       1.801   3.109  21.563  0.00  0.00    +0.000 C 
ATOM     13  F   UNL     1       2.332   4.095  22.318  0.00  0.00    +0.000 F 
ATOM     14  F   UNL     1       0.803   3.628  20.814  0.00  0.00    +0.000 F 
ATOM     15  F   UNL     1       1.265   2.196  22.402  0.00  0.00    +0.000 F 
ENDBRANCH  11  12
ENDBRANCH   9  11
ENDBRANCH   1   5
BRANCH   1  19
ATOM     16  C   UNL     1       2.079   8.395  18.846  0.00  0.00    +0.000 A 
ATOM     17  N   UNL     1       2.105   8.881  17.598  0.00  0.00    +0.000 NA
ATOM     18  O   UNL     1       3.000   8.057  16.927  0.00  0.00    +0.000 OA
ATOM     19  C   UNL     1       3.420   7.116  17.822  0.00  0.00    +0.000 A 
ATOM     20  N   UNL     1       2.880   7.272  19.013  0.00  0.00    +0.000 NA
BRANCH  16  25
ATOM     21  C   UNL     1      -1.054  10.832  22.904  0.00  0.00    +0.000 C 
ATOM     22  C   UNL     1      -0.196  10.135  21.900  0.00  0.00    +0.000 A 
ATOM     23  C   UNL     1       0.336   8.874  22.132  0.00  0.00    +0.000 A 
ATOM     24  C   UNL     1       1.101   8.279  21.130  0.00  0.00    +0.000 A 
ATOM     25  C   UNL     1       1.297   8.960  19.939  0.00  0.00    +0.000 A 
ATOM     26  N   UNL     1       0.763  10.188  19.748  0.00  0.00    +0.000 NA
ATOM     27  N   UNL     1       0.010  10.775  20.732  0.00  0.00    +0.000 NA
ENDBRANCH  16  25
ENDBRANCH   1  19
TORSDOF 5
ENDMDL
MODEL 7
REMARK VINA RESULT:      -8.7      4.103      7.148
REMARK  Name = 
REMARK  6 active torsions:
REMARK  status: ('A' for Active; 'I' for Inactive)
REMARK    1  A    between atoms: C_1  and  C_2
REMARK    2  A    between atoms: C_5  and  C_6
REMARK    3  A    between atoms: C_9  and  C_10
REMARK    4  A    between atoms: C_10  and  C_11
REMARK    5  A    between atoms: C_15  and  O_16
REMARK    6  A    between atoms: O_16  and  C_17
REMARK                            x       y       z     vdW  Elec       q    Type
REMARK                         _______ _______ _______ _____ _____    ______ ____
ROOT
ATOM      1  C   UNL     1       3.705   3.556  18.449  0.00  0.00    +0.000 C 
ATOM      2  C   UNL     1       2.697   2.446  17.976  0.00  0.00    +0.000 C 
ATOM      3  C   UNL     1       3.720   1.408  18.479  0.00  0.00    +0.000 C 
ATOM      4  C   UNL     1       4.216   2.477  19.473  0.00  0.00    +0.000 C 
ENDROOT
BRANCH   1   5
ATOM      5  C   UNL     1       4.739   4.079  17.321  0.00  0.00    +0.000 A 
ATOM      6  C   UNL     1       4.633   3.733  15.959  0.00  0.00    +0.000 A 
ATOM      7  C   UNL     1       5.583   4.143  15.020  0.00  0.00    +0.000 A 
ATOM      8  C   UNL     1       6.657   4.941  15.416  0.00  0.00    +0.000 A 
ATOM      9  C   UNL     1       6.774   5.347  16.744  0.00  0.00    +0.000 A 
ATOM     10  C   UNL     1       5.833   4.905  17.674  0.00  0.00    +0.000 A 
BRANCH   9  11
ATOM     11  O   UNL     1       7.861   6.118  17.013  0.00  0.00    +0.000 OA
BRANCH  11  12
ATOM     12  C   UNL     1       7.703   7.363  17.677  0.00  0.00    +0.000 C 
ATOM     13  F   UNL     1       6.438   7.836  17.682  0.00  0.00    +0.000 F 
ATOM     14  F   UNL     1       8.128   7.249  18.954  0.00  0.00    +0.000 F 
ATOM     15  F   UNL     1       8.479   8.278  17.056  0.00  0.00    +0.000 F 
ENDBRANCH  11  12
ENDBRANCH   9  11
ENDBRANCH   1   5
BRANCH   1  19
ATOM     16  C   UNL     1       2.189   6.658  19.530  0.00  0.00    +0.000 A 
ATOM     17  N   UNL     1       1.900   5.936  20.621  0.00  0.00    +0.000 NA
ATOM     18  O   UNL     1       2.406   4.672  20.340  0.00  0.00    +0.000 OA
ATOM     19  C   UNL     1       2.989   4.744  19.108  0.00  0.00    +0.000 A 
ATOM     20  N   UNL     1       2.891   5.942  18.569  0.00  0.00    +0.000 NA
BRANCH  16  25
ATOM     21  C   UNL     1       0.694  12.117  19.105  0.00  0.00    +0.000 C 
ATOM     22  C   UNL     1       1.090  10.678  19.126  0.00  0.00    +0.000 A 
ATOM     23  C   UNL     1       1.674  10.057  18.031  0.00  0.00    +0.000 A 
ATOM     24  C   UNL     1       2.044   8.717  18.143  0.00  0.00    +0.000 A 
ATOM     25  C   UNL     1       1.821   8.056  19.340  0.00  0.00    +0.000 A 
ATOM     26  N   UNL     1       1.248   8.693  20.387  0.00  0.00    +0.000 NA
ATOM     27  N   UNL     1       0.885  10.011  20.279  0.00  0.00    +0.000 NA
ENDBRANCH  16  25
ENDBRANCH   1  19
TORSDOF 5
ENDMDL
MODEL 8
REMARK VINA RESULT:      -8.7      4.637      7.858
REMARK  Name = 
REMARK  6 active torsions:
REMARK  status: ('A' for Active; 'I' for Inactive)
REMARK    1  A    between atoms: C_1  and  C_2
REMARK    2  A    between atoms: C_5  and  C_6
REMARK    3  A    between atoms: C_9  and  C_10
REMARK    4  A    between atoms: C_10  and  C_11
REMARK    5  A    between atoms: C_15  and  O_16
REMARK    6  A    between atoms: O_16  and  C_17
REMARK                            x       y       z     vdW  Elec       q    Type
REMARK                         _______ _______ _______ _____ _____    ______ ____
ROOT
ATOM      1  C   UNL     1       3.470   4.087  18.730  0.00  0.00    +0.000 C 
ATOM      2  C   UNL     1       2.671   3.495  17.512  0.00  0.00    +0.000 C 
ATOM      3  C   UNL     1       3.119   2.100  17.992  0.00  0.00    +0.000 C 
ATOM      4  C   UNL     1       3.214   2.693  19.412  0.00  0.00    +0.000 C 
ENDROOT
BRANCH   1   5
ATOM      5  C   UNL     1       5.000   4.508  18.416  0.00  0.00    +0.000 A 
ATOM      6  C   UNL     1       5.830   5.149  19.357  0.00  0.00    +0.000 A 
ATOM      7  C   UNL     1       7.124   5.564  19.031  0.00  0.00    +0.000 A 
ATOM      8  C   UNL     1       7.636   5.320  17.757  0.00  0.00    +0.000 A 
ATOM      9  C   UNL     1       6.868   4.645  16.813  0.00  0.00    +0.000 A 
ATOM     10  C   UNL     1       5.567   4.263  17.143  0.00  0.00    +0.000 A 
BRANCH   9  11
ATOM     11  O   UNL     1       7.469   4.468  15.606  0.00  0.00    +0.000 OA
BRANCH  11  12
ATOM     12  C   UNL     1       6.774   4.791  14.411  0.00  0.00    +0.000 C 
ATOM     13  F   UNL     1       5.787   5.699  14.568  0.00  0.00    +0.000 F 
ATOM     14  F   UNL     1       7.648   5.256  13.492  0.00  0.00    +0.000 F 
ATOM     15  F   UNL     1       6.215   3.660  13.925  0.00  0.00    +0.000 F 
ENDBRANCH  11  12
ENDBRANCH   9  11
ENDBRANCH   1   5
BRANCH   1  19
ATOM     16  C   UNL     1       1.899   7.147  19.853  0.00  0.00    +0.000 A 
ATOM     17  N   UNL     1       1.572   6.388  20.908  0.00  0.00    +0.000 NA
ATOM     18  O   UNL     1       2.093   5.135  20.605  0.00  0.00    +0.000 OA
ATOM     19  C   UNL     1       2.723   5.250  19.399  0.00  0.00    +0.000 A 
ATOM     20  N   UNL     1       2.640   6.465  18.897  0.00  0.00    +0.000 NA
BRANCH  16  25
ATOM     21  C   UNL     1       0.530  12.577  18.930  0.00  0.00    +0.000 C 
ATOM     22  C   UNL     1       0.885  11.166  19.262  0.00  0.00    +0.000 A 
ATOM     23  C   UNL     1       0.617  10.610  20.505  0.00  0.00    +0.000 A 
ATOM     24  C   UNL     1       0.952   9.274  20.725  0.00  0.00    +0.000 A 
ATOM     25  C   UNL     1       1.532   8.548  19.696  0.00  0.00    +0.000 A 
ATOM     26  N   UNL     1       1.778   9.123  18.497  0.00  0.00    +0.000 NA
ATOM     27  N   UNL     1       1.450  10.437  18.279  0.00  0.00    +0.000 NA
ENDBRANCH  16  25
ENDBRANCH   1  19
TORSDOF 5
ENDMDL
MODEL 9
REMARK VINA RESULT:      -8.7      4.884      7.947
REMARK  Name = 
REMARK  6 active torsions:
REMARK  status: ('A' for Active; 'I' for Inactive)
REMARK    1  A    between atoms: C_1  and  C_2
REMARK    2  A    between atoms: C_5  and  C_6
REMARK    3  A    between atoms: C_9  and  C_10
REMARK    4  A    between atoms: C_10  and  C_11
REMARK    5  A    between atoms: C_15  and  O_16
REMARK    6  A    between atoms: O_16  and  C_17
REMARK                            x       y       z     vdW  Elec       q    Type
REMARK                         _______ _______ _______ _____ _____    ______ ____
ROOT
ATOM      1  C   UNL     1       3.593   3.870  18.415  0.00  0.00    +0.000 C 
ATOM      2  C   UNL     1       2.609   3.046  17.506  0.00  0.00    +0.000 C 
ATOM      3  C   UNL     1       3.273   1.774  18.072  0.00  0.00    +0.000 C 
ATOM      4  C   UNL     1       3.615   2.593  19.332  0.00  0.00    +0.000 C 
ENDROOT
BRANCH   1   5
ATOM      5  C   UNL     1       4.977   4.319  17.708  0.00  0.00    +0.000 A 
ATOM      6  C   UNL     1       6.167   4.552  18.425  0.00  0.00    +0.000 A 
ATOM      7  C   UNL     1       7.327   5.008  17.793  0.00  0.00    +0.000 A 
ATOM      8  C   UNL     1       7.337   5.215  16.414  0.00  0.00    +0.000 A 
ATOM      9  C   UNL     1       6.196   4.950  15.660  0.00  0.00    +0.000 A 
ATOM     10  C   UNL     1       5.038   4.523  16.309  0.00  0.00    +0.000 A 
BRANCH   9  11
ATOM     11  O   UNL     1       6.322   5.192  14.327  0.00  0.00    +0.000 OA
BRANCH  11  12
ATOM     12  C   UNL     1       6.148   4.136  13.394  0.00  0.00    +0.000 C 
ATOM     13  F   UNL     1       4.884   3.994  12.941  0.00  0.00    +0.000 F 
ATOM     14  F   UNL     1       6.968   4.330  12.338  0.00  0.00    +0.000 F 
ATOM     15  F   UNL     1       6.501   2.977  13.993  0.00  0.00    +0.000 F 
ENDBRANCH  11  12
ENDBRANCH   9  11
ENDBRANCH   1   5
BRANCH   1  19
ATOM     16  C   UNL     1       2.145   7.019  19.453  0.00  0.00    +0.000 A 
ATOM     17  N   UNL     1       1.853   6.322  20.560  0.00  0.00    +0.000 NA
ATOM     18  O   UNL     1       2.332   5.044  20.297  0.00  0.00    +0.000 OA
ATOM     19  C   UNL     1       2.905   5.083  19.058  0.00  0.00    +0.000 A 
ATOM     20  N   UNL     1       2.825   6.273  18.499  0.00  0.00    +0.000 NA
BRANCH  16  25
ATOM     21  C   UNL     1       0.721  12.489  18.937  0.00  0.00    +0.000 C 
ATOM     22  C   UNL     1       1.105  11.048  18.982  0.00  0.00    +0.000 A 
ATOM     23  C   UNL     1       1.777  10.429  17.937  0.00  0.00    +0.000 A 
ATOM     24  C   UNL     1       2.128   9.087  18.071  0.00  0.00    +0.000 A 
ATOM     25  C   UNL     1       1.802   8.420  19.242  0.00  0.00    +0.000 A 
ATOM     26  N   UNL     1       1.146   9.055  20.240  0.00  0.00    +0.000 NA
ATOM     27  N   UNL     1       0.801  10.375  20.110  0.00  0.00    +0.000 NA
ENDBRANCH  16  25
ENDBRANCH   1  19
TORSDOF 5
ENDMDL
