MODEL 1
REMARK VINA RESULT:      -8.2      0.000      0.000
REMARK  Name = 
REMARK  6 active torsions:
REMARK  status: ('A' for Active; 'I' for Inactive)
REMARK    1  A    between atoms: C_2  and  C_5
REMARK    2  A    between atoms: N_8  and  C_9
REMARK    3  A    between atoms: C_9  and  C_10
REMARK    4  A    between atoms: N_13  and  C_14
REMARK    5  A    between atoms: C_14  and  C_15
REMARK    6  A    between atoms: C_15  and  C_16
REMARK                            x       y       z     vdW  Elec       q    Type
REMARK                         _______ _______ _______ _____ _____    ______ ____
ROOT
ATOM      1  C   UNL     1       2.797   3.709  19.482  0.00  0.00    +0.000 A 
ATOM      2  N   UNL     1       2.487   5.035  19.377  0.00  0.00    +0.000 NA
ATOM      3  C   UNL     1       3.260   5.867  18.634  0.00  0.00    +0.000 A 
ATOM      4  N   UNL     1       2.936   7.212  18.484  0.00  0.00    +0.000 N 
ATOM      5  C   UNL     1       4.387   5.312  18.005  0.00  0.00    +0.000 A 
ATOM      6  N   UNL     1       5.378   5.866  17.213  0.00  0.00    +0.000 NA
ATOM      7  C   UNL     1       6.167   4.855  16.913  0.00  0.00    +0.000 A 
ATOM      8  N   UNL     1       5.737   3.688  17.477  0.00  0.00    +0.000 N 
ATOM      9  C   UNL     1       4.604   3.963  18.185  0.00  0.00    +0.000 A 
ATOM     10  N   UNL     1       3.867   3.100  18.898  0.00  0.00    +0.000 NA
ATOM     11  H   UNL     1       3.733   7.734  18.122  0.00  0.00    +0.000 HD
ATOM     12  H   UNL     1       6.166   2.778  17.391  0.00  0.00    +0.000 HD
ENDROOT
BRANCH   1  14
ATOM     13  F   UNL     1       1.503   1.655  19.733  0.00  0.00    +0.000 F 
ATOM     14  C   UNL     1       1.870   2.829  20.333  0.00  0.00    +0.000 C 
ATOM     15  F   UNL     1       0.694   3.451  20.651  0.00  0.00    +0.000 F 
ATOM     16  F   UNL     1       2.426   2.465  21.528  0.00  0.00    +0.000 F 
ENDBRANCH   1  14
BRANCH   4  17
ATOM     17  C   UNL     1       2.185   7.820  19.568  0.00  0.00    +0.000 C 
BRANCH  17  18
ATOM     18  C   UNL     1       1.046   8.671  18.990  0.00  0.00    +0.000 C 
ATOM     19  C   UNL     1       1.494   9.466  17.768  0.00  0.00    +0.000 C 
ATOM     20  C   UNL     1       1.969  10.774  18.373  0.00  0.00    +0.000 C 
ATOM     21  N   UNL     1       0.990  11.068  19.433  0.00  0.00    +0.000 NA
ATOM     22  C   UNL     1       0.589   9.751  19.977  0.00  0.00    +0.000 C 
BRANCH  21  23
ATOM     23  C   UNL     1      -0.160  11.839  18.918  0.00  0.00    +0.000 C 
BRANCH  23  24
ATOM     24  C   UNL     1      -1.509  11.160  19.224  0.00  0.00    +0.000 C 
BRANCH  24  25
ATOM     25  C   UNL     1      -2.355  10.883  18.003  0.00  0.00    +0.000 A 
ATOM     26  C   UNL     1      -3.549  11.591  17.801  0.00  0.00    +0.000 A 
ATOM     27  C   UNL     1      -4.282  11.430  16.624  0.00  0.00    +0.000 A 
ATOM     28  C   UNL     1      -3.833  10.553  15.640  0.00  0.00    +0.000 A 
ATOM     29  C   UNL     1      -2.664   9.820  15.842  0.00  0.00    +0.000 A 
ATOM     30  C   UNL     1      -1.930   9.980  17.019  0.00  0.00    +0.000 A 
ENDBRANCH  24  25
ENDBRANCH  23  24
ENDBRANCH  21  23
ENDBRANCH  17  18
ENDBRANCH   4  17
TORSDOF 6
ENDMDL
MODEL 2
REMARK VINA RESULT:      -8.2      0.370      1.214
REMARK  Name = 
REMARK  6 active torsions:
REMARK  status: ('A' for Active; 'I' for Inactive)
REMARK    1  A    between atoms: C_2  and  C_5
REMARK    2  A    between atoms: N_8  and  C_9
REMARK    3  A    between atoms: C_9  and  C_10
REMARK    4  A    between atoms: N_13  and  C_14
REMARK    5  A    between atoms: C_14  and  C_15
REMARK    6  A    between atoms: C_15  and  C_16
REMARK                            x       y       z     vdW  Elec       q    Type
REMARK                         _______ _______ _______ _____ _____    ______ ____
ROOT
ATOM      1  C   UNL     1       2.774   3.731  19.483  0.00  0.00    +0.000 A 
ATOM      2  N   UNL     1       2.480   5.051  19.295  0.00  0.00    +0.000 NA
ATOM      3  C   UNL     1       3.135   5.778  18.354  0.00  0.00    +0.000 A 
ATOM      4  N   UNL     1       2.820   7.113  18.123  0.00  0.00    +0.000 N 
ATOM      5  C   UNL     1       4.128   5.121  17.608  0.00  0.00    +0.000 A 
ATOM      6  N   UNL     1       4.984   5.557  16.612  0.00  0.00    +0.000 NA
ATOM      7  C   UNL     1       5.689   4.492  16.290  0.00  0.00    +0.000 A 
ATOM      8  N   UNL     1       5.334   3.402  17.034  0.00  0.00    +0.000 N 
ATOM      9  C   UNL     1       4.342   3.788  17.887  0.00  0.00    +0.000 A 
ATOM     10  N   UNL     1       3.717   3.027  18.795  0.00  0.00    +0.000 NA
ATOM     11  H   UNL     1       3.556   7.566  17.584  0.00  0.00    +0.000 HD
ATOM     12  H   UNL     1       5.722   2.473  16.971  0.00  0.00    +0.000 HD
ENDROOT
BRANCH   1  14
ATOM     13  F   UNL     1       0.862   3.625  20.996  0.00  0.00    +0.000 F 
ATOM     14  C   UNL     1       1.983   2.974  20.559  0.00  0.00    +0.000 C 
ATOM     15  F   UNL     1       2.720   2.734  21.687  0.00  0.00    +0.000 F 
ATOM     16  F   UNL     1       1.547   1.747  20.140  0.00  0.00    +0.000 F 
ENDBRANCH   1  14
BRANCH   4  17
ATOM     17  C   UNL     1       2.275   7.851  19.249  0.00  0.00    +0.000 C 
BRANCH  17  18
ATOM     18  C   UNL     1       1.136   8.759  18.764  0.00  0.00    +0.000 C 
ATOM     19  C   UNL     1       1.607   9.744  17.700  0.00  0.00    +0.000 C 
ATOM     20  C   UNL     1       2.024  10.951  18.520  0.00  0.00    +0.000 C 
ATOM     21  N   UNL     1       0.999  11.055  19.572  0.00  0.00    +0.000 NA
ATOM     22  C   UNL     1       0.613   9.662  19.888  0.00  0.00    +0.000 C 
BRANCH  21  23
ATOM     23  C   UNL     1      -0.152  11.874  19.137  0.00  0.00    +0.000 C 
BRANCH  23  24
ATOM     24  C   UNL     1      -1.499  11.155  19.347  0.00  0.00    +0.000 C 
BRANCH  24  25
ATOM     25  C   UNL     1      -2.324  11.002  18.090  0.00  0.00    +0.000 A 
ATOM     26  C   UNL     1      -1.880  10.162  17.057  0.00  0.00    +0.000 A 
ATOM     27  C   UNL     1      -2.683   9.921  15.942  0.00  0.00    +0.000 A 
ATOM     28  C   UNL     1      -3.935  10.522  15.843  0.00  0.00    +0.000 A 
ATOM     29  C   UNL     1      -4.375  11.382  16.849  0.00  0.00    +0.000 A 
ATOM     30  C   UNL     1      -3.572  11.625  17.966  0.00  0.00    +0.000 A 
ENDBRANCH  24  25
ENDBRANCH  23  24
ENDBRANCH  21  23
ENDBRANCH  17  18
ENDBRANCH   4  17
TORSDOF 6
ENDMDL
MODEL 3
REMARK VINA RESULT:      -8.1      2.337      3.185
REMARK  Name = 
REMARK  6 active torsions:
REMARK  status: ('A' for Active; 'I' for Inactive)
REMARK    1  A    between atoms: C_2  and  C_5
REMARK    2  A    between atoms: N_8  and  C_9
REMARK    3  A    between atoms: C_9  and  C_10
REMARK    4  A    between atoms: N_13  and  C_14
REMARK    5  A    between atoms: C_14  and  C_15
REMARK    6  A    between atoms: C_15  and  C_16
REMARK                            x       y       z     vdW  Elec       q    Type
REMARK                         _______ _______ _______ _____ _____    ______ ____
ROOT
ATOM      1  C   UNL     1       4.538   4.299  17.743  0.00  0.00    +0.000 A 
ATOM      2  N   UNL     1       3.992   5.308  18.484  0.00  0.00    +0.000 NA
ATOM      3  C   UNL     1       2.784   5.150  19.083  0.00  0.00    +0.000 A 
ATOM      4  N   UNL     1       2.232   6.153  19.873  0.00  0.00    +0.000 N 
ATOM      5  C   UNL     1       2.125   3.924  18.890  0.00  0.00    +0.000 A 
ATOM      6  N   UNL     1       0.899   3.449  19.326  0.00  0.00    +0.000 NA
ATOM      7  C   UNL     1       0.823   2.230  18.833  0.00  0.00    +0.000 A 
ATOM      8  N   UNL     1       1.929   1.905  18.100  0.00  0.00    +0.000 N 
ATOM      9  C   UNL     1       2.769   2.980  18.120  0.00  0.00    +0.000 A 
ATOM     10  N   UNL     1       3.962   3.084  17.519  0.00  0.00    +0.000 NA
ATOM     11  H   UNL     1       1.240   5.980  20.030  0.00  0.00    +0.000 HD
ATOM     12  H   UNL     1       2.109   1.031  17.628  0.00  0.00    +0.000 HD
ENDROOT
BRANCH   1  14
ATOM     13  F   UNL     1       6.078   5.813  16.609  0.00  0.00    +0.000 F 
ATOM     14  C   UNL     1       5.911   4.550  17.105  0.00  0.00    +0.000 C 
ATOM     15  F   UNL     1       6.167   3.715  16.052  0.00  0.00    +0.000 F 
ATOM     16  F   UNL     1       6.949   4.365  17.977  0.00  0.00    +0.000 F 
ENDBRANCH   1  14
BRANCH   4  17
ATOM     17  C   UNL     1       2.624   7.514  19.554  0.00  0.00    +0.000 C 
BRANCH  17  18
ATOM     18  C   UNL     1       1.416   8.277  18.991  0.00  0.00    +0.000 C 
ATOM     19  C   UNL     1       1.756   9.007  17.697  0.00  0.00    +0.000 C 
ATOM     20  C   UNL     1       2.204  10.371  18.187  0.00  0.00    +0.000 C 
ATOM     21  N   UNL     1       1.276  10.694  19.283  0.00  0.00    +0.000 NA
ATOM     22  C   UNL     1       0.967   9.401  19.934  0.00  0.00    +0.000 C 
BRANCH  21  23
ATOM     23  C   UNL     1       0.064  11.380  18.791  0.00  0.00    +0.000 C 
BRANCH  23  24
ATOM     24  C   UNL     1      -1.226  10.603  19.115  0.00  0.00    +0.000 C 
BRANCH  24  25
ATOM     25  C   UNL     1      -2.225  10.557  17.981  0.00  0.00    +0.000 A 
ATOM     26  C   UNL     1      -3.392  11.334  18.043  0.00  0.00    +0.000 A 
ATOM     27  C   UNL     1      -4.266  11.392  16.957  0.00  0.00    +0.000 A 
ATOM     28  C   UNL     1      -3.988  10.668  15.801  0.00  0.00    +0.000 A 
ATOM     29  C   UNL     1      -2.847   9.868  15.739  0.00  0.00    +0.000 A 
ATOM     30  C   UNL     1      -1.971   9.809  16.825  0.00  0.00    +0.000 A 
ENDBRANCH  24  25
ENDBRANCH  23  24
ENDBRANCH  21  23
ENDBRANCH  17  18
ENDBRANCH   4  17
TORSDOF 6
ENDMDL
MODEL 4
REMARK VINA RESULT:      -7.9      3.599      4.786
REMARK  Name = 
REMARK  6 active torsions:
REMARK  status: ('A' for Active; 'I' for Inactive)
REMARK    1  A    between atoms: C_2  and  C_5
REMARK    2  A    between atoms: N_8  and  C_9
REMARK    3  A    between atoms: C_9  and  C_10
REMARK    4  A    between atoms: N_13  and  C_14
REMARK    5  A    between atoms: C_14  and  C_15
REMARK    6  A    between atoms: C_15  and  C_16
REMARK                            x       y       z     vdW  Elec       q    Type
REMARK                         _______ _______ _______ _____ _____    ______ ____
ROOT
ATOM      1  C   UNL     1       3.766   5.614  18.111  0.00  0.00    +0.000 A 
ATOM      2  N   UNL     1       3.192   6.444  19.032  0.00  0.00    +0.000 NA
ATOM      3  C   UNL     1       2.404   5.943  20.016  0.00  0.00    +0.000 A 
ATOM      4  N   UNL     1       1.843   6.770  20.985  0.00  0.00    +0.000 N 
ATOM      5  C   UNL     1       2.195   4.553  20.031  0.00  0.00    +0.000 A 
ATOM      6  N   UNL     1       1.448   3.733  20.859  0.00  0.00    +0.000 NA
ATOM      7  C   UNL     1       1.640   2.520  20.386  0.00  0.00    +0.000 A 
ATOM      8  N   UNL     1       2.464   2.522  19.296  0.00  0.00    +0.000 N 
ATOM      9  C   UNL     1       2.823   3.815  19.051  0.00  0.00    +0.000 A 
ATOM     10  N   UNL     1       3.616   4.261  18.067  0.00  0.00    +0.000 NA
ATOM     11  H   UNL     1       1.095   6.285  21.479  0.00  0.00    +0.000 HD
ATOM     12  H   UNL     1       2.766   1.720  18.762  0.00  0.00    +0.000 HD
ENDROOT
BRANCH   1  14
ATOM     13  F   UNL     1       5.877   6.666  17.483  0.00  0.00    +0.000 F 
ATOM     14  C   UNL     1       4.652   6.255  17.033  0.00  0.00    +0.000 C 
ATOM     15  F   UNL     1       4.085   7.368  16.474  0.00  0.00    +0.000 F 
ATOM     16  F   UNL     1       4.915   5.414  15.987  0.00  0.00    +0.000 F 
ENDBRANCH   1  14
BRANCH   4  17
ATOM     17  C   UNL     1       1.594   8.145  20.592  0.00  0.00    +0.000 C 
BRANCH  17  18
ATOM     18  C   UNL     1       0.237   8.600  21.149  0.00  0.00    +0.000 C 
ATOM     19  C   UNL     1      -0.288   9.837  20.429  0.00  0.00    +0.000 C 
ATOM     20  C   UNL     1       0.270  10.975  21.263  0.00  0.00    +0.000 C 
ATOM     21  N   UNL     1       0.133  10.514  22.655  0.00  0.00    +0.000 NA
ATOM     22  C   UNL     1       0.346   9.050  22.610  0.00  0.00    +0.000 C 
BRANCH  21  23
ATOM     23  C   UNL     1      -1.182  10.875  23.224  0.00  0.00    +0.000 C 
BRANCH  23  24
ATOM     24  C   UNL     1      -1.591  12.322  22.890  0.00  0.00    +0.000 C 
BRANCH  24  25
ATOM     25  C   UNL     1      -3.084  12.548  22.834  0.00  0.00    +0.000 A 
ATOM     26  C   UNL     1      -3.832  12.595  24.020  0.00  0.00    +0.000 A 
ATOM     27  C   UNL     1      -5.190  12.916  23.994  0.00  0.00    +0.000 A 
ATOM     28  C   UNL     1      -5.816  13.186  22.780  0.00  0.00    +0.000 A 
ATOM     29  C   UNL     1      -5.091  13.114  21.591  0.00  0.00    +0.000 A 
ATOM     30  C   UNL     1      -3.733  12.792  21.616  0.00  0.00    +0.000 A 
ENDBRANCH  24  25
ENDBRANCH  23  24
ENDBRANCH  21  23
ENDBRANCH  17  18
ENDBRANCH   4  17
TORSDOF 6
ENDMDL
MODEL 5
REMARK VINA RESULT:      -7.8      0.917      1.505
REMARK  Name = 
REMARK  6 active torsions:
REMARK  status: ('A' for Active; 'I' for Inactive)
REMARK    1  A    between atoms: C_2  and  C_5
REMARK    2  A    between atoms: N_8  and  C_9
REMARK    3  A    between atoms: C_9  and  C_10
REMARK    4  A    between atoms: N_13  and  C_14
REMARK    5  A    between atoms: C_14  and  C_15
REMARK    6  A    between atoms: C_15  and  C_16
REMARK                            x       y       z     vdW  Elec       q    Type
REMARK                         _______ _______ _______ _____ _____    ______ ____
ROOT
ATOM      1  C   UNL     1       3.069   3.768  18.168  0.00  0.00    +0.000 A 
ATOM      2  N   UNL     1       2.767   5.093  18.304  0.00  0.00    +0.000 NA
ATOM      3  C   UNL     1       3.594   6.044  17.801  0.00  0.00    +0.000 A 
ATOM      4  N   UNL     1       3.281   7.397  17.897  0.00  0.00    +0.000 N 
ATOM      5  C   UNL     1       4.765   5.608  17.160  0.00  0.00    +0.000 A 
ATOM      6  N   UNL     1       5.813   6.293  16.569  0.00  0.00    +0.000 NA
ATOM      7  C   UNL     1       6.622   5.350  16.134  0.00  0.00    +0.000 A 
ATOM      8  N   UNL     1       6.152   4.100  16.422  0.00  0.00    +0.000 N 
ATOM      9  C   UNL     1       4.968   4.247  17.084  0.00  0.00    +0.000 A 
ATOM     10  N   UNL     1       4.180   3.270  17.555  0.00  0.00    +0.000 NA
ATOM     11  H   UNL     1       4.103   7.968  17.706  0.00  0.00    +0.000 HD
ATOM     12  H   UNL     1       6.586   3.220  16.188  0.00  0.00    +0.000 HD
ENDROOT
BRANCH   1  14
ATOM     13  F   UNL     1       2.323   2.420  20.060  0.00  0.00    +0.000 F 
ATOM     14  C   UNL     1       2.080   2.750  18.755  0.00  0.00    +0.000 C 
ATOM     15  F   UNL     1       2.078   1.561  18.079  0.00  0.00    +0.000 F 
ATOM     16  F   UNL     1       0.784   3.187  18.729  0.00  0.00    +0.000 F 
ENDBRANCH   1  14
BRANCH   4  17
ATOM     17  C   UNL     1       2.451   7.789  19.022  0.00  0.00    +0.000 C 
BRANCH  17  18
ATOM     18  C   UNL     1       1.313   8.694  18.528  0.00  0.00    +0.000 C 
ATOM     19  C   UNL     1       1.815   9.768  17.570  0.00  0.00    +0.000 C 
ATOM     20  C   UNL     1       2.135  10.924  18.499  0.00  0.00    +0.000 C 
ATOM     21  N   UNL     1       1.042  10.919  19.486  0.00  0.00    +0.000 NA
ATOM     22  C   UNL     1       0.688   9.495  19.676  0.00  0.00    +0.000 C 
BRANCH  21  23
ATOM     23  C   UNL     1      -0.108  11.730  19.035  0.00  0.00    +0.000 C 
BRANCH  23  24
ATOM     24  C   UNL     1      -1.454  11.012  19.246  0.00  0.00    +0.000 C 
BRANCH  24  25
ATOM     25  C   UNL     1      -2.308  10.916  18.002  0.00  0.00    +0.000 A 
ATOM     26  C   UNL     1      -1.866  10.165  16.903  0.00  0.00    +0.000 A 
ATOM     27  C   UNL     1      -2.691   9.972  15.795  0.00  0.00    +0.000 A 
ATOM     28  C   UNL     1      -3.965  10.535  15.770  0.00  0.00    +0.000 A 
ATOM     29  C   UNL     1      -4.404  11.309  16.843  0.00  0.00    +0.000 A 
ATOM     30  C   UNL     1      -3.580  11.503  17.953  0.00  0.00    +0.000 A 
ENDBRANCH  24  25
ENDBRANCH  23  24
ENDBRANCH  21  23
ENDBRANCH  17  18
ENDBRANCH   4  17
TORSDOF 6
ENDMDL
MODEL 6
REMARK VINA RESULT:      -7.8      4.195      8.437
REMARK  Name = 
REMARK  6 active torsions:
REMARK  status: ('A' for Active; 'I' for Inactive)
REMARK    1  A    between atoms: C_2  and  C_5
REMARK    2  A    between atoms: N_8  and  C_9
REMARK    3  A    between atoms: C_9  and  C_10
REMARK    4  A    between atoms: N_13  and  C_14
REMARK    5  A    between atoms: C_14  and  C_15
REMARK    6  A    between atoms: C_15  and  C_16
REMARK                            x       y       z     vdW  Elec       q    Type
REMARK                         _______ _______ _______ _____ _____    ______ ____
ROOT
ATOM      1  C   UNL     1       2.624   6.384  18.746  0.00  0.00    +0.000 A 
ATOM      2  N   UNL     1       3.943   6.029  18.762  0.00  0.00    +0.000 NA
ATOM      3  C   UNL     1       4.330   4.831  19.270  0.00  0.00    +0.000 A 
ATOM      4  N   UNL     1       5.664   4.438  19.257  0.00  0.00    +0.000 N 
ATOM      5  C   UNL     1       3.326   3.995  19.787  0.00  0.00    +0.000 A 
ATOM      6  N   UNL     1       3.371   2.748  20.386  0.00  0.00    +0.000 NA
ATOM      7  C   UNL     1       2.114   2.466  20.660  0.00  0.00    +0.000 A 
ATOM      8  N   UNL     1       1.270   3.469  20.276  0.00  0.00    +0.000 N 
ATOM      9  C   UNL     1       2.030   4.458  19.721  0.00  0.00    +0.000 A 
ATOM     10  N   UNL     1       1.597   5.625  19.223  0.00  0.00    +0.000 NA
ATOM     11  H   UNL     1       5.812   3.652  19.888  0.00  0.00    +0.000 HD
ATOM     12  H   UNL     1       0.266   3.487  20.372  0.00  0.00    +0.000 HD
ENDROOT
BRANCH   1  14
ATOM     13  F   UNL     1       3.172   8.224  17.241  0.00  0.00    +0.000 F 
ATOM     14  C   UNL     1       2.264   7.751  18.148  0.00  0.00    +0.000 C 
ATOM     15  F   UNL     1       2.159   8.733  19.095  0.00  0.00    +0.000 F 
ATOM     16  F   UNL     1       1.065   7.748  17.490  0.00  0.00    +0.000 F 
ENDBRANCH   1  14
BRANCH   4  17
ATOM     17  C   UNL     1       6.651   5.503  19.287  0.00  0.00    +0.000 C 
BRANCH  17  18
ATOM     18  C   UNL     1       7.499   5.453  18.008  0.00  0.00    +0.000 C 
ATOM     19  C   UNL     1       7.261   6.668  17.119  0.00  0.00    +0.000 C 
ATOM     20  C   UNL     1       6.133   6.207  16.214  0.00  0.00    +0.000 C 
ATOM     21  N   UNL     1       6.460   4.807  15.899  0.00  0.00    +0.000 NA
ATOM     22  C   UNL     1       7.108   4.268  17.116  0.00  0.00    +0.000 C 
BRANCH  21  23
ATOM     23  C   UNL     1       7.326   4.701  14.706  0.00  0.00    +0.000 C 
BRANCH  23  24
ATOM     24  C   UNL     1       6.568   5.008  13.400  0.00  0.00    +0.000 C 
BRANCH  24  25
ATOM     25  C   UNL     1       6.418   3.821  12.476  0.00  0.00    +0.000 A 
ATOM     26  C   UNL     1       7.553   3.230  11.903  0.00  0.00    +0.000 A 
ATOM     27  C   UNL     1       7.442   2.065  11.142  0.00  0.00    +0.000 A 
ATOM     28  C   UNL     1       6.192   1.485  10.939  0.00  0.00    +0.000 A 
ATOM     29  C   UNL     1       5.052   2.080  11.478  0.00  0.00    +0.000 A 
ATOM     30  C   UNL     1       5.163   3.245  12.240  0.00  0.00    +0.000 A 
ENDBRANCH  24  25
ENDBRANCH  23  24
ENDBRANCH  21  23
ENDBRANCH  17  18
ENDBRANCH   4  17
TORSDOF 6
ENDMDL
MODEL 7
REMARK VINA RESULT:      -7.7      2.619      3.494
REMARK  Name = 
REMARK  6 active torsions:
REMARK  status: ('A' for Active; 'I' for Inactive)
REMARK    1  A    between atoms: C_2  and  C_5
REMARK    2  A    between atoms: N_8  and  C_9
REMARK    3  A    between atoms: C_9  and  C_10
REMARK    4  A    between atoms: N_13  and  C_14
REMARK    5  A    between atoms: C_14  and  C_15
REMARK    6  A    between atoms: C_15  and  C_16
REMARK                            x       y       z     vdW  Elec       q    Type
REMARK                         _______ _______ _______ _____ _____    ______ ____
ROOT
ATOM      1  C   UNL     1       4.988   4.884  16.982  0.00  0.00    +0.000 A 
ATOM      2  N   UNL     1       4.361   5.932  17.594  0.00  0.00    +0.000 NA
ATOM      3  C   UNL     1       3.176   5.751  18.231  0.00  0.00    +0.000 A 
ATOM      4  N   UNL     1       2.544   6.800  18.893  0.00  0.00    +0.000 N 
ATOM      5  C   UNL     1       2.624   4.459  18.213  0.00  0.00    +0.000 A 
ATOM      6  N   UNL     1       1.448   3.943  18.730  0.00  0.00    +0.000 NA
ATOM      7  C   UNL     1       1.475   2.668  18.403  0.00  0.00    +0.000 A 
ATOM      8  N   UNL     1       2.599   2.344  17.698  0.00  0.00    +0.000 N 
ATOM      9  C   UNL     1       3.343   3.480  17.562  0.00  0.00    +0.000 A 
ATOM     10  N   UNL     1       4.518   3.605  16.929  0.00  0.00    +0.000 NA
ATOM     11  H   UNL     1       1.573   6.565  19.089  0.00  0.00    +0.000 HD
ATOM     12  H   UNL     1       2.851   1.434  17.342  0.00  0.00    +0.000 HD
ENDROOT
BRANCH   1  14
ATOM     13  F   UNL     1       6.219   5.533  14.979  0.00  0.00    +0.000 F 
ATOM     14  C   UNL     1       6.330   5.164  16.291  0.00  0.00    +0.000 C 
ATOM     15  F   UNL     1       7.162   4.079  16.290  0.00  0.00    +0.000 F 
ATOM     16  F   UNL     1       7.040   6.168  16.890  0.00  0.00    +0.000 F 
ENDBRANCH   1  14
BRANCH   4  17
ATOM     17  C   UNL     1       2.814   8.135  18.390  0.00  0.00    +0.000 C 
BRANCH  17  18
ATOM     18  C   UNL     1       1.493   8.904  18.242  0.00  0.00    +0.000 C 
ATOM     19  C   UNL     1       1.689  10.240  17.534  0.00  0.00    +0.000 C 
ATOM     20  C   UNL     1       1.946  11.196  18.683  0.00  0.00    +0.000 C 
ATOM     21  N   UNL     1       1.010  10.768  19.736  0.00  0.00    +0.000 NA
ATOM     22  C   UNL     1       0.911   9.298  19.604  0.00  0.00    +0.000 C 
BRANCH  21  23
ATOM     23  C   UNL     1      -0.302  11.436  19.607  0.00  0.00    +0.000 C 
BRANCH  23  24
ATOM     24  C   UNL     1      -1.458  10.433  19.433  0.00  0.00    +0.000 C 
BRANCH  24  25
ATOM     25  C   UNL     1      -2.248  10.611  18.156  0.00  0.00    +0.000 A 
ATOM     26  C   UNL     1      -1.898   9.885  17.008  0.00  0.00    +0.000 A 
ATOM     27  C   UNL     1      -2.685   9.952  15.857  0.00  0.00    +0.000 A 
ATOM     28  C   UNL     1      -3.826  10.751  15.840  0.00  0.00    +0.000 A 
ATOM     29  C   UNL     1      -4.167  11.500  16.966  0.00  0.00    +0.000 A 
ATOM     30  C   UNL     1      -3.380  11.435  18.118  0.00  0.00    +0.000 A 
ENDBRANCH  24  25
ENDBRANCH  23  24
ENDBRANCH  21  23
ENDBRANCH  17  18
ENDBRANCH   4  17
TORSDOF 6
ENDMDL
MODEL 8
REMARK VINA RESULT:      -7.7      2.766      3.576
REMARK  Name = 
REMARK  6 active torsions:
REMARK  status: ('A' for Active; 'I' for Inactive)
REMARK    1  A    between atoms: C_2  and  C_5
REMARK    2  A    between atoms: N_8  and  C_9
REMARK    3  A    between atoms: C_9  and  C_10
REMARK    4  A    between atoms: N_13  and  C_14
REMARK    5  A    between atoms: C_14  and  C_15
REMARK    6  A    between atoms: C_15  and  C_16
REMARK                            x       y       z     vdW  Elec       q    Type
REMARK                         _______ _______ _______ _____ _____    ______ ____
ROOT
ATOM      1  C   UNL     1       2.670   4.219  19.870  0.00  0.00    +0.000 A 
ATOM      2  N   UNL     1       2.129   5.432  20.189  0.00  0.00    +0.000 NA
ATOM      3  C   UNL     1       2.444   6.539  19.471  0.00  0.00    +0.000 A 
ATOM      4  N   UNL     1       1.872   7.775  19.758  0.00  0.00    +0.000 N 
ATOM      5  C   UNL     1       3.355   6.384  18.413  0.00  0.00    +0.000 A 
ATOM      6  N   UNL     1       3.901   7.286  17.515  0.00  0.00    +0.000 NA
ATOM      7  C   UNL     1       4.689   6.558  16.752  0.00  0.00    +0.000 A 
ATOM      8  N   UNL     1       4.683   5.242  17.119  0.00  0.00    +0.000 N 
ATOM      9  C   UNL     1       3.840   5.114  18.185  0.00  0.00    +0.000 A 
ATOM     10  N   UNL     1       3.552   3.991  18.857  0.00  0.00    +0.000 NA
ATOM     11  H   UNL     1       2.394   8.525  19.308  0.00  0.00    +0.000 HD
ATOM     12  H   UNL     1       5.198   4.489  16.688  0.00  0.00    +0.000 HD
ENDROOT
BRANCH   1  14
ATOM     13  F   UNL     1       1.671   1.998  20.016  0.00  0.00    +0.000 F 
ATOM     14  C   UNL     1       2.257   3.011  20.723  0.00  0.00    +0.000 C 
ATOM     15  F   UNL     1       1.355   3.335  21.698  0.00  0.00    +0.000 F 
ATOM     16  F   UNL     1       3.310   2.433  21.377  0.00  0.00    +0.000 F 
ENDBRANCH   1  14
BRANCH   4  17
ATOM     17  C   UNL     1       1.458   7.990  21.133  0.00  0.00    +0.000 C 
BRANCH  17  18
ATOM     18  C   UNL     1       0.254   8.941  21.164  0.00  0.00    +0.000 C 
ATOM     19  C   UNL     1       0.280   9.931  20.005  0.00  0.00    +0.000 C 
ATOM     20  C   UNL     1       1.040  11.109  20.585  0.00  0.00    +0.000 C 
ATOM     21  N   UNL     1       0.543  11.225  21.966  0.00  0.00    +0.000 NA
ATOM     22  C   UNL     1       0.273   9.838  22.407  0.00  0.00    +0.000 C 
BRANCH  21  23
ATOM     23  C   UNL     1      -0.655  12.086  22.047  0.00  0.00    +0.000 C 
BRANCH  23  24
ATOM     24  C   UNL     1      -1.684  11.568  23.070  0.00  0.00    +0.000 C 
BRANCH  24  25
ATOM     25  C   UNL     1      -3.048  12.210  22.958  0.00  0.00    +0.000 A 
ATOM     26  C   UNL     1      -3.825  12.413  24.109  0.00  0.00    +0.000 A 
ATOM     27  C   UNL     1      -5.034  13.106  24.038  0.00  0.00    +0.000 A 
ATOM     28  C   UNL     1      -5.483  13.597  22.814  0.00  0.00    +0.000 A 
ATOM     29  C   UNL     1      -4.735  13.375  21.659  0.00  0.00    +0.000 A 
ATOM     30  C   UNL     1      -3.525  12.682  21.728  0.00  0.00    +0.000 A 
ENDBRANCH  24  25
ENDBRANCH  23  24
ENDBRANCH  21  23
ENDBRANCH  17  18
ENDBRANCH   4  17
TORSDOF 6
ENDMDL
MODEL 9
REMARK VINA RESULT:      -7.7      1.362      2.012
REMARK  Name = 
REMARK  6 active torsions:
REMARK  status: ('A' for Active; 'I' for Inactive)
REMARK    1  A    between atoms: C_2  and  C_5
REMARK    2  A    between atoms: N_8  and  C_9
REMARK    3  A    between atoms: C_9  and  C_10
REMARK    4  A    between atoms: N_13  and  C_14
REMARK    5  A    between atoms: C_14  and  C_15
REMARK    6  A    between atoms: C_15  and  C_16
REMARK                            x       y       z     vdW  Elec       q    Type
REMARK                         _______ _______ _______ _____ _____    ______ ____
ROOT
ATOM      1  C   UNL     1       2.133   3.660  18.697  0.00  0.00    +0.000 A 
ATOM      2  N   UNL     1       1.916   4.920  19.177  0.00  0.00    +0.000 NA
ATOM      3  C   UNL     1       2.630   5.972  18.703  0.00  0.00    +0.000 A 
ATOM      4  N   UNL     1       2.394   7.267  19.153  0.00  0.00    +0.000 N 
ATOM      5  C   UNL     1       3.602   5.703  17.725  0.00  0.00    +0.000 A 
ATOM      6  N   UNL     1       4.503   6.518  17.060  0.00  0.00    +0.000 NA
ATOM      7  C   UNL     1       5.154   5.704  16.255  0.00  0.00    +0.000 A 
ATOM      8  N   UNL     1       4.725   4.413  16.378  0.00  0.00    +0.000 N 
ATOM      9  C   UNL     1       3.736   4.393  17.319  0.00  0.00    +0.000 A 
ATOM     10  N   UNL     1       3.050   3.325  17.747  0.00  0.00    +0.000 NA
ATOM     11  H   UNL     1       3.166   7.881  18.896  0.00  0.00    +0.000 HD
ATOM     12  H   UNL     1       5.062   3.610  15.868  0.00  0.00    +0.000 HD
ENDROOT
BRANCH   1  14
ATOM     13  F   UNL     1       0.725   2.801  20.495  0.00  0.00    +0.000 F 
ATOM     14  C   UNL     1       1.278   2.523  19.276  0.00  0.00    +0.000 C 
ATOM     15  F   UNL     1       1.988   1.368  19.460  0.00  0.00    +0.000 F 
ATOM     16  F   UNL     1       0.226   2.181  18.471  0.00  0.00    +0.000 F 
ENDBRANCH   1  14
BRANCH   4  17
ATOM     17  C   UNL     1       1.866   7.396  20.500  0.00  0.00    +0.000 C 
BRANCH  17  18
ATOM     18  C   UNL     1       1.638   8.880  20.821  0.00  0.00    +0.000 C 
ATOM     19  C   UNL     1       1.057   9.077  22.217  0.00  0.00    +0.000 C 
ATOM     20  C   UNL     1      -0.439   9.052  21.967  0.00  0.00    +0.000 C 
ATOM     21  N   UNL     1      -0.616   9.802  20.713  0.00  0.00    +0.000 NA
ATOM     22  C   UNL     1       0.583   9.503  19.899  0.00  0.00    +0.000 C 
BRANCH  21  23
ATOM     23  C   UNL     1      -0.784  11.250  20.959  0.00  0.00    +0.000 C 
BRANCH  23  24
ATOM     24  C   UNL     1      -0.896  12.061  19.654  0.00  0.00    +0.000 C 
BRANCH  24  25
ATOM     25  C   UNL     1      -2.119  11.739  18.826  0.00  0.00    +0.000 A 
ATOM     26  C   UNL     1      -3.395  12.072  19.303  0.00  0.00    +0.000 A 
ATOM     27  C   UNL     1      -4.524  11.887  18.502  0.00  0.00    +0.000 A 
ATOM     28  C   UNL     1      -4.388  11.360  17.221  0.00  0.00    +0.000 A 
ATOM     29  C   UNL     1      -3.128  10.997  16.747  0.00  0.00    +0.000 A 
ATOM     30  C   UNL     1      -1.998  11.181  17.547  0.00  0.00    +0.000 A 
ENDBRANCH  24  25
ENDBRANCH  23  24
ENDBRANCH  21  23
ENDBRANCH  17  18
ENDBRANCH   4  17
TORSDOF 6
ENDMDL
