MODEL 1
REMARK VINA RESULT:      -8.2      0.000      0.000
REMARK  Name = 
REMARK  7 active torsions:
REMARK  status: ('A' for Active; 'I' for Inactive)
REMARK    1  A    between atoms: C_2  and  C_3
REMARK    2  A    between atoms: C_4  and  C_5
REMARK    3  A    between atoms: N_6  and  C_7
REMARK    4  A    between atoms: C_11  and  C_12
REMARK    5  A    between atoms: C_12  and  C_13
REMARK    6  A    between atoms: C_13  and  C_14
REMARK    7  A    between atoms: N_18  and  C_19
REMARK                            x       y       z     vdW  Elec       q    Type
REMARK                         _______ _______ _______ _____ _____    ______ ____
ROOT
ATOM      1  C   UNL     1       2.671   5.556  18.479  0.00  0.00    +0.000 A 
ATOM      2  C   UNL     1       1.807   4.467  18.355  0.00  0.00    +0.000 A 
ATOM      3  C   UNL     1       2.203   3.349  17.631  0.00  0.00    +0.000 A 
ATOM      4  C   UNL     1       3.450   3.336  17.006  0.00  0.00    +0.000 A 
ATOM      5  C   UNL     1       4.337   4.433  17.074  0.00  0.00    +0.000 A 
ATOM      6  C   UNL     1       3.935   5.516  17.878  0.00  0.00    +0.000 A 
ENDROOT
BRANCH   1  10
ATOM      7  C   UNL     1       1.582   9.056  19.018  0.00  0.00    +0.000 C 
ATOM      8  C   UNL     1       2.219   7.995  18.465  0.00  0.00    +0.000 C 
ATOM      9  C   UNL     1       2.954   8.069  17.135  0.00  0.00    +0.000 C 
ATOM     10  N   UNL     1       2.238   6.750  19.135  0.00  0.00    +0.000 N 
ATOM     11  C   UNL     1       1.882   6.611  20.490  0.00  0.00    +0.000 C 
ATOM     12  O   UNL     1       1.841   5.543  21.102  0.00  0.00    +0.000 OA
ATOM     13  C   UNL     1       1.621   7.900  21.224  0.00  0.00    +0.000 C 
ATOM     14  C   UNL     1       0.895   8.898  20.352  0.00  0.00    +0.000 C 
BRANCH   7  16
ATOM     15  C   UNL     1       0.907  11.448  18.919  0.00  0.00    +0.000 C 
ATOM     16  C   UNL     1       1.541  10.383  18.414  0.00  0.00    +0.000 C 
ENDBRANCH   7  16
ENDBRANCH   1  10
BRANCH   5  17
ATOM     17  C   UNL     1       5.663   4.483  16.182  0.00  0.00    +0.000 C 
ATOM     18  C   UNL     1       5.718   5.586  15.091  0.00  0.00    +0.000 C 
ATOM     19  O   UNL     1       6.332   4.661  14.156  0.00  0.00    +0.000 OA
ATOM     20  C   UNL     1       5.822   3.550  14.950  0.00  0.00    +0.000 C 
BRANCH  17  21
ATOM     21  C   UNL     1       6.917   4.506  17.089  0.00  0.00    +0.000 C 
BRANCH  21  22
ATOM     22  C   UNL     1       7.400   5.885  17.414  0.00  0.00    +0.000 A 
ATOM     23  N   UNL     1       7.489   6.892  16.567  0.00  0.00    +0.000 NA
ATOM     24  N   UNL     1       7.921   8.002  17.255  0.00  0.00    +0.000 NA
ATOM     25  C   UNL     1       8.087   7.651  18.507  0.00  0.00    +0.000 A 
ATOM     26  N   UNL     1       7.795   6.329  18.651  0.00  0.00    +0.000 N 
ATOM     27  C   UNL     1       7.877   5.596  19.886  0.00  0.00    +0.000 C 
ENDBRANCH  21  22
ENDBRANCH  17  21
ENDBRANCH   5  17
TORSDOF 5
ENDMDL
MODEL 2
REMARK VINA RESULT:      -8.2      2.081      3.485
REMARK  Name = 
REMARK  7 active torsions:
REMARK  status: ('A' for Active; 'I' for Inactive)
REMARK    1  A    between atoms: C_2  and  C_3
REMARK    2  A    between atoms: C_4  and  C_5
REMARK    3  A    between atoms: N_6  and  C_7
REMARK    4  A    between atoms: C_11  and  C_12
REMARK    5  A    between atoms: C_12  and  C_13
REMARK    6  A    between atoms: C_13  and  C_14
REMARK    7  A    between atoms: N_18  and  C_19
REMARK                            x       y       z     vdW  Elec       q    Type
REMARK                         _______ _______ _______ _____ _____    ______ ____
ROOT
ATOM      1  C   UNL     1       2.677   6.501  18.572  0.00  0.00    +0.000 A 
ATOM      2  C   UNL     1       1.907   5.451  18.070  0.00  0.00    +0.000 A 
ATOM      3  C   UNL     1       2.527   4.369  17.458  0.00  0.00    +0.000 A 
ATOM      4  C   UNL     1       3.916   4.355  17.319  0.00  0.00    +0.000 A 
ATOM      5  C   UNL     1       4.728   5.417  17.778  0.00  0.00    +0.000 A 
ATOM      6  C   UNL     1       4.072   6.458  18.460  0.00  0.00    +0.000 A 
ENDROOT
BRANCH   1  10
ATOM      7  C   UNL     1       1.186   8.862  21.007  0.00  0.00    +0.000 C 
ATOM      8  C   UNL     1       1.556   7.688  20.439  0.00  0.00    +0.000 C 
ATOM      9  C   UNL     1       1.453   6.350  21.156  0.00  0.00    +0.000 C 
ATOM     10  N   UNL     1       2.047   7.664  19.113  0.00  0.00    +0.000 N 
ATOM     11  C   UNL     1       1.906   8.752  18.231  0.00  0.00    +0.000 C 
ATOM     12  O   UNL     1       2.355   8.792  17.085  0.00  0.00    +0.000 OA
ATOM     13  C   UNL     1       1.066   9.893  18.742  0.00  0.00    +0.000 C 
ATOM     14  C   UNL     1       1.304  10.141  20.214  0.00  0.00    +0.000 C 
BRANCH   7  16
ATOM     15  C   UNL     1      -0.509   9.582  22.678  0.00  0.00    +0.000 C 
ATOM     16  C   UNL     1       0.640   8.975  22.354  0.00  0.00    +0.000 C 
ENDBRANCH   7  16
ENDBRANCH   1  10
BRANCH   5  17
ATOM     17  C   UNL     1       6.286   5.480  17.424  0.00  0.00    +0.000 C 
ATOM     18  C   UNL     1       7.261   5.595  18.627  0.00  0.00    +0.000 C 
ATOM     19  O   UNL     1       8.085   6.541  17.896  0.00  0.00    +0.000 OA
ATOM     20  C   UNL     1       6.951   6.826  17.026  0.00  0.00    +0.000 C 
BRANCH  17  21
ATOM     21  C   UNL     1       6.668   4.314  16.482  0.00  0.00    +0.000 C 
BRANCH  21  22
ATOM     22  C   UNL     1       7.055   4.754  15.105  0.00  0.00    +0.000 A 
ATOM     23  N   UNL     1       8.069   5.540  14.801  0.00  0.00    +0.000 NA
ATOM     24  N   UNL     1       8.128   5.664  13.432  0.00  0.00    +0.000 NA
ATOM     25  C   UNL     1       7.151   4.951  12.927  0.00  0.00    +0.000 A 
ATOM     26  N   UNL     1       6.438   4.380  13.937  0.00  0.00    +0.000 N 
ATOM     27  C   UNL     1       5.285   3.539  13.759  0.00  0.00    +0.000 C 
ENDBRANCH  21  22
ENDBRANCH  17  21
ENDBRANCH   5  17
TORSDOF 5
ENDMDL
MODEL 3
REMARK VINA RESULT:      -8.2      1.688      2.872
REMARK  Name = 
REMARK  7 active torsions:
REMARK  status: ('A' for Active; 'I' for Inactive)
REMARK    1  A    between atoms: C_2  and  C_3
REMARK    2  A    between atoms: C_4  and  C_5
REMARK    3  A    between atoms: N_6  and  C_7
REMARK    4  A    between atoms: C_11  and  C_12
REMARK    5  A    between atoms: C_12  and  C_13
REMARK    6  A    between atoms: C_13  and  C_14
REMARK    7  A    between atoms: N_18  and  C_19
REMARK                            x       y       z     vdW  Elec       q    Type
REMARK                         _______ _______ _______ _____ _____    ______ ____
ROOT
ATOM      1  C   UNL     1       2.578   5.847  18.586  0.00  0.00    +0.000 A 
ATOM      2  C   UNL     1       1.708   4.883  18.073  0.00  0.00    +0.000 A 
ATOM      3  C   UNL     1       2.204   3.853  17.284  0.00  0.00    +0.000 A 
ATOM      4  C   UNL     1       3.565   3.807  16.982  0.00  0.00    +0.000 A 
ATOM      5  C   UNL     1       4.473   4.785  17.448  0.00  0.00    +0.000 A 
ATOM      6  C   UNL     1       3.947   5.769  18.306  0.00  0.00    +0.000 A 
ENDROOT
BRANCH   1  10
ATOM      7  C   UNL     1       1.239   9.218  19.337  0.00  0.00    +0.000 C 
ATOM      8  C   UNL     1       1.944   8.241  18.716  0.00  0.00    +0.000 C 
ATOM      9  C   UNL     1       2.649   8.444  17.384  0.00  0.00    +0.000 C 
ATOM     10  N   UNL     1       2.068   6.966  19.314  0.00  0.00    +0.000 N 
ATOM     11  C   UNL     1       1.745   6.725  20.662  0.00  0.00    +0.000 C 
ATOM     12  O   UNL     1       1.796   5.624  21.213  0.00  0.00    +0.000 OA
ATOM     13  C   UNL     1       1.401   7.947  21.473  0.00  0.00    +0.000 C 
ATOM     14  C   UNL     1       0.588   8.935  20.668  0.00  0.00    +0.000 C 
BRANCH   7  16
ATOM     15  C   UNL     1      -0.075  11.169  18.527  0.00  0.00    +0.000 C 
ATOM     16  C   UNL     1       1.089  10.570  18.810  0.00  0.00    +0.000 C 
ENDBRANCH   7  16
ENDBRANCH   1  10
BRANCH   5  17
ATOM     17  C   UNL     1       5.982   4.833  16.922  0.00  0.00    +0.000 C 
ATOM     18  C   UNL     1       7.090   4.622  17.988  0.00  0.00    +0.000 C 
ATOM     19  O   UNL     1       7.905   5.655  17.377  0.00  0.00    +0.000 OA
ATOM     20  C   UNL     1       6.711   6.192  16.738  0.00  0.00    +0.000 C 
BRANCH  17  21
ATOM     21  C   UNL     1       6.157   3.883  15.713  0.00  0.00    +0.000 C 
BRANCH  21  22
ATOM     22  C   UNL     1       6.837   4.518  14.541  0.00  0.00    +0.000 A 
ATOM     23  N   UNL     1       7.805   5.413  14.601  0.00  0.00    +0.000 NA
ATOM     24  N   UNL     1       8.202   5.709  13.318  0.00  0.00    +0.000 NA
ATOM     25  C   UNL     1       7.472   4.991  12.501  0.00  0.00    +0.000 A 
ATOM     26  N   UNL     1       6.587   4.245  13.219  0.00  0.00    +0.000 N 
ATOM     27  C   UNL     1       5.617   3.346  12.655  0.00  0.00    +0.000 C 
ENDBRANCH  21  22
ENDBRANCH  17  21
ENDBRANCH   5  17
TORSDOF 5
ENDMDL
MODEL 4
REMARK VINA RESULT:      -8.1      2.352      7.070
REMARK  Name = 
REMARK  7 active torsions:
REMARK  status: ('A' for Active; 'I' for Inactive)
REMARK    1  A    between atoms: C_2  and  C_3
REMARK    2  A    between atoms: C_4  and  C_5
REMARK    3  A    between atoms: N_6  and  C_7
REMARK    4  A    between atoms: C_11  and  C_12
REMARK    5  A    between atoms: C_12  and  C_13
REMARK    6  A    between atoms: C_13  and  C_14
REMARK    7  A    between atoms: N_18  and  C_19
REMARK                            x       y       z     vdW  Elec       q    Type
REMARK                         _______ _______ _______ _____ _____    ______ ____
ROOT
ATOM      1  C   UNL     1       3.638   5.039  19.102  0.00  0.00    +0.000 A 
ATOM      2  C   UNL     1       3.257   3.996  19.949  0.00  0.00    +0.000 A 
ATOM      3  C   UNL     1       2.245   4.196  20.880  0.00  0.00    +0.000 A 
ATOM      4  C   UNL     1       1.641   5.449  20.986  0.00  0.00    +0.000 A 
ATOM      5  C   UNL     1       2.026   6.541  20.176  0.00  0.00    +0.000 A 
ATOM      6  C   UNL     1       2.998   6.280  19.193  0.00  0.00    +0.000 A 
ENDROOT
BRANCH   1  10
ATOM      7  C   UNL     1       5.576   4.491  15.992  0.00  0.00    +0.000 C 
ATOM      8  C   UNL     1       4.562   4.408  16.889  0.00  0.00    +0.000 C 
ATOM      9  C   UNL     1       3.207   3.803  16.556  0.00  0.00    +0.000 C 
ATOM     10  N   UNL     1       4.743   4.876  18.211  0.00  0.00    +0.000 N 
ATOM     11  C   UNL     1       6.012   5.165  18.747  0.00  0.00    +0.000 C 
ATOM     12  O   UNL     1       6.214   5.616  19.875  0.00  0.00    +0.000 OA
ATOM     13  C   UNL     1       7.182   4.800  17.871  0.00  0.00    +0.000 C 
ATOM     14  C   UNL     1       6.895   5.088  16.415  0.00  0.00    +0.000 C 
BRANCH   7  16
ATOM     15  C   UNL     1       6.421   4.167  13.675  0.00  0.00    +0.000 C 
ATOM     16  C   UNL     1       5.488   4.003  14.621  0.00  0.00    +0.000 C 
ENDBRANCH   7  16
ENDBRANCH   1  10
BRANCH   5  17
ATOM     17  C   UNL     1       1.471   8.015  20.455  0.00  0.00    +0.000 C 
ATOM     18  C   UNL     1       1.825   8.635  21.833  0.00  0.00    +0.000 C 
ATOM     19  O   UNL     1       0.494   9.199  21.946  0.00  0.00    +0.000 OA
ATOM     20  C   UNL     1       0.020   8.229  20.967  0.00  0.00    +0.000 C 
BRANCH  17  21
ATOM     21  C   UNL     1       1.845   8.956  19.285  0.00  0.00    +0.000 C 
BRANCH  21  22
ATOM     22  C   UNL     1       0.714   9.819  18.820  0.00  0.00    +0.000 A 
ATOM     23  N   UNL     1      -0.245   9.455  17.991  0.00  0.00    +0.000 NA
ATOM     24  N   UNL     1      -1.123  10.504  17.855  0.00  0.00    +0.000 NA
ATOM     25  C   UNL     1      -0.685  11.487  18.603  0.00  0.00    +0.000 A 
ATOM     26  N   UNL     1       0.475  11.113  19.210  0.00  0.00    +0.000 N 
ATOM     27  C   UNL     1       1.247  11.942  20.096  0.00  0.00    +0.000 C 
ENDBRANCH  21  22
ENDBRANCH  17  21
ENDBRANCH   5  17
TORSDOF 5
ENDMDL
MODEL 5
REMARK VINA RESULT:      -8.0      1.186      2.021
REMARK  Name = 
REMARK  7 active torsions:
REMARK  status: ('A' for Active; 'I' for Inactive)
REMARK    1  A    between atoms: C_2  and  C_3
REMARK    2  A    between atoms: C_4  and  C_5
REMARK    3  A    between atoms: N_6  and  C_7
REMARK    4  A    between atoms: C_11  and  C_12
REMARK    5  A    between atoms: C_12  and  C_13
REMARK    6  A    between atoms: C_13  and  C_14
REMARK    7  A    between atoms: N_18  and  C_19
REMARK                            x       y       z     vdW  Elec       q    Type
REMARK                         _______ _______ _______ _____ _____    ______ ____
ROOT
ATOM      1  C   UNL     1       2.699   5.865  18.303  0.00  0.00    +0.000 A 
ATOM      2  C   UNL     1       1.867   4.744  18.304  0.00  0.00    +0.000 A 
ATOM      3  C   UNL     1       2.303   3.560  17.721  0.00  0.00    +0.000 A 
ATOM      4  C   UNL     1       3.556   3.510  17.110  0.00  0.00    +0.000 A 
ATOM      5  C   UNL     1       4.410   4.634  17.052  0.00  0.00    +0.000 A 
ATOM      6  C   UNL     1       3.968   5.792  17.718  0.00  0.00    +0.000 A 
ENDROOT
BRANCH   1  10
ATOM      7  C   UNL     1       1.524   8.467  20.664  0.00  0.00    +0.000 C 
ATOM      8  C   UNL     1       1.738   7.240  20.130  0.00  0.00    +0.000 C 
ATOM      9  C   UNL     1       1.460   5.947  20.883  0.00  0.00    +0.000 C 
ATOM     10  N   UNL     1       2.224   7.115  18.808  0.00  0.00    +0.000 N 
ATOM     11  C   UNL     1       2.228   8.187  17.897  0.00  0.00    +0.000 C 
ATOM     12  O   UNL     1       2.680   8.137  16.752  0.00  0.00    +0.000 OA
ATOM     13  C   UNL     1       1.543   9.442  18.371  0.00  0.00    +0.000 C 
ATOM     14  C   UNL     1       1.808   9.697  19.838  0.00  0.00    +0.000 C 
BRANCH   7  16
ATOM     15  C   UNL     1      -0.230   9.148  22.291  0.00  0.00    +0.000 C 
ATOM     16  C   UNL     1       0.994   8.688  22.005  0.00  0.00    +0.000 C 
ENDBRANCH   7  16
ENDBRANCH   1  10
BRANCH   5  17
ATOM     17  C   UNL     1       5.743   4.617  16.169  0.00  0.00    +0.000 C 
ATOM     18  C   UNL     1       5.842   5.690  15.051  0.00  0.00    +0.000 C 
ATOM     19  O   UNL     1       6.430   4.722  14.144  0.00  0.00    +0.000 OA
ATOM     20  C   UNL     1       5.878   3.649  14.961  0.00  0.00    +0.000 C 
BRANCH  17  21
ATOM     21  C   UNL     1       6.990   4.620  17.084  0.00  0.00    +0.000 C 
BRANCH  21  22
ATOM     22  C   UNL     1       7.469   5.991  17.446  0.00  0.00    +0.000 A 
ATOM     23  N   UNL     1       7.536   7.027  16.631  0.00  0.00    +0.000 NA
ATOM     24  N   UNL     1       7.971   8.117  17.348  0.00  0.00    +0.000 NA
ATOM     25  C   UNL     1       8.159   7.728  18.585  0.00  0.00    +0.000 A 
ATOM     26  N   UNL     1       7.878   6.399  18.691  0.00  0.00    +0.000 N 
ATOM     27  C   UNL     1       7.985   5.627  19.899  0.00  0.00    +0.000 C 
ENDBRANCH  21  22
ENDBRANCH  17  21
ENDBRANCH   5  17
TORSDOF 5
ENDMDL
MODEL 6
REMARK VINA RESULT:      -7.9      2.016      3.132
REMARK  Name = 
REMARK  7 active torsions:
REMARK  status: ('A' for Active; 'I' for Inactive)
REMARK    1  A    between atoms: C_2  and  C_3
REMARK    2  A    between atoms: C_4  and  C_5
REMARK    3  A    between atoms: N_6  and  C_7
REMARK    4  A    between atoms: C_11  and  C_12
REMARK    5  A    between atoms: C_12  and  C_13
REMARK    6  A    between atoms: C_13  and  C_14
REMARK    7  A    between atoms: N_18  and  C_19
REMARK                            x       y       z     vdW  Elec       q    Type
REMARK                         _______ _______ _______ _____ _____    ______ ____
ROOT
ATOM      1  C   UNL     1       2.652   5.929  18.511  0.00  0.00    +0.000 A 
ATOM      2  C   UNL     1       1.826   4.854  18.176  0.00  0.00    +0.000 A 
ATOM      3  C   UNL     1       2.319   3.823  17.386  0.00  0.00    +0.000 A 
ATOM      4  C   UNL     1       3.627   3.885  16.905  0.00  0.00    +0.000 A 
ATOM      5  C   UNL     1       4.482   4.974  17.187  0.00  0.00    +0.000 A 
ATOM      6  C   UNL     1       3.974   5.961  18.052  0.00  0.00    +0.000 A 
ENDROOT
BRANCH   1  10
ATOM      7  C   UNL     1       1.287   9.290  19.260  0.00  0.00    +0.000 C 
ATOM      8  C   UNL     1       2.004   8.319  18.643  0.00  0.00    +0.000 C 
ATOM      9  C   UNL     1       2.722   8.531  17.319  0.00  0.00    +0.000 C 
ATOM     10  N   UNL     1       2.128   7.042  19.237  0.00  0.00    +0.000 N 
ATOM     11  C   UNL     1       1.793   6.794  20.582  0.00  0.00    +0.000 C 
ATOM     12  O   UNL     1       1.843   5.692  21.129  0.00  0.00    +0.000 OA
ATOM     13  C   UNL     1       1.434   8.011  21.393  0.00  0.00    +0.000 C 
ATOM     14  C   UNL     1       0.624   8.998  20.583  0.00  0.00    +0.000 C 
BRANCH   7  16
ATOM     15  C   UNL     1       0.861  11.733  19.465  0.00  0.00    +0.000 C 
ATOM     16  C   UNL     1       1.135  10.643  18.737  0.00  0.00    +0.000 C 
ENDBRANCH   7  16
ENDBRANCH   1  10
BRANCH   5  17
ATOM     17  C   UNL     1       5.897   5.128  16.459  0.00  0.00    +0.000 C 
ATOM     18  C   UNL     1       6.798   3.864  16.431  0.00  0.00    +0.000 C 
ATOM     19  O   UNL     1       7.976   4.671  16.690  0.00  0.00    +0.000 OA
ATOM     20  C   UNL     1       7.115   5.723  17.217  0.00  0.00    +0.000 C 
BRANCH  17  21
ATOM     21  C   UNL     1       5.708   5.732  15.047  0.00  0.00    +0.000 C 
BRANCH  21  22
ATOM     22  C   UNL     1       5.940   4.756  13.937  0.00  0.00    +0.000 A 
ATOM     23  N   UNL     1       5.108   3.805  13.558  0.00  0.00    +0.000 NA
ATOM     24  N   UNL     1       5.653   3.158  12.474  0.00  0.00    +0.000 NA
ATOM     25  C   UNL     1       6.805   3.725  12.211  0.00  0.00    +0.000 A 
ATOM     26  N   UNL     1       7.038   4.717  13.114  0.00  0.00    +0.000 N 
ATOM     27  C   UNL     1       8.212   5.547  13.143  0.00  0.00    +0.000 C 
ENDBRANCH  21  22
ENDBRANCH  17  21
ENDBRANCH   5  17
TORSDOF 5
ENDMDL
MODEL 7
REMARK VINA RESULT:      -7.9      0.725      1.256
REMARK  Name = 
REMARK  7 active torsions:
REMARK  status: ('A' for Active; 'I' for Inactive)
REMARK    1  A    between atoms: C_2  and  C_3
REMARK    2  A    between atoms: C_4  and  C_5
REMARK    3  A    between atoms: N_6  and  C_7
REMARK    4  A    between atoms: C_11  and  C_12
REMARK    5  A    between atoms: C_12  and  C_13
REMARK    6  A    between atoms: C_13  and  C_14
REMARK    7  A    between atoms: N_18  and  C_19
REMARK                            x       y       z     vdW  Elec       q    Type
REMARK                         _______ _______ _______ _____ _____    ______ ____
ROOT
ATOM      1  C   UNL     1       2.552   5.698  18.488  0.00  0.00    +0.000 A 
ATOM      2  C   UNL     1       1.716   4.583  18.397  0.00  0.00    +0.000 A 
ATOM      3  C   UNL     1       2.104   3.487  17.637  0.00  0.00    +0.000 A 
ATOM      4  C   UNL     1       3.313   3.521  16.941  0.00  0.00    +0.000 A 
ATOM      5  C   UNL     1       4.169   4.645  16.974  0.00  0.00    +0.000 A 
ATOM      6  C   UNL     1       3.780   5.705  17.815  0.00  0.00    +0.000 A 
ENDROOT
BRANCH   1  10
ATOM      7  C   UNL     1       1.453   9.174  19.143  0.00  0.00    +0.000 C 
ATOM      8  C   UNL     1       2.088   8.133  18.551  0.00  0.00    +0.000 C 
ATOM      9  C   UNL     1       2.808   8.250  17.217  0.00  0.00    +0.000 C 
ATOM     10  N   UNL     1       2.121   6.869  19.184  0.00  0.00    +0.000 N 
ATOM     11  C   UNL     1       1.780   6.688  20.537  0.00  0.00    +0.000 C 
ATOM     12  O   UNL     1       1.752   5.602  21.118  0.00  0.00    +0.000 OA
ATOM     13  C   UNL     1       1.522   7.952  21.313  0.00  0.00    +0.000 C 
ATOM     14  C   UNL     1       0.781   8.973  20.479  0.00  0.00    +0.000 C 
BRANCH   7  16
ATOM     15  C   UNL     1       0.624  11.517  19.023  0.00  0.00    +0.000 C 
ATOM     16  C   UNL     1       1.398  10.518  18.580  0.00  0.00    +0.000 C 
ENDBRANCH   7  16
ENDBRANCH   1  10
BRANCH   5  17
ATOM     17  C   UNL     1       5.440   4.748  16.010  0.00  0.00    +0.000 C 
ATOM     18  C   UNL     1       5.161   4.618  14.488  0.00  0.00    +0.000 C 
ATOM     19  O   UNL     1       6.356   3.812  14.316  0.00  0.00    +0.000 OA
ATOM     20  C   UNL     1       6.329   3.502  15.740  0.00  0.00    +0.000 C 
BRANCH  17  21
ATOM     21  C   UNL     1       6.260   6.017  16.340  0.00  0.00    +0.000 C 
BRANCH  21  22
ATOM     22  C   UNL     1       7.026   5.923  17.622  0.00  0.00    +0.000 A 
ATOM     23  N   UNL     1       7.163   4.841  18.363  0.00  0.00    +0.000 NA
ATOM     24  N   UNL     1       7.981   5.143  19.427  0.00  0.00    +0.000 NA
ATOM     25  C   UNL     1       8.328   6.401  19.314  0.00  0.00    +0.000 A 
ATOM     26  N   UNL     1       7.738   6.939  18.211  0.00  0.00    +0.000 N 
ATOM     27  C   UNL     1       7.882   8.303  17.780  0.00  0.00    +0.000 C 
ENDBRANCH  21  22
ENDBRANCH  17  21
ENDBRANCH   5  17
TORSDOF 5
ENDMDL
MODEL 8
REMARK VINA RESULT:      -7.8      3.324      5.502
REMARK  Name = 
REMARK  7 active torsions:
REMARK  status: ('A' for Active; 'I' for Inactive)
REMARK    1  A    between atoms: C_2  and  C_3
REMARK    2  A    between atoms: C_4  and  C_5
REMARK    3  A    between atoms: N_6  and  C_7
REMARK    4  A    between atoms: C_11  and  C_12
REMARK    5  A    between atoms: C_12  and  C_13
REMARK    6  A    between atoms: C_13  and  C_14
REMARK    7  A    between atoms: N_18  and  C_19
REMARK                            x       y       z     vdW  Elec       q    Type
REMARK                         _______ _______ _______ _____ _____    ______ ____
ROOT
ATOM      1  C   UNL     1       0.755   9.687  19.844  0.00  0.00    +0.000 A 
ATOM      2  C   UNL     1       0.413   9.258  21.128  0.00  0.00    +0.000 A 
ATOM      3  C   UNL     1       0.907   8.052  21.609  0.00  0.00    +0.000 A 
ATOM      4  C   UNL     1       1.715   7.261  20.792  0.00  0.00    +0.000 A 
ATOM      5  C   UNL     1       2.051   7.639  19.473  0.00  0.00    +0.000 A 
ATOM      6  C   UNL     1       1.597   8.901  19.048  0.00  0.00    +0.000 A 
ENDROOT
BRANCH   1  10
ATOM      7  C   UNL     1       0.339  13.214  18.790  0.00  0.00    +0.000 C 
ATOM      8  C   UNL     1       0.762  12.144  19.506  0.00  0.00    +0.000 C 
ATOM      9  C   UNL     1       1.851  12.232  20.565  0.00  0.00    +0.000 C 
ATOM     10  N   UNL     1       0.174  10.874  19.301  0.00  0.00    +0.000 N 
ATOM     11  C   UNL     1      -1.033  10.701  18.599  0.00  0.00    +0.000 C 
ATOM     12  O   UNL     1      -1.559   9.613  18.359  0.00  0.00    +0.000 OA
ATOM     13  C   UNL     1      -1.740  11.972  18.207  0.00  0.00    +0.000 C 
ATOM     14  C   UNL     1      -0.762  13.039  17.773  0.00  0.00    +0.000 C 
BRANCH   7  16
ATOM     15  C   UNL     1       0.161  15.695  18.827  0.00  0.00    +0.000 C 
ATOM     16  C   UNL     1       0.865  14.563  18.959  0.00  0.00    +0.000 C 
ENDBRANCH   7  16
ENDBRANCH   1  10
BRANCH   5  17
ATOM     17  C   UNL     1       2.799   6.627  18.486  0.00  0.00    +0.000 C 
ATOM     18  C   UNL     1       3.994   5.838  19.085  0.00  0.00    +0.000 C 
ATOM     19  O   UNL     1       4.751   6.010  17.859  0.00  0.00    +0.000 OA
ATOM     20  C   UNL     1       3.897   7.140  17.513  0.00  0.00    +0.000 C 
BRANCH  17  21
ATOM     21  C   UNL     1       1.774   5.691  17.803  0.00  0.00    +0.000 C 
BRANCH  21  22
ATOM     22  C   UNL     1       2.053   4.236  18.013  0.00  0.00    +0.000 A 
ATOM     23  N   UNL     1       2.736   3.455  17.199  0.00  0.00    +0.000 NA
ATOM     24  N   UNL     1       2.821   2.205  17.766  0.00  0.00    +0.000 NA
ATOM     25  C   UNL     1       2.191   2.247  18.914  0.00  0.00    +0.000 A 
ATOM     26  N   UNL     1       1.674   3.492  19.103  0.00  0.00    +0.000 N 
ATOM     27  C   UNL     1       0.908   3.903  20.248  0.00  0.00    +0.000 C 
ENDBRANCH  21  22
ENDBRANCH  17  21
ENDBRANCH   5  17
TORSDOF 5
ENDMDL
MODEL 9
REMARK VINA RESULT:      -7.8      3.335      5.634
REMARK  Name = 
REMARK  7 active torsions:
REMARK  status: ('A' for Active; 'I' for Inactive)
REMARK    1  A    between atoms: C_2  and  C_3
REMARK    2  A    between atoms: C_4  and  C_5
REMARK    3  A    between atoms: N_6  and  C_7
REMARK    4  A    between atoms: C_11  and  C_12
REMARK    5  A    between atoms: C_12  and  C_13
REMARK    6  A    between atoms: C_13  and  C_14
REMARK    7  A    between atoms: N_18  and  C_19
REMARK                            x       y       z     vdW  Elec       q    Type
REMARK                         _______ _______ _______ _____ _____    ______ ____
ROOT
ATOM      1  C   UNL     1       0.696   9.699  19.893  0.00  0.00    +0.000 A 
ATOM      2  C   UNL     1       0.244   9.253  21.136  0.00  0.00    +0.000 A 
ATOM      3  C   UNL     1       0.676   8.028  21.630  0.00  0.00    +0.000 A 
ATOM      4  C   UNL     1       1.533   7.237  20.864  0.00  0.00    +0.000 A 
ATOM      5  C   UNL     1       1.981   7.634  19.584  0.00  0.00    +0.000 A 
ATOM      6  C   UNL     1       1.585   8.913  19.151  0.00  0.00    +0.000 A 
ENDROOT
BRANCH   1  10
ATOM      7  C   UNL     1       0.416  13.260  18.910  0.00  0.00    +0.000 C 
ATOM      8  C   UNL     1       0.756  12.165  19.633  0.00  0.00    +0.000 C 
ATOM      9  C   UNL     1       1.731  12.211  20.799  0.00  0.00    +0.000 C 
ATOM     10  N   UNL     1       0.182  10.909  19.331  0.00  0.00    +0.000 N 
ATOM     11  C   UNL     1      -0.949  10.769  18.505  0.00  0.00    +0.000 C 
ATOM     12  O   UNL     1      -1.455   9.694  18.179  0.00  0.00    +0.000 OA
ATOM     13  C   UNL     1      -1.603  12.058  18.081  0.00  0.00    +0.000 C 
ATOM     14  C   UNL     1      -0.577  13.128  17.781  0.00  0.00    +0.000 C 
BRANCH   7  16
ATOM     15  C   UNL     1       1.976  15.165  18.556  0.00  0.00    +0.000 C 
ATOM     16  C   UNL     1       0.931  14.599  19.173  0.00  0.00    +0.000 C 
ENDBRANCH   7  16
ENDBRANCH   1  10
BRANCH   5  17
ATOM     17  C   UNL     1       2.788   6.628  18.639  0.00  0.00    +0.000 C 
ATOM     18  C   UNL     1       4.047   5.963  19.257  0.00  0.00    +0.000 C 
ATOM     19  O   UNL     1       4.771   6.123  18.009  0.00  0.00    +0.000 OA
ATOM     20  C   UNL     1       3.829   7.165  17.620  0.00  0.00    +0.000 C 
BRANCH  17  21
ATOM     21  C   UNL     1       1.825   5.582  18.027  0.00  0.00    +0.000 C 
BRANCH  21  22
ATOM     22  C   UNL     1       1.765   4.298  18.793  0.00  0.00    +0.000 A 
ATOM     23  N   UNL     1       1.030   4.071  19.865  0.00  0.00    +0.000 NA
ATOM     24  N   UNL     1       1.205   2.760  20.242  0.00  0.00    +0.000 NA
ATOM     25  C   UNL     1       2.040   2.212  19.394  0.00  0.00    +0.000 A 
ATOM     26  N   UNL     1       2.435   3.141  18.481  0.00  0.00    +0.000 N 
ATOM     27  C   UNL     1       3.360   2.901  17.406  0.00  0.00    +0.000 C 
ENDBRANCH  21  22
ENDBRANCH  17  21
ENDBRANCH   5  17
TORSDOF 5
ENDMDL
