MODEL 1
REMARK VINA RESULT:      -8.4      0.000      0.000
REMARK  Name = 
REMARK  3 active torsions:
REMARK  status: ('A' for Active; 'I' for Inactive)
REMARK    1  A    between atoms: C_1  and  C_2
REMARK    2  A    between atoms: C_4  and  C_5
REMARK    3  A    between atoms: N_7  and  C_8
REMARK                            x       y       z     vdW  Elec       q    Type
REMARK                         _______ _______ _______ _____ _____    ______ ____
ROOT
ATOM      1  C   UNL     1       2.609   7.511  18.461  0.00  0.00    +0.000 C 
ATOM      2  O   UNL     1       2.362   7.435  19.662  0.00  0.00    +0.000 OA
ATOM      3  N   UNL     1       2.159   8.512  17.604  0.00  0.00    +0.000 N 
ATOM      4  H   UNL     1       2.341   8.415  16.614  0.00  0.00    +0.000 HD
ENDROOT
BRANCH   1   8
ATOM      5  C   UNL     1       7.044   5.968  16.739  0.00  0.00    +0.000 C 
ATOM      6  C   UNL     1       5.617   5.724  17.124  0.00  0.00    +0.000 A 
ATOM      7  C   UNL     1       4.779   6.756  17.510  0.00  0.00    +0.000 A 
ATOM      8  C   UNL     1       3.469   6.438  17.882  0.00  0.00    +0.000 A 
ATOM      9  C   UNL     1       3.021   5.085  17.865  0.00  0.00    +0.000 A 
ATOM     10  C   UNL     1       1.718   4.633  18.213  0.00  0.00    +0.000 A 
ATOM     11  C   UNL     1       1.382   3.279  18.210  0.00  0.00    +0.000 A 
ATOM     12  C   UNL     1       2.337   2.344  17.847  0.00  0.00    +0.000 A 
ATOM     13  C   UNL     1       3.612   2.776  17.478  0.00  0.00    +0.000 A 
ATOM     14  C   UNL     1       3.968   4.120  17.474  0.00  0.00    +0.000 A 
ATOM     15  N   UNL     1       5.217   4.434  17.104  0.00  0.00    +0.000 NA
ENDBRANCH   1   8
BRANCH   3  16
ATOM     16  C   UNL     1       1.347   9.615  17.994  0.00  0.00    +0.000 A 
ATOM     17  C   UNL     1       1.885  10.841  18.410  0.00  0.00    +0.000 A 
ATOM     18  C   UNL     1       1.070  11.891  18.830  0.00  0.00    +0.000 A 
ATOM     19  C   UNL     1      -0.306  11.738  18.834  0.00  0.00    +0.000 A 
ATOM     20  C   UNL     1      -0.872  10.544  18.378  0.00  0.00    +0.000 A 
ATOM     21  C   UNL     1      -0.051   9.482  17.966  0.00  0.00    +0.000 A 
ATOM     22  O   UNL     1      -2.231  10.345  18.325  0.00  0.00    +0.000 OA
ATOM     23  C   UNL     1      -2.949  11.585  18.449  0.00  0.00    +0.000 C 
ATOM     24  C   UNL     1      -2.382  12.441  19.569  0.00  0.00    +0.000 C 
ATOM     25  O   UNL     1      -1.031  12.808  19.283  0.00  0.00    +0.000 OA
ENDBRANCH   3  16
TORSDOF 2
ENDMDL
MODEL 2
REMARK VINA RESULT:      -8.3      0.942      1.842
REMARK  Name = 
REMARK  3 active torsions:
REMARK  status: ('A' for Active; 'I' for Inactive)
REMARK    1  A    between atoms: C_1  and  C_2
REMARK    2  A    between atoms: C_4  and  C_5
REMARK    3  A    between atoms: N_7  and  C_8
REMARK                            x       y       z     vdW  Elec       q    Type
REMARK                         _______ _______ _______ _____ _____    ______ ____
ROOT
ATOM      1  C   UNL     1       2.599   7.457  18.435  0.00  0.00    +0.000 C 
ATOM      2  O   UNL     1       2.311   7.358  19.624  0.00  0.00    +0.000 OA
ATOM      3  N   UNL     1       2.206   8.492  17.590  0.00  0.00    +0.000 N 
ATOM      4  H   UNL     1       2.418   8.413  16.603  0.00  0.00    +0.000 HD
ENDROOT
BRANCH   1   8
ATOM      5  C   UNL     1       6.993   5.885  16.632  0.00  0.00    +0.000 C 
ATOM      6  C   UNL     1       5.576   5.647  17.058  0.00  0.00    +0.000 A 
ATOM      7  C   UNL     1       4.746   6.686  17.444  0.00  0.00    +0.000 A 
ATOM      8  C   UNL     1       3.447   6.373  17.856  0.00  0.00    +0.000 A 
ATOM      9  C   UNL     1       3.001   5.020  17.877  0.00  0.00    +0.000 A 
ATOM     10  C   UNL     1       1.708   4.573  18.267  0.00  0.00    +0.000 A 
ATOM     11  C   UNL     1       1.374   3.218  18.300  0.00  0.00    +0.000 A 
ATOM     12  C   UNL     1       2.322   2.278  17.932  0.00  0.00    +0.000 A 
ATOM     13  C   UNL     1       3.587   2.704  17.523  0.00  0.00    +0.000 A 
ATOM     14  C   UNL     1       3.939   4.048  17.482  0.00  0.00    +0.000 A 
ATOM     15  N   UNL     1       5.178   4.357  17.075  0.00  0.00    +0.000 NA
ENDBRANCH   1   8
BRANCH   3  16
ATOM     16  C   UNL     1       1.415   9.609  17.981  0.00  0.00    +0.000 A 
ATOM     17  C   UNL     1       0.015   9.561  18.039  0.00  0.00    +0.000 A 
ATOM     18  C   UNL     1      -0.741  10.682  18.381  0.00  0.00    +0.000 A 
ATOM     19  C   UNL     1      -0.107  11.875  18.682  0.00  0.00    +0.000 A 
ATOM     20  C   UNL     1       1.290  11.939  18.678  0.00  0.00    +0.000 A 
ATOM     21  C   UNL     1       2.051  10.814  18.323  0.00  0.00    +0.000 A 
ATOM     22  O   UNL     1       1.976  13.086  19.001  0.00  0.00    +0.000 OA
ATOM     23  C   UNL     1       1.124  14.042  19.655  0.00  0.00    +0.000 C 
ATOM     24  C   UNL     1      -0.211  14.170  18.940  0.00  0.00    +0.000 C 
ATOM     25  O   UNL     1      -0.923  12.932  18.983  0.00  0.00    +0.000 OA
ENDBRANCH   3  16
TORSDOF 2
ENDMDL
MODEL 3
REMARK VINA RESULT:      -8.3      2.560      2.741
REMARK  Name = 
REMARK  3 active torsions:
REMARK  status: ('A' for Active; 'I' for Inactive)
REMARK    1  A    between atoms: C_1  and  C_2
REMARK    2  A    between atoms: C_4  and  C_5
REMARK    3  A    between atoms: N_7  and  C_8
REMARK                            x       y       z     vdW  Elec       q    Type
REMARK                         _______ _______ _______ _____ _____    ______ ____
ROOT
ATOM      1  C   UNL     1       2.487   7.085  19.011  0.00  0.00    +0.000 C 
ATOM      2  O   UNL     1       2.206   7.556  17.912  0.00  0.00    +0.000 OA
ATOM      3  N   UNL     1       2.096   7.607  20.241  0.00  0.00    +0.000 N 
ATOM      4  H   UNL     1       2.474   7.191  21.082  0.00  0.00    +0.000 HD
ENDROOT
BRANCH   1   8
ATOM      5  C   UNL     1       6.801   4.743  18.042  0.00  0.00    +0.000 C 
ATOM      6  C   UNL     1       5.409   4.777  18.595  0.00  0.00    +0.000 A 
ATOM      7  C   UNL     1       4.590   5.883  18.444  0.00  0.00    +0.000 A 
ATOM      8  C   UNL     1       3.314   5.842  19.017  0.00  0.00    +0.000 A 
ATOM      9  C   UNL     1       2.881   4.691  19.736  0.00  0.00    +0.000 A 
ATOM     10  C   UNL     1       1.612   4.523  20.357  0.00  0.00    +0.000 A 
ATOM     11  C   UNL     1       1.292   3.375  21.083  0.00  0.00    +0.000 A 
ATOM     12  C   UNL     1       2.228   2.360  21.194  0.00  0.00    +0.000 A 
ATOM     13  C   UNL     1       3.468   2.500  20.568  0.00  0.00    +0.000 A 
ATOM     14  C   UNL     1       3.807   3.636  19.840  0.00  0.00    +0.000 A 
ATOM     15  N   UNL     1       5.022   3.677  19.277  0.00  0.00    +0.000 NA
ENDBRANCH   1   8
BRANCH   3  16
ATOM     16  C   UNL     1       1.295   8.771  20.415  0.00  0.00    +0.000 A 
ATOM     17  C   UNL     1       0.923   9.601  19.348  0.00  0.00    +0.000 A 
ATOM     18  C   UNL     1       0.176  10.760  19.550  0.00  0.00    +0.000 A 
ATOM     19  C   UNL     1      -0.223  11.110  20.829  0.00  0.00    +0.000 A 
ATOM     20  C   UNL     1       0.092  10.276  21.906  0.00  0.00    +0.000 A 
ATOM     21  C   UNL     1       0.854   9.114  21.704  0.00  0.00    +0.000 A 
ATOM     22  O   UNL     1      -0.306  10.552  23.192  0.00  0.00    +0.000 OA
ATOM     23  C   UNL     1      -1.334  11.556  23.221  0.00  0.00    +0.000 C 
ATOM     24  C   UNL     1      -0.997  12.717  22.299  0.00  0.00    +0.000 C 
ATOM     25  O   UNL     1      -0.932  12.275  20.942  0.00  0.00    +0.000 OA
ENDBRANCH   3  16
TORSDOF 2
ENDMDL
MODEL 4
REMARK VINA RESULT:      -8.2      2.006      2.211
REMARK  Name = 
REMARK  3 active torsions:
REMARK  status: ('A' for Active; 'I' for Inactive)
REMARK    1  A    between atoms: C_1  and  C_2
REMARK    2  A    between atoms: C_4  and  C_5
REMARK    3  A    between atoms: N_7  and  C_8
REMARK                            x       y       z     vdW  Elec       q    Type
REMARK                         _______ _______ _______ _____ _____    ______ ____
ROOT
ATOM      1  C   UNL     1       2.765   7.664  18.079  0.00  0.00    +0.000 C 
ATOM      2  O   UNL     1       2.573   8.439  17.146  0.00  0.00    +0.000 OA
ATOM      3  N   UNL     1       2.209   7.774  19.351  0.00  0.00    +0.000 N 
ATOM      4  H   UNL     1       2.521   7.132  20.069  0.00  0.00    +0.000 HD
ENDROOT
BRANCH   1   8
ATOM      5  C   UNL     1       7.372   5.792  17.535  0.00  0.00    +0.000 C 
ATOM      6  C   UNL     1       5.884   5.640  17.621  0.00  0.00    +0.000 A 
ATOM      7  C   UNL     1       5.042   6.736  17.707  0.00  0.00    +0.000 A 
ATOM      8  C   UNL     1       3.667   6.504  17.814  0.00  0.00    +0.000 A 
ATOM      9  C   UNL     1       3.157   5.174  17.835  0.00  0.00    +0.000 A 
ATOM     10  C   UNL     1       1.786   4.807  17.933  0.00  0.00    +0.000 A 
ATOM     11  C   UNL     1       1.383   3.473  17.993  0.00  0.00    +0.000 A 
ATOM     12  C   UNL     1       2.339   2.472  17.945  0.00  0.00    +0.000 A 
ATOM     13  C   UNL     1       3.686   2.817  17.823  0.00  0.00    +0.000 A 
ATOM     14  C   UNL     1       4.110   4.141  17.761  0.00  0.00    +0.000 A 
ATOM     15  N   UNL     1       5.425   4.370  17.644  0.00  0.00    +0.000 NA
ENDBRANCH   1   8
BRANCH   3  16
ATOM     16  C   UNL     1       1.318   8.804  19.766  0.00  0.00    +0.000 A 
ATOM     17  C   UNL     1       0.653   9.640  18.859  0.00  0.00    +0.000 A 
ATOM     18  C   UNL     1      -0.179  10.671  19.291  0.00  0.00    +0.000 A 
ATOM     19  C   UNL     1      -0.370  10.882  20.646  0.00  0.00    +0.000 A 
ATOM     20  C   UNL     1       0.243  10.034  21.573  0.00  0.00    +0.000 A 
ATOM     21  C   UNL     1       1.090   9.002  21.138  0.00  0.00    +0.000 A 
ATOM     22  O   UNL     1       0.065  10.171  22.929  0.00  0.00    +0.000 OA
ATOM     23  C   UNL     1      -1.055  11.022  23.228  0.00  0.00    +0.000 C 
ATOM     24  C   UNL     1      -1.044  12.273  22.365  0.00  0.00    +0.000 C 
ATOM     25  O   UNL     1      -1.182  11.930  20.985  0.00  0.00    +0.000 OA
ENDBRANCH   3  16
TORSDOF 2
ENDMDL
MODEL 5
REMARK VINA RESULT:      -8.0      1.863      2.095
REMARK  Name = 
REMARK  3 active torsions:
REMARK  status: ('A' for Active; 'I' for Inactive)
REMARK    1  A    between atoms: C_1  and  C_2
REMARK    2  A    between atoms: C_4  and  C_5
REMARK    3  A    between atoms: N_7  and  C_8
REMARK                            x       y       z     vdW  Elec       q    Type
REMARK                         _______ _______ _______ _____ _____    ______ ____
ROOT
ATOM      1  C   UNL     1       2.489   7.536  18.336  0.00  0.00    +0.000 C 
ATOM      2  O   UNL     1       2.021   8.303  17.498  0.00  0.00    +0.000 OA
ATOM      3  N   UNL     1       2.239   7.583  19.705  0.00  0.00    +0.000 N 
ATOM      4  H   UNL     1       2.762   6.963  20.310  0.00  0.00    +0.000 HD
ENDROOT
BRANCH   1   8
ATOM      5  C   UNL     1       7.027   6.034  16.861  0.00  0.00    +0.000 C 
ATOM      6  C   UNL     1       5.590   5.772  17.193  0.00  0.00    +0.000 A 
ATOM      7  C   UNL     1       4.714   6.798  17.506  0.00  0.00    +0.000 A 
ATOM      8  C   UNL     1       3.396   6.463  17.832  0.00  0.00    +0.000 A 
ATOM      9  C   UNL     1       2.977   5.101  17.843  0.00  0.00    +0.000 A 
ATOM     10  C   UNL     1       1.670   4.633  18.150  0.00  0.00    +0.000 A 
ATOM     11  C   UNL     1       1.362   3.271  18.181  0.00  0.00    +0.000 A 
ATOM     12  C   UNL     1       2.352   2.347  17.892  0.00  0.00    +0.000 A 
ATOM     13  C   UNL     1       3.633   2.793  17.564  0.00  0.00    +0.000 A 
ATOM     14  C   UNL     1       3.960   4.145  17.527  0.00  0.00    +0.000 A 
ATOM     15  N   UNL     1       5.217   4.474  17.201  0.00  0.00    +0.000 NA
ENDBRANCH   1   8
BRANCH   3  16
ATOM     16  C   UNL     1       1.389   8.527  20.347  0.00  0.00    +0.000 A 
ATOM     17  C   UNL     1       0.876   8.329  21.637  0.00  0.00    +0.000 A 
ATOM     18  C   UNL     1       0.008   9.247  22.226  0.00  0.00    +0.000 A 
ATOM     19  C   UNL     1      -0.358  10.391  21.538  0.00  0.00    +0.000 A 
ATOM     20  C   UNL     1       0.176  10.638  20.270  0.00  0.00    +0.000 A 
ATOM     21  C   UNL     1       1.041   9.709  19.671  0.00  0.00    +0.000 A 
ATOM     22  O   UNL     1      -0.123  11.772  19.553  0.00  0.00    +0.000 OA
ATOM     23  C   UNL     1      -0.730  12.776  20.383  0.00  0.00    +0.000 C 
ATOM     24  C   UNL     1      -1.804  12.176  21.277  0.00  0.00    +0.000 C 
ATOM     25  O   UNL     1      -1.232  11.227  22.179  0.00  0.00    +0.000 OA
ENDBRANCH   3  16
TORSDOF 2
ENDMDL
MODEL 6
REMARK VINA RESULT:      -7.9      2.307      2.479
REMARK  Name = 
REMARK  3 active torsions:
REMARK  status: ('A' for Active; 'I' for Inactive)
REMARK    1  A    between atoms: C_1  and  C_2
REMARK    2  A    between atoms: C_4  and  C_5
REMARK    3  A    between atoms: N_7  and  C_8
REMARK                            x       y       z     vdW  Elec       q    Type
REMARK                         _______ _______ _______ _____ _____    ______ ____
ROOT
ATOM      1  C   UNL     1       1.941   6.790  19.853  0.00  0.00    +0.000 C 
ATOM      2  O   UNL     1       1.618   6.116  20.827  0.00  0.00    +0.000 OA
ATOM      3  N   UNL     1       1.682   8.147  19.684  0.00  0.00    +0.000 N 
ATOM      4  H   UNL     1       1.905   8.573  18.794  0.00  0.00    +0.000 HD
ENDROOT
BRANCH   1   8
ATOM      5  C   UNL     1       5.653   6.675  16.500  0.00  0.00    +0.000 C 
ATOM      6  C   UNL     1       4.499   6.045  17.219  0.00  0.00    +0.000 A 
ATOM      7  C   UNL     1       3.719   6.758  18.113  0.00  0.00    +0.000 A 
ATOM      8  C   UNL     1       2.679   6.084  18.763  0.00  0.00    +0.000 A 
ATOM      9  C   UNL     1       2.440   4.704  18.507  0.00  0.00    +0.000 A 
ATOM     10  C   UNL     1       1.416   3.911  19.096  0.00  0.00    +0.000 A 
ATOM     11  C   UNL     1       1.286   2.549  18.818  0.00  0.00    +0.000 A 
ATOM     12  C   UNL     1       2.170   1.950  17.936  0.00  0.00    +0.000 A 
ATOM     13  C   UNL     1       3.163   2.722  17.331  0.00  0.00    +0.000 A 
ATOM     14  C   UNL     1       3.310   4.080  17.593  0.00  0.00    +0.000 A 
ATOM     15  N   UNL     1       4.295   4.734  16.963  0.00  0.00    +0.000 NA
ENDBRANCH   1   8
BRANCH   3  16
ATOM     16  C   UNL     1       1.007   8.972  20.628  0.00  0.00    +0.000 A 
ATOM     17  C   UNL     1       1.174   8.831  22.013  0.00  0.00    +0.000 A 
ATOM     18  C   UNL     1       0.467   9.620  22.918  0.00  0.00    +0.000 A 
ATOM     19  C   UNL     1      -0.419  10.578  22.454  0.00  0.00    +0.000 A 
ATOM     20  C   UNL     1      -0.570  10.773  21.078  0.00  0.00    +0.000 A 
ATOM     21  C   UNL     1       0.133   9.971  20.166  0.00  0.00    +0.000 A 
ATOM     22  O   UNL     1      -1.408  11.731  20.558  0.00  0.00    +0.000 OA
ATOM     23  C   UNL     1      -1.803  12.684  21.558  0.00  0.00    +0.000 C 
ATOM     24  C   UNL     1      -2.203  11.993  22.851  0.00  0.00    +0.000 C 
ATOM     25  O   UNL     1      -1.090  11.292  23.409  0.00  0.00    +0.000 OA
ENDBRANCH   3  16
TORSDOF 2
ENDMDL
MODEL 7
REMARK VINA RESULT:      -7.9      1.132      2.780
REMARK  Name = 
REMARK  3 active torsions:
REMARK  status: ('A' for Active; 'I' for Inactive)
REMARK    1  A    between atoms: C_1  and  C_2
REMARK    2  A    between atoms: C_4  and  C_5
REMARK    3  A    between atoms: N_7  and  C_8
REMARK                            x       y       z     vdW  Elec       q    Type
REMARK                         _______ _______ _______ _____ _____    ______ ____
ROOT
ATOM      1  C   UNL     1       2.262   7.247  18.956  0.00  0.00    +0.000 C 
ATOM      2  O   UNL     1       2.317   7.467  20.163  0.00  0.00    +0.000 OA
ATOM      3  N   UNL     1       1.879   8.166  17.982  0.00  0.00    +0.000 N 
ATOM      4  H   UNL     1       1.773   7.841  17.030  0.00  0.00    +0.000 HD
ENDROOT
BRANCH   1   8
ATOM      5  C   UNL     1       1.268   2.356  18.619  0.00  0.00    +0.000 C 
ATOM      6  C   UNL     1       2.105   3.560  18.313  0.00  0.00    +0.000 A 
ATOM      7  C   UNL     1       1.832   4.799  18.866  0.00  0.00    +0.000 A 
ATOM      8  C   UNL     1       2.646   5.877  18.504  0.00  0.00    +0.000 A 
ATOM      9  C   UNL     1       3.722   5.695  17.589  0.00  0.00    +0.000 A 
ATOM     10  C   UNL     1       4.622   6.704  17.147  0.00  0.00    +0.000 A 
ATOM     11  C   UNL     1       5.622   6.442  16.209  0.00  0.00    +0.000 A 
ATOM     12  C   UNL     1       5.754   5.161  15.699  0.00  0.00    +0.000 A 
ATOM     13  C   UNL     1       4.894   4.155  16.143  0.00  0.00    +0.000 A 
ATOM     14  C   UNL     1       3.892   4.395  17.077  0.00  0.00    +0.000 A 
ATOM     15  N   UNL     1       3.116   3.364  17.439  0.00  0.00    +0.000 NA
ENDBRANCH   1   8
BRANCH   3  16
ATOM     16  C   UNL     1       1.500   9.514  18.237  0.00  0.00    +0.000 A 
ATOM     17  C   UNL     1       2.361  10.598  18.012  0.00  0.00    +0.000 A 
ATOM     18  C   UNL     1       1.983  11.906  18.313  0.00  0.00    +0.000 A 
ATOM     19  C   UNL     1       0.726  12.157  18.838  0.00  0.00    +0.000 A 
ATOM     20  C   UNL     1      -0.170  11.101  19.028  0.00  0.00    +0.000 A 
ATOM     21  C   UNL     1       0.214   9.783  18.736  0.00  0.00    +0.000 A 
ATOM     22  O   UNL     1      -1.441  11.293  19.513  0.00  0.00    +0.000 OA
ATOM     23  C   UNL     1      -1.823  12.678  19.457  0.00  0.00    +0.000 C 
ATOM     24  C   UNL     1      -0.708  13.578  19.964  0.00  0.00    +0.000 C 
ATOM     25  O   UNL     1       0.445  13.465  19.128  0.00  0.00    +0.000 OA
ENDBRANCH   3  16
TORSDOF 2
ENDMDL
MODEL 8
REMARK VINA RESULT:      -7.8      2.287      2.415
REMARK  Name = 
REMARK  3 active torsions:
REMARK  status: ('A' for Active; 'I' for Inactive)
REMARK    1  A    between atoms: C_1  and  C_2
REMARK    2  A    between atoms: C_4  and  C_5
REMARK    3  A    between atoms: N_7  and  C_8
REMARK                            x       y       z     vdW  Elec       q    Type
REMARK                         _______ _______ _______ _____ _____    ______ ____
ROOT
ATOM      1  C   UNL     1       2.453   7.083  19.134  0.00  0.00    +0.000 C 
ATOM      2  O   UNL     1       2.195   7.608  18.055  0.00  0.00    +0.000 OA
ATOM      3  N   UNL     1       2.030   7.541  20.379  0.00  0.00    +0.000 N 
ATOM      4  H   UNL     1       2.390   7.084  21.207  0.00  0.00    +0.000 HD
ENDROOT
BRANCH   1   8
ATOM      5  C   UNL     1       6.748   4.782  18.004  0.00  0.00    +0.000 C 
ATOM      6  C   UNL     1       5.373   4.799  18.598  0.00  0.00    +0.000 A 
ATOM      7  C   UNL     1       4.544   5.902  18.488  0.00  0.00    +0.000 A 
ATOM      8  C   UNL     1       3.286   5.845  19.097  0.00  0.00    +0.000 A 
ATOM      9  C   UNL     1       2.880   4.680  19.810  0.00  0.00    +0.000 A 
ATOM     10  C   UNL     1       1.631   4.496  20.465  0.00  0.00    +0.000 A 
ATOM     11  C   UNL     1       1.338   3.334  21.181  0.00  0.00    +0.000 A 
ATOM     12  C   UNL     1       2.282   2.324  21.249  0.00  0.00    +0.000 A 
ATOM     13  C   UNL     1       3.503   2.481  20.590  0.00  0.00    +0.000 A 
ATOM     14  C   UNL     1       3.815   3.629  19.871  0.00  0.00    +0.000 A 
ATOM     15  N   UNL     1       5.012   3.686  19.273  0.00  0.00    +0.000 NA
ENDBRANCH   1   8
BRANCH   3  16
ATOM     16  C   UNL     1       1.218   8.691  20.593  0.00  0.00    +0.000 A 
ATOM     17  C   UNL     1       0.675   9.012  21.845  0.00  0.00    +0.000 A 
ATOM     18  C   UNL     1      -0.155  10.118  22.019  0.00  0.00    +0.000 A 
ATOM     19  C   UNL     1      -0.451  10.935  20.940  0.00  0.00    +0.000 A 
ATOM     20  C   UNL     1       0.115  10.666  19.691  0.00  0.00    +0.000 A 
ATOM     21  C   UNL     1       0.942   9.546  19.513  0.00  0.00    +0.000 A 
ATOM     22  O   UNL     1      -0.114  11.460  18.592  0.00  0.00    +0.000 OA
ATOM     23  C   UNL     1      -0.683  12.726  18.967  0.00  0.00    +0.000 C 
ATOM     24  C   UNL     1      -1.800  12.549  19.982  0.00  0.00    +0.000 C 
ATOM     25  O   UNL     1      -1.292  11.985  21.192  0.00  0.00    +0.000 OA
ENDBRANCH   3  16
TORSDOF 2
ENDMDL
MODEL 9
REMARK VINA RESULT:      -7.8      2.678      8.280
REMARK  Name = 
REMARK  3 active torsions:
REMARK  status: ('A' for Active; 'I' for Inactive)
REMARK    1  A    between atoms: C_1  and  C_2
REMARK    2  A    between atoms: C_4  and  C_5
REMARK    3  A    between atoms: N_7  and  C_8
REMARK                            x       y       z     vdW  Elec       q    Type
REMARK                         _______ _______ _______ _____ _____    ______ ____
ROOT
ATOM      1  C   UNL     1       1.470   8.932  18.755  0.00  0.00    +0.000 C 
ATOM      2  O   UNL     1       1.136   9.043  17.578  0.00  0.00    +0.000 OA
ATOM      3  N   UNL     1       2.280   7.927  19.275  0.00  0.00    +0.000 N 
ATOM      4  H   UNL     1       2.403   7.880  20.279  0.00  0.00    +0.000 HD
ENDROOT
BRANCH   1   8
ATOM      5  C   UNL     1      -0.767  10.164  23.056  0.00  0.00    +0.000 C 
ATOM      6  C   UNL     1      -0.054  10.518  21.787  0.00  0.00    +0.000 A 
ATOM      7  C   UNL     1       0.272   9.561  20.841  0.00  0.00    +0.000 A 
ATOM      8  C   UNL     1       0.964   9.973  19.698  0.00  0.00    +0.000 A 
ATOM      9  C   UNL     1       1.321  11.341  19.522  0.00  0.00    +0.000 A 
ATOM     10  C   UNL     1       2.016  11.885  18.407  0.00  0.00    +0.000 A 
ATOM     11  C   UNL     1       2.365  13.235  18.342  0.00  0.00    +0.000 A 
ATOM     12  C   UNL     1       2.016  14.076  19.386  0.00  0.00    +0.000 A 
ATOM     13  C   UNL     1       1.311  13.560  20.475  0.00  0.00    +0.000 A 
ATOM     14  C   UNL     1       0.954  12.219  20.559  0.00  0.00    +0.000 A 
ATOM     15  N   UNL     1       0.278  11.820  21.645  0.00  0.00    +0.000 NA
ENDBRANCH   1   8
BRANCH   3  16
ATOM     16  C   UNL     1       2.860   6.871  18.516  0.00  0.00    +0.000 A 
ATOM     17  C   UNL     1       2.443   5.537  18.634  0.00  0.00    +0.000 A 
ATOM     18  C   UNL     1       3.058   4.514  17.913  0.00  0.00    +0.000 A 
ATOM     19  C   UNL     1       4.099   4.808  17.049  0.00  0.00    +0.000 A 
ATOM     20  C   UNL     1       4.503   6.135  16.876  0.00  0.00    +0.000 A 
ATOM     21  C   UNL     1       3.893   7.164  17.610  0.00  0.00    +0.000 A 
ATOM     22  O   UNL     1       5.507   6.492  16.007  0.00  0.00    +0.000 OA
ATOM     23  C   UNL     1       5.815   5.427  15.092  0.00  0.00    +0.000 C 
ATOM     24  C   UNL     1       5.917   4.093  15.813  0.00  0.00    +0.000 C 
ATOM     25  O   UNL     1       4.662   3.743  16.399  0.00  0.00    +0.000 OA
ENDBRANCH   3  16
TORSDOF 2
ENDMDL
