MODEL 1
REMARK VINA RESULT:      -8.4      0.000      0.000
REMARK  Name = 
REMARK  7 active torsions:
REMARK  status: ('A' for Active; 'I' for Inactive)
REMARK    1  A    between atoms: C_1  and  C_2
REMARK    2  A    between atoms: C_2  and  C_3
REMARK    3  A    between atoms: C_10  and  C_11
REMARK    4  A    between atoms: N_13  and  C_14
REMARK    5  A    between atoms: C_16  and  C_17
REMARK    6  A    between atoms: C_22  and  C_23
REMARK    7  A    between atoms: N_25  and  C_26
REMARK                            x       y       z     vdW  Elec       q    Type
REMARK                         _______ _______ _______ _____ _____    ______ ____
ROOT
ATOM      1  C   UNL     1       1.160   9.065  20.224  0.00  0.00    +0.000 C 
ATOM      2  O   UNL     1       0.673   8.622  21.251  0.00  0.00    +0.000 OA
ATOM      3  N   UNL     1       0.841  10.393  19.758  0.00  0.00    +0.000 N 
ATOM      4  H   UNL     1       1.114  10.672  18.828  0.00  0.00    +0.000 HD
ENDROOT
BRANCH   1  12
ATOM      5  C   UNL     1       5.113   5.479  16.147  0.00  0.00    +0.000 C 
ATOM      6  O   UNL     1       5.165   6.454  15.400  0.00  0.00    +0.000 OA
ATOM      7  N   UNL     1       4.406   5.451  17.342  0.00  0.00    +0.000 N 
ATOM      8  C   UNL     1       4.445   4.347  18.319  0.00  0.00    +0.000 C 
ATOM      9  C   UNL     1       3.449   4.675  19.429  0.00  0.00    +0.000 C 
ATOM     10  C   UNL     1       3.096   6.089  19.108  0.00  0.00    +0.000 A 
ATOM     11  C   UNL     1       2.294   6.926  19.864  0.00  0.00    +0.000 A 
ATOM     12  C   UNL     1       1.999   8.205  19.367  0.00  0.00    +0.000 A 
ATOM     13  C   UNL     1       2.525   8.622  18.129  0.00  0.00    +0.000 A 
ATOM     14  C   UNL     1       3.351   7.758  17.384  0.00  0.00    +0.000 A 
ATOM     15  C   UNL     1       3.629   6.494  17.885  0.00  0.00    +0.000 A 
BRANCH   5  17
ATOM     16  C   UNL     1       6.197   4.077  14.311  0.00  0.00    +0.000 C 
ATOM     17  C   UNL     1       5.770   4.152  15.765  0.00  0.00    +0.000 C 
ENDBRANCH   5  17
ENDBRANCH   1  12
BRANCH   3  18
ATOM     18  C   UNL     1       0.053  11.257  20.520  0.00  0.00    +0.000 A 
ATOM     19  C   UNL     1      -1.228  11.040  20.967  0.00  0.00    +0.000 A 
ATOM     20  C   UNL     1      -1.612  12.196  21.693  0.00  0.00    +0.000 A 
ATOM     21  N   UNL     1      -0.608  13.085  21.699  0.00  0.00    +0.000 NA
ATOM     22  N   UNL     1       0.380  12.501  21.002  0.00  0.00    +0.000 N 
ATOM     23  C   UNL     1       1.588  13.254  20.775  0.00  0.00    +0.000 C 
BRANCH  20  24
ATOM     24  C   UNL     1      -2.904  12.419  22.358  0.00  0.00    +0.000 A 
ATOM     25  C   UNL     1      -2.974  12.240  23.756  0.00  0.00    +0.000 A 
ATOM     26  C   UNL     1      -4.147  12.504  24.462  0.00  0.00    +0.000 A 
ATOM     27  C   UNL     1      -5.274  12.950  23.785  0.00  0.00    +0.000 A 
ATOM     28  C   UNL     1      -5.233  13.113  22.401  0.00  0.00    +0.000 A 
ATOM     29  C   UNL     1      -4.060  12.847  21.669  0.00  0.00    +0.000 A 
ATOM     30  C   UNL     1      -4.098  13.034  20.176  0.00  0.00    +0.000 C 
ENDBRANCH  20  24
ENDBRANCH   3  18
TORSDOF 4
ENDMDL
MODEL 2
REMARK VINA RESULT:      -8.4      1.972     10.577
REMARK  Name = 
REMARK  7 active torsions:
REMARK  status: ('A' for Active; 'I' for Inactive)
REMARK    1  A    between atoms: C_1  and  C_2
REMARK    2  A    between atoms: C_2  and  C_3
REMARK    3  A    between atoms: C_10  and  C_11
REMARK    4  A    between atoms: N_13  and  C_14
REMARK    5  A    between atoms: C_16  and  C_17
REMARK    6  A    between atoms: C_22  and  C_23
REMARK    7  A    between atoms: N_25  and  C_26
REMARK                            x       y       z     vdW  Elec       q    Type
REMARK                         _______ _______ _______ _____ _____    ______ ____
ROOT
ATOM      1  C   UNL     1       1.832   8.598  18.718  0.00  0.00    +0.000 C 
ATOM      2  O   UNL     1       2.174   8.804  17.566  0.00  0.00    +0.000 OA
ATOM      3  N   UNL     1       2.191   7.375  19.396  0.00  0.00    +0.000 N 
ATOM      4  H   UNL     1       1.757   7.150  20.278  0.00  0.00    +0.000 HD
ENDROOT
BRANCH   1  12
ATOM      5  C   UNL     1      -2.401  12.995  21.519  0.00  0.00    +0.000 C 
ATOM      6  O   UNL     1      -2.560  13.495  20.407  0.00  0.00    +0.000 OA
ATOM      7  N   UNL     1      -1.576  11.907  21.773  0.00  0.00    +0.000 N 
ATOM      8  C   UNL     1      -1.481  11.204  23.065  0.00  0.00    +0.000 C 
ATOM      9  C   UNL     1      -0.388  10.146  22.939  0.00  0.00    +0.000 C 
ATOM     10  C   UNL     1      -0.114  10.172  21.472  0.00  0.00    +0.000 A 
ATOM     11  C   UNL     1       0.734   9.324  20.781  0.00  0.00    +0.000 A 
ATOM     12  C   UNL     1       0.938   9.545  19.411  0.00  0.00    +0.000 A 
ATOM     13  C   UNL     1       0.276  10.604  18.759  0.00  0.00    +0.000 A 
ATOM     14  C   UNL     1      -0.595  11.445  19.479  0.00  0.00    +0.000 A 
ATOM     15  C   UNL     1      -0.781  11.217  20.836  0.00  0.00    +0.000 A 
BRANCH   5  17
ATOM     16  C   UNL     1      -4.547  13.357  22.852  0.00  0.00    +0.000 C 
ATOM     17  C   UNL     1      -3.053  13.603  22.762  0.00  0.00    +0.000 C 
ENDBRANCH   5  17
ENDBRANCH   1  12
BRANCH   3  18
ATOM     18  C   UNL     1       3.034   6.437  18.798  0.00  0.00    +0.000 A 
ATOM     19  C   UNL     1       3.788   6.602  17.660  0.00  0.00    +0.000 A 
ATOM     20  C   UNL     1       4.473   5.379  17.441  0.00  0.00    +0.000 A 
ATOM     21  N   UNL     1       4.161   4.502  18.406  0.00  0.00    +0.000 NA
ATOM     22  N   UNL     1       3.308   5.157  19.211  0.00  0.00    +0.000 N 
ATOM     23  C   UNL     1       2.735   4.437  20.321  0.00  0.00    +0.000 C 
BRANCH  20  24
ATOM     24  C   UNL     1       5.400   5.085  16.339  0.00  0.00    +0.000 A 
ATOM     25  C   UNL     1       4.907   4.373  15.225  0.00  0.00    +0.000 A 
ATOM     26  C   UNL     1       5.710   4.121  14.112  0.00  0.00    +0.000 A 
ATOM     27  C   UNL     1       7.022   4.574  14.093  0.00  0.00    +0.000 A 
ATOM     28  C   UNL     1       7.536   5.260  15.193  0.00  0.00    +0.000 A 
ATOM     29  C   UNL     1       6.744   5.519  16.326  0.00  0.00    +0.000 A 
ATOM     30  C   UNL     1       7.374   6.255  17.479  0.00  0.00    +0.000 C 
ENDBRANCH  20  24
ENDBRANCH   3  18
TORSDOF 4
ENDMDL
MODEL 3
REMARK VINA RESULT:      -8.4      1.942     11.120
REMARK  Name = 
REMARK  7 active torsions:
REMARK  status: ('A' for Active; 'I' for Inactive)
REMARK    1  A    between atoms: C_1  and  C_2
REMARK    2  A    between atoms: C_2  and  C_3
REMARK    3  A    between atoms: C_10  and  C_11
REMARK    4  A    between atoms: N_13  and  C_14
REMARK    5  A    between atoms: C_16  and  C_17
REMARK    6  A    between atoms: C_22  and  C_23
REMARK    7  A    between atoms: N_25  and  C_26
REMARK                            x       y       z     vdW  Elec       q    Type
REMARK                         _______ _______ _______ _____ _____    ______ ____
ROOT
ATOM      1  C   UNL     1       3.042   6.658  18.418  0.00  0.00    +0.000 C 
ATOM      2  O   UNL     1       2.742   5.476  18.435  0.00  0.00    +0.000 OA
ATOM      3  N   UNL     1       4.232   7.117  17.740  0.00  0.00    +0.000 N 
ATOM      4  H   UNL     1       4.551   8.063  17.884  0.00  0.00    +0.000 HD
ENDROOT
BRANCH   1  12
ATOM      5  C   UNL     1      -0.361  10.969  22.283  0.00  0.00    +0.000 C 
ATOM      6  O   UNL     1      -0.139  10.229  23.240  0.00  0.00    +0.000 OA
ATOM      7  N   UNL     1       0.081  10.722  20.990  0.00  0.00    +0.000 N 
ATOM      8  C   UNL     1      -0.050  11.661  19.861  0.00  0.00    +0.000 C 
ATOM      9  C   UNL     1       0.467  10.956  18.609  0.00  0.00    +0.000 C 
ATOM     10  C   UNL     1       1.091   9.731  19.190  0.00  0.00    +0.000 A 
ATOM     11  C   UNL     1       1.812   8.772  18.501  0.00  0.00    +0.000 A 
ATOM     12  C   UNL     1       2.258   7.637  19.195  0.00  0.00    +0.000 A 
ATOM     13  C   UNL     1       1.983   7.495  20.569  0.00  0.00    +0.000 A 
ATOM     14  C   UNL     1       1.260   8.491  21.253  0.00  0.00    +0.000 A 
ATOM     15  C   UNL     1       0.820   9.605  20.552  0.00  0.00    +0.000 A 
BRANCH   5  17
ATOM     16  C   UNL     1      -2.507  11.974  23.229  0.00  0.00    +0.000 C 
ATOM     17  C   UNL     1      -1.240  12.212  22.429  0.00  0.00    +0.000 C 
ENDBRANCH   5  17
ENDBRANCH   1  12
BRANCH   3  18
ATOM     18  C   UNL     1       5.018   6.243  16.988  0.00  0.00    +0.000 A 
ATOM     19  C   UNL     1       4.944   6.014  15.635  0.00  0.00    +0.000 A 
ATOM     20  C   UNL     1       5.935   5.047  15.328  0.00  0.00    +0.000 A 
ATOM     21  N   UNL     1       6.595   4.701  16.443  0.00  0.00    +0.000 NA
ATOM     22  N   UNL     1       6.039   5.434  17.420  0.00  0.00    +0.000 N 
ATOM     23  C   UNL     1       6.501   5.228  18.770  0.00  0.00    +0.000 C 
BRANCH  20  24
ATOM     24  C   UNL     1       6.229   4.490  14.000  0.00  0.00    +0.000 A 
ATOM     25  C   UNL     1       5.323   3.558  13.452  0.00  0.00    +0.000 A 
ATOM     26  C   UNL     1       5.500   3.043  12.167  0.00  0.00    +0.000 A 
ATOM     27  C   UNL     1       6.588   3.449  11.407  0.00  0.00    +0.000 A 
ATOM     28  C   UNL     1       7.508   4.352  11.937  0.00  0.00    +0.000 A 
ATOM     29  C   UNL     1       7.350   4.878  13.233  0.00  0.00    +0.000 A 
ATOM     30  C   UNL     1       8.392   5.839  13.740  0.00  0.00    +0.000 C 
ENDBRANCH  20  24
ENDBRANCH   3  18
TORSDOF 4
ENDMDL
MODEL 4
REMARK VINA RESULT:      -8.2      2.157     10.529
REMARK  Name = 
REMARK  7 active torsions:
REMARK  status: ('A' for Active; 'I' for Inactive)
REMARK    1  A    between atoms: C_1  and  C_2
REMARK    2  A    between atoms: C_2  and  C_3
REMARK    3  A    between atoms: C_10  and  C_11
REMARK    4  A    between atoms: N_13  and  C_14
REMARK    5  A    between atoms: C_16  and  C_17
REMARK    6  A    between atoms: C_22  and  C_23
REMARK    7  A    between atoms: N_25  and  C_26
REMARK                            x       y       z     vdW  Elec       q    Type
REMARK                         _______ _______ _______ _____ _____    ______ ____
ROOT
ATOM      1  C   UNL     1       1.355   8.848  19.070  0.00  0.00    +0.000 C 
ATOM      2  O   UNL     1       1.465   8.801  17.856  0.00  0.00    +0.000 OA
ATOM      3  N   UNL     1       1.850   7.780  19.907  0.00  0.00    +0.000 N 
ATOM      4  H   UNL     1       1.597   7.756  20.882  0.00  0.00    +0.000 HD
ENDROOT
BRANCH   1  12
ATOM      5  C   UNL     1      -2.151  13.980  21.612  0.00  0.00    +0.000 C 
ATOM      6  O   UNL     1      -2.034  14.550  20.528  0.00  0.00    +0.000 OA
ATOM      7  N   UNL     1      -1.634  12.722  21.890  0.00  0.00    +0.000 N 
ATOM      8  C   UNL     1      -1.884  11.962  23.129  0.00  0.00    +0.000 C 
ATOM      9  C   UNL     1      -1.047  10.687  23.068  0.00  0.00    +0.000 C 
ATOM     10  C   UNL     1      -0.566  10.711  21.656  0.00  0.00    +0.000 A 
ATOM     11  C   UNL     1       0.162   9.720  21.020  0.00  0.00    +0.000 A 
ATOM     12  C   UNL     1       0.604   9.946  19.708  0.00  0.00    +0.000 A 
ATOM     13  C   UNL     1       0.294  11.154  19.055  0.00  0.00    +0.000 A 
ATOM     14  C   UNL     1      -0.462  12.142  19.716  0.00  0.00    +0.000 A 
ATOM     15  C   UNL     1      -0.886  11.908  21.016  0.00  0.00    +0.000 A 
BRANCH   5  17
ATOM     16  C   UNL     1      -4.316  14.870  22.628  0.00  0.00    +0.000 C 
ATOM     17  C   UNL     1      -2.823  14.670  22.801  0.00  0.00    +0.000 C 
ENDBRANCH   5  17
ENDBRANCH   1  12
BRANCH   3  18
ATOM     18  C   UNL     1       2.569   6.712  19.367  0.00  0.00    +0.000 A 
ATOM     19  C   UNL     1       3.594   6.776  18.454  0.00  0.00    +0.000 A 
ATOM     20  C   UNL     1       4.006   5.442  18.204  0.00  0.00    +0.000 A 
ATOM     21  N   UNL     1       3.270   4.593  18.936  0.00  0.00    +0.000 NA
ATOM     22  N   UNL     1       2.425   5.373  19.630  0.00  0.00    +0.000 N 
ATOM     23  C   UNL     1       1.445   4.731  20.471  0.00  0.00    +0.000 C 
BRANCH  20  24
ATOM     24  C   UNL     1       5.078   5.016  17.293  0.00  0.00    +0.000 A 
ATOM     25  C   UNL     1       4.721   4.585  15.998  0.00  0.00    +0.000 A 
ATOM     26  C   UNL     1       5.690   4.236  15.057  0.00  0.00    +0.000 A 
ATOM     27  C   UNL     1       7.035   4.307  15.394  0.00  0.00    +0.000 A 
ATOM     28  C   UNL     1       7.408   4.710  16.675  0.00  0.00    +0.000 A 
ATOM     29  C   UNL     1       6.446   5.061  17.640  0.00  0.00    +0.000 A 
ATOM     30  C   UNL     1       6.928   5.473  19.006  0.00  0.00    +0.000 C 
ENDBRANCH  20  24
ENDBRANCH   3  18
TORSDOF 4
ENDMDL
MODEL 5
REMARK VINA RESULT:      -8.2      1.903     10.656
REMARK  Name = 
REMARK  7 active torsions:
REMARK  status: ('A' for Active; 'I' for Inactive)
REMARK    1  A    between atoms: C_1  and  C_2
REMARK    2  A    between atoms: C_2  and  C_3
REMARK    3  A    between atoms: C_10  and  C_11
REMARK    4  A    between atoms: N_13  and  C_14
REMARK    5  A    between atoms: C_16  and  C_17
REMARK    6  A    between atoms: C_22  and  C_23
REMARK    7  A    between atoms: N_25  and  C_26
REMARK                            x       y       z     vdW  Elec       q    Type
REMARK                         _______ _______ _______ _____ _____    ______ ____
ROOT
ATOM      1  C   UNL     1       1.615   8.518  18.995  0.00  0.00    +0.000 C 
ATOM      2  O   UNL     1       1.764   8.605  17.788  0.00  0.00    +0.000 OA
ATOM      3  N   UNL     1       2.157   7.405  19.738  0.00  0.00    +0.000 N 
ATOM      4  H   UNL     1       1.877   7.264  20.696  0.00  0.00    +0.000 HD
ENDROOT
BRANCH   1  12
ATOM      5  C   UNL     1      -1.942  12.986  22.530  0.00  0.00    +0.000 C 
ATOM      6  O   UNL     1      -1.229  12.732  23.499  0.00  0.00    +0.000 OA
ATOM      7  N   UNL     1      -1.800  12.392  21.283  0.00  0.00    +0.000 N 
ATOM      8  C   UNL     1      -2.547  12.784  20.073  0.00  0.00    +0.000 C 
ATOM      9  C   UNL     1      -2.165  11.813  18.958  0.00  0.00    +0.000 C 
ATOM     10  C   UNL     1      -1.019  11.083  19.575  0.00  0.00    +0.000 A 
ATOM     11  C   UNL     1      -0.214  10.144  18.954  0.00  0.00    +0.000 A 
ATOM     12  C   UNL     1       0.770   9.492  19.713  0.00  0.00    +0.000 A 
ATOM     13  C   UNL     1       0.936   9.808  21.075  0.00  0.00    +0.000 A 
ATOM     14  C   UNL     1       0.117  10.778  21.683  0.00  0.00    +0.000 A 
ATOM     15  C   UNL     1      -0.857  11.409  20.921  0.00  0.00    +0.000 A 
BRANCH   5  17
ATOM     16  C   UNL     1      -4.361  13.308  23.275  0.00  0.00    +0.000 C 
ATOM     17  C   UNL     1      -3.132  13.939  22.650  0.00  0.00    +0.000 C 
ENDBRANCH   5  17
ENDBRANCH   1  12
BRANCH   3  18
ATOM     18  C   UNL     1       2.964   6.449  19.120  0.00  0.00    +0.000 A 
ATOM     19  C   UNL     1       3.752   6.619  18.006  0.00  0.00    +0.000 A 
ATOM     20  C   UNL     1       4.379   5.372  17.752  0.00  0.00    +0.000 A 
ATOM     21  N   UNL     1       3.999   4.475  18.673  0.00  0.00    +0.000 NA
ATOM     22  N   UNL     1       3.163   5.141  19.486  0.00  0.00    +0.000 N 
ATOM     23  C   UNL     1       2.528   4.409  20.554  0.00  0.00    +0.000 C 
BRANCH  20  24
ATOM     24  C   UNL     1       5.315   5.073  16.659  0.00  0.00    +0.000 A 
ATOM     25  C   UNL     1       4.811   4.436  15.505  0.00  0.00    +0.000 A 
ATOM     26  C   UNL     1       5.626   4.187  14.400  0.00  0.00    +0.000 A 
ATOM     27  C   UNL     1       6.961   4.568  14.429  0.00  0.00    +0.000 A 
ATOM     28  C   UNL     1       7.484   5.179  15.568  0.00  0.00    +0.000 A 
ATOM     29  C   UNL     1       6.680   5.434  16.694  0.00  0.00    +0.000 A 
ATOM     30  C   UNL     1       7.321   6.086  17.890  0.00  0.00    +0.000 C 
ENDBRANCH  20  24
ENDBRANCH   3  18
TORSDOF 4
ENDMDL
MODEL 6
REMARK VINA RESULT:      -8.1      1.580      2.136
REMARK  Name = 
REMARK  7 active torsions:
REMARK  status: ('A' for Active; 'I' for Inactive)
REMARK    1  A    between atoms: C_1  and  C_2
REMARK    2  A    between atoms: C_2  and  C_3
REMARK    3  A    between atoms: C_10  and  C_11
REMARK    4  A    between atoms: N_13  and  C_14
REMARK    5  A    between atoms: C_16  and  C_17
REMARK    6  A    between atoms: C_22  and  C_23
REMARK    7  A    between atoms: N_25  and  C_26
REMARK                            x       y       z     vdW  Elec       q    Type
REMARK                         _______ _______ _______ _____ _____    ______ ____
ROOT
ATOM      1  C   UNL     1       0.886   9.240  19.977  0.00  0.00    +0.000 C 
ATOM      2  O   UNL     1       0.313   8.823  20.969  0.00  0.00    +0.000 OA
ATOM      3  N   UNL     1       0.598  10.550  19.442  0.00  0.00    +0.000 N 
ATOM      4  H   UNL     1       0.950  10.804  18.532  0.00  0.00    +0.000 HD
ENDROOT
BRANCH   1  12
ATOM      5  C   UNL     1       5.191   5.574  16.352  0.00  0.00    +0.000 C 
ATOM      6  O   UNL     1       5.202   6.478  15.519  0.00  0.00    +0.000 OA
ATOM      7  N   UNL     1       4.451   5.608  17.527  0.00  0.00    +0.000 N 
ATOM      8  C   UNL     1       4.533   4.605  18.604  0.00  0.00    +0.000 C 
ATOM      9  C   UNL     1       3.484   4.964  19.654  0.00  0.00    +0.000 C 
ATOM     10  C   UNL     1       3.048   6.314  19.193  0.00  0.00    +0.000 A 
ATOM     11  C   UNL     1       2.170   7.161  19.847  0.00  0.00    +0.000 A 
ATOM     12  C   UNL     1       1.806   8.365  19.225  0.00  0.00    +0.000 A 
ATOM     13  C   UNL     1       2.341   8.701  17.967  0.00  0.00    +0.000 A 
ATOM     14  C   UNL     1       3.245   7.832  17.326  0.00  0.00    +0.000 A 
ATOM     15  C   UNL     1       3.591   6.641  17.951  0.00  0.00    +0.000 A 
BRANCH   5  17
ATOM     16  C   UNL     1       6.258   3.998  14.653  0.00  0.00    +0.000 C 
ATOM     17  C   UNL     1       5.946   4.266  16.113  0.00  0.00    +0.000 C 
ENDBRANCH   5  17
ENDBRANCH   1  12
BRANCH   3  18
ATOM     18  C   UNL     1      -0.262  11.428  20.104  0.00  0.00    +0.000 A 
ATOM     19  C   UNL     1      -0.028  12.090  21.286  0.00  0.00    +0.000 A 
ATOM     20  C   UNL     1      -1.187  12.859  21.562  0.00  0.00    +0.000 A 
ATOM     21  N   UNL     1      -2.093  12.684  20.590  0.00  0.00    +0.000 NA
ATOM     22  N   UNL     1      -1.517  11.834  19.725  0.00  0.00    +0.000 N 
ATOM     23  C   UNL     1      -2.289  11.396  18.588  0.00  0.00    +0.000 C 
BRANCH  20  24
ATOM     24  C   UNL     1      -1.396  13.734  22.725  0.00  0.00    +0.000 A 
ATOM     25  C   UNL     1      -0.556  14.858  22.874  0.00  0.00    +0.000 A 
ATOM     26  C   UNL     1      -0.743  15.770  23.913  0.00  0.00    +0.000 A 
ATOM     27  C   UNL     1      -1.772  15.575  24.824  0.00  0.00    +0.000 A 
ATOM     28  C   UNL     1      -2.600  14.460  24.707  0.00  0.00    +0.000 A 
ATOM     29  C   UNL     1      -2.424  13.525  23.670  0.00  0.00    +0.000 A 
ATOM     30  C   UNL     1      -3.351  12.340  23.619  0.00  0.00    +0.000 C 
ENDBRANCH  20  24
ENDBRANCH   3  18
TORSDOF 4
ENDMDL
MODEL 7
REMARK VINA RESULT:      -8.0      1.412      1.926
REMARK  Name = 
REMARK  7 active torsions:
REMARK  status: ('A' for Active; 'I' for Inactive)
REMARK    1  A    between atoms: C_1  and  C_2
REMARK    2  A    between atoms: C_2  and  C_3
REMARK    3  A    between atoms: C_10  and  C_11
REMARK    4  A    between atoms: N_13  and  C_14
REMARK    5  A    between atoms: C_16  and  C_17
REMARK    6  A    between atoms: C_22  and  C_23
REMARK    7  A    between atoms: N_25  and  C_26
REMARK                            x       y       z     vdW  Elec       q    Type
REMARK                         _______ _______ _______ _____ _____    ______ ____
ROOT
ATOM      1  C   UNL     1       0.834   9.129  19.798  0.00  0.00    +0.000 C 
ATOM      2  O   UNL     1       0.502   8.835  20.934  0.00  0.00    +0.000 OA
ATOM      3  N   UNL     1       0.200  10.219  19.093  0.00  0.00    +0.000 N 
ATOM      4  H   UNL     1       0.365  10.333  18.105  0.00  0.00    +0.000 HD
ENDROOT
BRANCH   1  12
ATOM      5  C   UNL     1       5.400   5.677  16.286  0.00  0.00    +0.000 C 
ATOM      6  O   UNL     1       5.399   6.587  15.459  0.00  0.00    +0.000 OA
ATOM      7  N   UNL     1       4.623   5.671  17.436  0.00  0.00    +0.000 N 
ATOM      8  C   UNL     1       4.715   4.663  18.509  0.00  0.00    +0.000 C 
ATOM      9  C   UNL     1       3.619   4.969  19.528  0.00  0.00    +0.000 C 
ATOM     10  C   UNL     1       3.141   6.303  19.062  0.00  0.00    +0.000 A 
ATOM     11  C   UNL     1       2.208   7.107  19.694  0.00  0.00    +0.000 A 
ATOM     12  C   UNL     1       1.813   8.300  19.070  0.00  0.00    +0.000 A 
ATOM     13  C   UNL     1       2.372   8.668  17.831  0.00  0.00    +0.000 A 
ATOM     14  C   UNL     1       3.332   7.843  17.213  0.00  0.00    +0.000 A 
ATOM     15  C   UNL     1       3.707   6.663  17.840  0.00  0.00    +0.000 A 
BRANCH   5  17
ATOM     16  C   UNL     1       6.341   4.005  14.603  0.00  0.00    +0.000 C 
ATOM     17  C   UNL     1       6.217   4.404  16.061  0.00  0.00    +0.000 C 
ENDBRANCH   5  17
ENDBRANCH   1  12
BRANCH   3  18
ATOM     18  C   UNL     1      -0.733  11.042  19.724  0.00  0.00    +0.000 A 
ATOM     19  C   UNL     1      -0.697  11.501  21.019  0.00  0.00    +0.000 A 
ATOM     20  C   UNL     1      -1.857  12.296  21.205  0.00  0.00    +0.000 A 
ATOM     21  N   UNL     1      -2.572  12.332  20.072  0.00  0.00    +0.000 NA
ATOM     22  N   UNL     1      -1.879  11.585  19.197  0.00  0.00    +0.000 N 
ATOM     23  C   UNL     1      -2.442  11.377  17.886  0.00  0.00    +0.000 C 
BRANCH  20  24
ATOM     24  C   UNL     1      -2.245  12.998  22.437  0.00  0.00    +0.000 A 
ATOM     25  C   UNL     1      -3.406  12.567  23.113  0.00  0.00    +0.000 A 
ATOM     26  C   UNL     1      -3.793  13.138  24.325  0.00  0.00    +0.000 A 
ATOM     27  C   UNL     1      -3.029  14.153  24.884  0.00  0.00    +0.000 A 
ATOM     28  C   UNL     1      -1.890  14.609  24.222  0.00  0.00    +0.000 A 
ATOM     29  C   UNL     1      -1.485  14.050  22.996  0.00  0.00    +0.000 A 
ATOM     30  C   UNL     1      -0.251  14.605  22.336  0.00  0.00    +0.000 C 
ENDBRANCH  20  24
ENDBRANCH   3  18
TORSDOF 4
ENDMDL
MODEL 8
REMARK VINA RESULT:      -8.0      2.027      2.744
REMARK  Name = 
REMARK  7 active torsions:
REMARK  status: ('A' for Active; 'I' for Inactive)
REMARK    1  A    between atoms: C_1  and  C_2
REMARK    2  A    between atoms: C_2  and  C_3
REMARK    3  A    between atoms: C_10  and  C_11
REMARK    4  A    between atoms: N_13  and  C_14
REMARK    5  A    between atoms: C_16  and  C_17
REMARK    6  A    between atoms: C_22  and  C_23
REMARK    7  A    between atoms: N_25  and  C_26
REMARK                            x       y       z     vdW  Elec       q    Type
REMARK                         _______ _______ _______ _____ _____    ______ ____
ROOT
ATOM      1  C   UNL     1       0.841  10.138  19.924  0.00  0.00    +0.000 C 
ATOM      2  O   UNL     1       1.354  11.196  19.602  0.00  0.00    +0.000 OA
ATOM      3  N   UNL     1      -0.303  10.099  20.804  0.00  0.00    +0.000 N 
ATOM      4  H   UNL     1      -0.601   9.218  21.192  0.00  0.00    +0.000 HD
ENDROOT
BRANCH   1  12
ATOM      5  C   UNL     1       3.841   4.518  17.798  0.00  0.00    +0.000 C 
ATOM      6  O   UNL     1       4.154   5.117  16.771  0.00  0.00    +0.000 OA
ATOM      7  N   UNL     1       3.126   5.087  18.843  0.00  0.00    +0.000 N 
ATOM      8  C   UNL     1       2.865   4.435  20.140  0.00  0.00    +0.000 C 
ATOM      9  C   UNL     1       1.961   5.360  20.951  0.00  0.00    +0.000 C 
ATOM     10  C   UNL     1       1.984   6.602  20.125  0.00  0.00    +0.000 A 
ATOM     11  C   UNL     1       1.405   7.816  20.451  0.00  0.00    +0.000 A 
ATOM     12  C   UNL     1       1.452   8.859  19.514  0.00  0.00    +0.000 A 
ATOM     13  C   UNL     1       2.092   8.667  18.275  0.00  0.00    +0.000 A 
ATOM     14  C   UNL     1       2.688   7.428  17.969  0.00  0.00    +0.000 A 
ATOM     15  C   UNL     1       2.627   6.404  18.904  0.00  0.00    +0.000 A 
BRANCH   5  17
ATOM     16  C   UNL     1       2.981   2.120  17.644  0.00  0.00    +0.000 C 
ATOM     17  C   UNL     1       4.149   3.030  17.973  0.00  0.00    +0.000 C 
ENDBRANCH   5  17
ENDBRANCH   1  12
BRANCH   3  18
ATOM     18  C   UNL     1      -0.929  11.273  21.228  0.00  0.00    +0.000 A 
ATOM     19  C   UNL     1      -0.826  11.872  22.461  0.00  0.00    +0.000 A 
ATOM     20  C   UNL     1      -1.641  13.032  22.423  0.00  0.00    +0.000 A 
ATOM     21  N   UNL     1      -2.216  13.146  21.217  0.00  0.00    +0.000 NA
ATOM     22  N   UNL     1      -1.770  12.091  20.516  0.00  0.00    +0.000 N 
ATOM     23  C   UNL     1      -2.276  11.901  19.179  0.00  0.00    +0.000 C 
BRANCH  20  24
ATOM     24  C   UNL     1      -1.843  13.993  23.517  0.00  0.00    +0.000 A 
ATOM     25  C   UNL     1      -0.911  15.041  23.665  0.00  0.00    +0.000 A 
ATOM     26  C   UNL     1      -1.079  16.029  24.635  0.00  0.00    +0.000 A 
ATOM     27  C   UNL     1      -2.182  15.986  25.478  0.00  0.00    +0.000 A 
ATOM     28  C   UNL     1      -3.103  14.946  25.363  0.00  0.00    +0.000 A 
ATOM     29  C   UNL     1      -2.948  13.938  24.395  0.00  0.00    +0.000 A 
ATOM     30  C   UNL     1      -3.979  12.841  24.342  0.00  0.00    +0.000 C 
ENDBRANCH  20  24
ENDBRANCH   3  18
TORSDOF 4
ENDMDL
MODEL 9
REMARK VINA RESULT:      -8.0      1.013      1.090
REMARK  Name = 
REMARK  7 active torsions:
REMARK  status: ('A' for Active; 'I' for Inactive)
REMARK    1  A    between atoms: C_1  and  C_2
REMARK    2  A    between atoms: C_2  and  C_3
REMARK    3  A    between atoms: C_10  and  C_11
REMARK    4  A    between atoms: N_13  and  C_14
REMARK    5  A    between atoms: C_16  and  C_17
REMARK    6  A    between atoms: C_22  and  C_23
REMARK    7  A    between atoms: N_25  and  C_26
REMARK                            x       y       z     vdW  Elec       q    Type
REMARK                         _______ _______ _______ _____ _____    ______ ____
ROOT
ATOM      1  C   UNL     1       0.595   9.732  19.451  0.00  0.00    +0.000 C 
ATOM      2  O   UNL     1      -0.397   9.982  18.786  0.00  0.00    +0.000 OA
ATOM      3  N   UNL     1       0.864  10.432  20.685  0.00  0.00    +0.000 N 
ATOM      4  H   UNL     1       1.766  10.335  21.124  0.00  0.00    +0.000 HD
ENDROOT
BRANCH   1  12
ATOM      5  C   UNL     1       5.372   5.734  16.942  0.00  0.00    +0.000 C 
ATOM      6  O   UNL     1       5.533   6.554  16.040  0.00  0.00    +0.000 OA
ATOM      7  N   UNL     1       4.452   5.881  17.972  0.00  0.00    +0.000 N 
ATOM      8  C   UNL     1       4.341   4.985  19.138  0.00  0.00    +0.000 C 
ATOM      9  C   UNL     1       3.141   5.444  19.963  0.00  0.00    +0.000 C 
ATOM     10  C   UNL     1       2.808   6.744  19.311  0.00  0.00    +0.000 A 
ATOM     11  C   UNL     1       1.849   7.650  19.729  0.00  0.00    +0.000 A 
ATOM     12  C   UNL     1       1.610   8.789  18.946  0.00  0.00    +0.000 A 
ATOM     13  C   UNL     1       2.348   9.002  17.766  0.00  0.00    +0.000 A 
ATOM     14  C   UNL     1       3.331   8.075  17.367  0.00  0.00    +0.000 A 
ATOM     15  C   UNL     1       3.551   6.950  18.149  0.00  0.00    +0.000 A 
BRANCH   5  17
ATOM     16  C   UNL     1       7.589   4.544  17.366  0.00  0.00    +0.000 C 
ATOM     17  C   UNL     1       6.136   4.409  16.955  0.00  0.00    +0.000 C 
ENDBRANCH   5  17
ENDBRANCH   1  12
BRANCH   3  18
ATOM     18  C   UNL     1      -0.055  11.337  21.218  0.00  0.00    +0.000 A 
ATOM     19  C   UNL     1      -1.317  11.062  21.688  0.00  0.00    +0.000 A 
ATOM     20  C   UNL     1      -1.871  12.294  22.122  0.00  0.00    +0.000 A 
ATOM     21  N   UNL     1      -0.986  13.283  21.935  0.00  0.00    +0.000 NA
ATOM     22  N   UNL     1       0.095  12.689  21.403  0.00  0.00    +0.000 N 
ATOM     23  C   UNL     1       1.209  13.522  21.022  0.00  0.00    +0.000 C 
BRANCH  20  24
ATOM     24  C   UNL     1      -3.206  12.493  22.703  0.00  0.00    +0.000 A 
ATOM     25  C   UNL     1      -3.372  12.272  24.087  0.00  0.00    +0.000 A 
ATOM     26  C   UNL     1      -4.593  12.511  24.718  0.00  0.00    +0.000 A 
ATOM     27  C   UNL     1      -5.672  12.973  23.978  0.00  0.00    +0.000 A 
ATOM     28  C   UNL     1      -5.536  13.177  22.606  0.00  0.00    +0.000 A 
ATOM     29  C   UNL     1      -4.315  12.937  21.949  0.00  0.00    +0.000 A 
ATOM     30  C   UNL     1      -4.251  13.168  20.463  0.00  0.00    +0.000 C 
ENDBRANCH  20  24
ENDBRANCH   3  18
TORSDOF 4
ENDMDL
