MODEL 1
REMARK VINA RESULT:      -9.3      0.000      0.000
REMARK  Name = 
REMARK  7 active torsions:
REMARK  status: ('A' for Active; 'I' for Inactive)
REMARK    1  A    between atoms: C_1  and  C_2
REMARK    2  A    between atoms: C_7  and  N_8
REMARK    3  A    between atoms: N_8  and  S_9
REMARK    4  A    between atoms: S_9  and  C_12
REMARK    5  A    between atoms: C_15  and  C_16
REMARK    6  A    between atoms: C_17  and  C_18
REMARK    7  A    between atoms: N_20  and  C_21
REMARK                            x       y       z     vdW  Elec       q    Type
REMARK                         _______ _______ _______ _____ _____    ______ ____
ROOT
ATOM      1  C   UNL     1       5.212   5.644  17.475  0.00  0.00    +0.000 A 
ATOM      2  C   UNL     1       5.494   4.301  17.733  0.00  0.00    +0.000 A 
ATOM      3  C   UNL     1       4.758   3.601  18.694  0.00  0.00    +0.000 A 
ATOM      4  C   UNL     1       3.725   4.222  19.425  0.00  0.00    +0.000 A 
ATOM      5  C   UNL     1       2.962   3.370  20.403  0.00  0.00    +0.000 C 
ATOM      6  C   UNL     1       3.447   5.582  19.167  0.00  0.00    +0.000 A 
ATOM      7  C   UNL     1       4.182   6.273  18.172  0.00  0.00    +0.000 A 
ENDROOT
BRANCH   6   8
ATOM      8  C   UNL     1       2.345   6.374  19.806  0.00  0.00    +0.000 C 
ATOM      9  O   UNL     1       1.460   5.741  20.375  0.00  0.00    +0.000 OA
ATOM     10  N   UNL     1       2.355   7.748  19.637  0.00  0.00    +0.000 N 
ATOM     11  H   UNL     1       3.035   8.141  19.000  0.00  0.00    +0.000 HD
BRANCH  10  12
ATOM     12  C   UNL     1       1.370   8.646  20.129  0.00  0.00    +0.000 A 
ATOM     13  C   UNL     1       0.688   9.587  19.349  0.00  0.00    +0.000 A 
ATOM     14  N   UNL     1      -0.227  10.493  19.788  0.00  0.00    +0.000 NA
ATOM     15  C   UNL     1      -0.432  10.424  21.113  0.00  0.00    +0.000 A 
ATOM     16  N   UNL     1      -1.270  11.249  21.810  0.00  0.00    +0.000 N 
ATOM     17  C   UNL     1      -1.234  10.930  23.143  0.00  0.00    +0.000 A 
ATOM     18  C   UNL     1      -0.370   9.863  23.295  0.00  0.00    +0.000 A 
ATOM     19  C   UNL     1       0.150   9.538  22.012  0.00  0.00    +0.000 A 
ATOM     20  C   UNL     1       1.068   8.602  21.498  0.00  0.00    +0.000 A 
ATOM     21  H   UNL     1      -1.805  11.993  21.382  0.00  0.00    +0.000 HD
ENDBRANCH  10  12
ENDBRANCH   6   8
BRANCH   1  22
ATOM     22  S   UNL     1       6.174   6.452  16.206  0.00  0.00    +0.000 S 
ATOM     23  O   UNL     1       7.071   7.343  16.918  0.00  0.00    +0.000 OA
ATOM     24  O   UNL     1       5.239   6.955  15.225  0.00  0.00    +0.000 OA
BRANCH  22  25
ATOM     25  N   UNL     1       7.173   5.285  15.510  0.00  0.00    +0.000 N 
ATOM     26  H   UNL     1       8.157   5.481  15.691  0.00  0.00    +0.000 HD
BRANCH  25  33
ATOM     27  C   UNL     1       8.804   5.928  13.026  0.00  0.00    +0.000 C 
ATOM     28  C   UNL     1       7.614   5.008  13.064  0.00  0.00    +0.000 A 
ATOM     29  C   UNL     1       7.256   4.355  11.866  0.00  0.00    +0.000 A 
ATOM     30  C   UNL     1       6.183   3.465  11.824  0.00  0.00    +0.000 A 
ATOM     31  C   UNL     1       5.448   3.213  12.973  0.00  0.00    +0.000 A 
ATOM     32  C   UNL     1       5.785   3.851  14.164  0.00  0.00    +0.000 A 
ATOM     33  C   UNL     1       6.860   4.744  14.223  0.00  0.00    +0.000 A 
ENDBRANCH  25  33
ENDBRANCH  22  25
ENDBRANCH   1  22
TORSDOF 5
ENDMDL
MODEL 2
REMARK VINA RESULT:      -9.2      0.986      1.112
REMARK  Name = 
REMARK  7 active torsions:
REMARK  status: ('A' for Active; 'I' for Inactive)
REMARK    1  A    between atoms: C_1  and  C_2
REMARK    2  A    between atoms: C_7  and  N_8
REMARK    3  A    between atoms: N_8  and  S_9
REMARK    4  A    between atoms: S_9  and  C_12
REMARK    5  A    between atoms: C_15  and  C_16
REMARK    6  A    between atoms: C_17  and  C_18
REMARK    7  A    between atoms: N_20  and  C_21
REMARK                            x       y       z     vdW  Elec       q    Type
REMARK                         _______ _______ _______ _____ _____    ______ ____
ROOT
ATOM      1  C   UNL     1       5.650   5.245  17.582  0.00  0.00    +0.000 A 
ATOM      2  C   UNL     1       5.672   4.017  18.243  0.00  0.00    +0.000 A 
ATOM      3  C   UNL     1       4.671   3.697  19.165  0.00  0.00    +0.000 A 
ATOM      4  C   UNL     1       3.623   4.595  19.455  0.00  0.00    +0.000 A 
ATOM      5  C   UNL     1       2.570   4.136  20.426  0.00  0.00    +0.000 C 
ATOM      6  C   UNL     1       3.607   5.840  18.789  0.00  0.00    +0.000 A 
ATOM      7  C   UNL     1       4.612   6.141  17.837  0.00  0.00    +0.000 A 
ENDROOT
BRANCH   6   8
ATOM      8  C   UNL     1       2.535   6.880  18.932  0.00  0.00    +0.000 C 
ATOM      9  O   UNL     1       1.925   7.195  17.915  0.00  0.00    +0.000 OA
ATOM     10  N   UNL     1       2.370   7.472  20.172  0.00  0.00    +0.000 N 
ATOM     11  H   UNL     1       3.048   7.260  20.891  0.00  0.00    +0.000 HD
BRANCH  10  12
ATOM     12  C   UNL     1       1.442   8.503  20.476  0.00  0.00    +0.000 A 
ATOM     13  C   UNL     1       1.042   9.505  19.585  0.00  0.00    +0.000 A 
ATOM     14  N   UNL     1       0.192  10.534  19.850  0.00  0.00    +0.000 NA
ATOM     15  C   UNL     1      -0.254  10.526  21.116  0.00  0.00    +0.000 A 
ATOM     16  N   UNL     1      -1.087  11.471  21.648  0.00  0.00    +0.000 N 
ATOM     17  C   UNL     1      -1.333  11.184  22.966  0.00  0.00    +0.000 A 
ATOM     18  C   UNL     1      -0.660  10.018  23.273  0.00  0.00    +0.000 A 
ATOM     19  C   UNL     1       0.034   9.595  22.106  0.00  0.00    +0.000 A 
ATOM     20  C   UNL     1       0.896   8.534  21.768  0.00  0.00    +0.000 A 
ATOM     21  H   UNL     1      -1.432  12.268  21.129  0.00  0.00    +0.000 HD
ENDBRANCH  10  12
ENDBRANCH   6   8
BRANCH   1  22
ATOM     22  S   UNL     1       6.945   5.559  16.393  0.00  0.00    +0.000 S 
ATOM     23  O   UNL     1       7.596   4.278  16.192  0.00  0.00    +0.000 OA
ATOM     24  O   UNL     1       7.682   6.709  16.867  0.00  0.00    +0.000 OA
BRANCH  22  25
ATOM     25  N   UNL     1       6.203   5.913  14.921  0.00  0.00    +0.000 N 
ATOM     26  H   UNL     1       5.311   6.390  15.059  0.00  0.00    +0.000 HD
BRANCH  25  33
ATOM     27  C   UNL     1       8.484   5.875  12.911  0.00  0.00    +0.000 C 
ATOM     28  C   UNL     1       7.318   4.924  12.913  0.00  0.00    +0.000 A 
ATOM     29  C   UNL     1       7.305   3.905  11.937  0.00  0.00    +0.000 A 
ATOM     30  C   UNL     1       6.275   2.967  11.888  0.00  0.00    +0.000 A 
ATOM     31  C   UNL     1       5.239   3.029  12.809  0.00  0.00    +0.000 A 
ATOM     32  C   UNL     1       5.233   4.031  13.777  0.00  0.00    +0.000 A 
ATOM     33  C   UNL     1       6.260   4.977  13.841  0.00  0.00    +0.000 A 
ENDBRANCH  25  33
ENDBRANCH  22  25
ENDBRANCH   1  22
TORSDOF 5
ENDMDL
MODEL 3
REMARK VINA RESULT:      -9.0      3.156      4.995
REMARK  Name = 
REMARK  7 active torsions:
REMARK  status: ('A' for Active; 'I' for Inactive)
REMARK    1  A    between atoms: C_1  and  C_2
REMARK    2  A    between atoms: C_7  and  N_8
REMARK    3  A    between atoms: N_8  and  S_9
REMARK    4  A    between atoms: S_9  and  C_12
REMARK    5  A    between atoms: C_15  and  C_16
REMARK    6  A    between atoms: C_17  and  C_18
REMARK    7  A    between atoms: N_20  and  C_21
REMARK                            x       y       z     vdW  Elec       q    Type
REMARK                         _______ _______ _______ _____ _____    ______ ____
ROOT
ATOM      1  C   UNL     1       4.474   5.728  18.468  0.00  0.00    +0.000 A 
ATOM      2  C   UNL     1       4.537   6.301  17.197  0.00  0.00    +0.000 A 
ATOM      3  C   UNL     1       3.693   7.365  16.864  0.00  0.00    +0.000 A 
ATOM      4  C   UNL     1       2.763   7.883  17.787  0.00  0.00    +0.000 A 
ATOM      5  C   UNL     1       1.934   9.059  17.346  0.00  0.00    +0.000 C 
ATOM      6  C   UNL     1       2.696   7.298  19.070  0.00  0.00    +0.000 A 
ATOM      7  C   UNL     1       3.575   6.237  19.404  0.00  0.00    +0.000 A 
ENDROOT
BRANCH   6   8
ATOM      8  C   UNL     1       1.812   7.766  20.187  0.00  0.00    +0.000 C 
ATOM      9  O   UNL     1       1.372   6.909  20.947  0.00  0.00    +0.000 OA
ATOM     10  N   UNL     1       1.485   9.110  20.232  0.00  0.00    +0.000 N 
ATOM     11  H   UNL     1       1.761   9.690  19.452  0.00  0.00    +0.000 HD
BRANCH  10  12
ATOM     12  C   UNL     1       0.626   9.718  21.186  0.00  0.00    +0.000 A 
ATOM     13  C   UNL     1       0.541   9.348  22.533  0.00  0.00    +0.000 A 
ATOM     14  N   UNL     1      -0.298   9.874  23.467  0.00  0.00    +0.000 NA
ATOM     15  C   UNL     1      -1.101  10.826  22.967  0.00  0.00    +0.000 A 
ATOM     16  N   UNL     1      -2.062  11.483  23.684  0.00  0.00    +0.000 N 
ATOM     17  C   UNL     1      -2.717  12.374  22.875  0.00  0.00    +0.000 A 
ATOM     18  C   UNL     1      -2.147  12.299  21.620  0.00  0.00    +0.000 A 
ATOM     19  C   UNL     1      -1.123  11.313  21.665  0.00  0.00    +0.000 A 
ATOM     20  C   UNL     1      -0.213  10.754  20.748  0.00  0.00    +0.000 A 
ATOM     21  H   UNL     1      -2.254  11.298  24.660  0.00  0.00    +0.000 HD
ENDBRANCH  10  12
ENDBRANCH   6   8
BRANCH   1  22
ATOM     22  S   UNL     1       5.612   4.399  18.824  0.00  0.00    +0.000 S 
ATOM     23  O   UNL     1       6.109   4.670  20.160  0.00  0.00    +0.000 OA
ATOM     24  O   UNL     1       6.510   4.300  17.695  0.00  0.00    +0.000 OA
BRANCH  22  25
ATOM     25  N   UNL     1       4.705   2.985  18.969  0.00  0.00    +0.000 N 
ATOM     26  H   UNL     1       4.842   2.371  18.165  0.00  0.00    +0.000 HD
BRANCH  25  33
ATOM     27  C   UNL     1       2.224   3.249  17.232  0.00  0.00    +0.000 C 
ATOM     28  C   UNL     1       2.220   3.126  18.731  0.00  0.00    +0.000 A 
ATOM     29  C   UNL     1       0.968   3.081  19.379  0.00  0.00    +0.000 A 
ATOM     30  C   UNL     1       0.877   2.941  20.764  0.00  0.00    +0.000 A 
ATOM     31  C   UNL     1       2.032   2.844  21.526  0.00  0.00    +0.000 A 
ATOM     32  C   UNL     1       3.278   2.891  20.904  0.00  0.00    +0.000 A 
ATOM     33  C   UNL     1       3.385   3.028  19.517  0.00  0.00    +0.000 A 
ENDBRANCH  25  33
ENDBRANCH  22  25
ENDBRANCH   1  22
TORSDOF 5
ENDMDL
MODEL 4
REMARK VINA RESULT:      -8.9      2.491      9.307
REMARK  Name = 
REMARK  7 active torsions:
REMARK  status: ('A' for Active; 'I' for Inactive)
REMARK    1  A    between atoms: C_1  and  C_2
REMARK    2  A    between atoms: C_7  and  N_8
REMARK    3  A    between atoms: N_8  and  S_9
REMARK    4  A    between atoms: S_9  and  C_12
REMARK    5  A    between atoms: C_15  and  C_16
REMARK    6  A    between atoms: C_17  and  C_18
REMARK    7  A    between atoms: N_20  and  C_21
REMARK                            x       y       z     vdW  Elec       q    Type
REMARK                         _______ _______ _______ _____ _____    ______ ____
ROOT
ATOM      1  C   UNL     1       1.526   7.547  20.555  0.00  0.00    +0.000 A 
ATOM      2  C   UNL     1       1.139   6.366  21.189  0.00  0.00    +0.000 A 
ATOM      3  C   UNL     1       1.586   5.132  20.708  0.00  0.00    +0.000 A 
ATOM      4  C   UNL     1       2.427   5.042  19.580  0.00  0.00    +0.000 A 
ATOM      5  C   UNL     1       2.891   3.671  19.171  0.00  0.00    +0.000 C 
ATOM      6  C   UNL     1       2.812   6.238  18.937  0.00  0.00    +0.000 A 
ATOM      7  C   UNL     1       2.374   7.485  19.450  0.00  0.00    +0.000 A 
ENDROOT
BRANCH   6   8
ATOM      8  C   UNL     1       3.749   6.327  17.769  0.00  0.00    +0.000 C 
ATOM      9  O   UNL     1       3.714   7.357  17.102  0.00  0.00    +0.000 OA
ATOM     10  N   UNL     1       4.520   5.216  17.473  0.00  0.00    +0.000 N 
ATOM     11  H   UNL     1       4.335   4.363  17.984  0.00  0.00    +0.000 HD
BRANCH  10  12
ATOM     12  C   UNL     1       5.423   5.105  16.382  0.00  0.00    +0.000 A 
ATOM     13  C   UNL     1       6.666   5.744  16.306  0.00  0.00    +0.000 A 
ATOM     14  N   UNL     1       7.537   5.700  15.263  0.00  0.00    +0.000 NA
ATOM     15  C   UNL     1       7.083   4.962  14.237  0.00  0.00    +0.000 A 
ATOM     16  N   UNL     1       7.747   4.791  13.054  0.00  0.00    +0.000 N 
ATOM     17  C   UNL     1       7.003   4.003  12.214  0.00  0.00    +0.000 A 
ATOM     18  C   UNL     1       5.850   3.647  12.885  0.00  0.00    +0.000 A 
ATOM     19  C   UNL     1       5.888   4.257  14.169  0.00  0.00    +0.000 A 
ATOM     20  C   UNL     1       5.037   4.314  15.290  0.00  0.00    +0.000 A 
ATOM     21  H   UNL     1       8.641   5.216  12.849  0.00  0.00    +0.000 HD
ENDBRANCH  10  12
ENDBRANCH   6   8
BRANCH   1  22
ATOM     22  S   UNL     1       0.941   9.082  21.256  0.00  0.00    +0.000 S 
ATOM     23  O   UNL     1       1.982   9.503  22.174  0.00  0.00    +0.000 OA
ATOM     24  O   UNL     1      -0.411   8.847  21.712  0.00  0.00    +0.000 OA
BRANCH  22  25
ATOM     25  N   UNL     1       0.946  10.233  20.024  0.00  0.00    +0.000 N 
ATOM     26  H   UNL     1       1.521  11.039  20.270  0.00  0.00    +0.000 HD
BRANCH  25  33
ATOM     27  C   UNL     1      -1.024  12.393  20.857  0.00  0.00    +0.000 C 
ATOM     28  C   UNL     1      -1.165  11.518  19.642  0.00  0.00    +0.000 A 
ATOM     29  C   UNL     1      -2.270  11.748  18.796  0.00  0.00    +0.000 A 
ATOM     30  C   UNL     1      -2.458  10.998  17.635  0.00  0.00    +0.000 A 
ATOM     31  C   UNL     1      -1.549  10.006  17.298  0.00  0.00    +0.000 A 
ATOM     32  C   UNL     1      -0.454   9.762  18.124  0.00  0.00    +0.000 A 
ATOM     33  C   UNL     1      -0.250  10.507  19.289  0.00  0.00    +0.000 A 
ENDBRANCH  25  33
ENDBRANCH  22  25
ENDBRANCH   1  22
TORSDOF 5
ENDMDL
MODEL 5
REMARK VINA RESULT:      -8.9      1.423      1.832
REMARK  Name = 
REMARK  7 active torsions:
REMARK  status: ('A' for Active; 'I' for Inactive)
REMARK    1  A    between atoms: C_1  and  C_2
REMARK    2  A    between atoms: C_7  and  N_8
REMARK    3  A    between atoms: N_8  and  S_9
REMARK    4  A    between atoms: S_9  and  C_12
REMARK    5  A    between atoms: C_15  and  C_16
REMARK    6  A    between atoms: C_17  and  C_18
REMARK    7  A    between atoms: N_20  and  C_21
REMARK                            x       y       z     vdW  Elec       q    Type
REMARK                         _______ _______ _______ _____ _____    ______ ____
ROOT
ATOM      1  C   UNL     1       5.520   5.130  17.552  0.00  0.00    +0.000 A 
ATOM      2  C   UNL     1       5.040   3.820  17.608  0.00  0.00    +0.000 A 
ATOM      3  C   UNL     1       3.746   3.565  18.072  0.00  0.00    +0.000 A 
ATOM      4  C   UNL     1       2.899   4.608  18.497  0.00  0.00    +0.000 A 
ATOM      5  C   UNL     1       1.509   4.233  18.936  0.00  0.00    +0.000 C 
ATOM      6  C   UNL     1       3.388   5.931  18.447  0.00  0.00    +0.000 A 
ATOM      7  C   UNL     1       4.692   6.179  17.949  0.00  0.00    +0.000 A 
ENDROOT
BRANCH   6   8
ATOM      8  C   UNL     1       2.600   7.157  18.800  0.00  0.00    +0.000 C 
ATOM      9  O   UNL     1       2.437   7.990  17.913  0.00  0.00    +0.000 OA
ATOM     10  N   UNL     1       2.190   7.306  20.114  0.00  0.00    +0.000 N 
ATOM     11  H   UNL     1       2.535   6.643  20.794  0.00  0.00    +0.000 HD
BRANCH  10  12
ATOM     12  C   UNL     1       1.479   8.421  20.634  0.00  0.00    +0.000 A 
ATOM     13  C   UNL     1       1.454   8.792  21.983  0.00  0.00    +0.000 A 
ATOM     14  N   UNL     1       0.753   9.823  22.527  0.00  0.00    +0.000 NA
ATOM     15  C   UNL     1       0.027  10.494  21.619  0.00  0.00    +0.000 A 
ATOM     16  N   UNL     1      -0.796  11.546  21.911  0.00  0.00    +0.000 N 
ATOM     17  C   UNL     1      -1.406  11.990  20.766  0.00  0.00    +0.000 A 
ATOM     18  C   UNL     1      -0.943  11.219  19.719  0.00  0.00    +0.000 A 
ATOM     19  C   UNL     1      -0.037  10.261  20.250  0.00  0.00    +0.000 A 
ATOM     20  C   UNL     1       0.733   9.199  19.737  0.00  0.00    +0.000 A 
ATOM     21  H   UNL     1      -0.935  11.903  22.847  0.00  0.00    +0.000 HD
ENDBRANCH  10  12
ENDBRANCH   6   8
BRANCH   1  22
ATOM     22  S   UNL     1       7.169   5.371  16.911  0.00  0.00    +0.000 S 
ATOM     23  O   UNL     1       7.700   4.035  16.713  0.00  0.00    +0.000 OA
ATOM     24  O   UNL     1       7.826   6.318  17.785  0.00  0.00    +0.000 OA
BRANCH  22  25
ATOM     25  N   UNL     1       7.017   6.020  15.362  0.00  0.00    +0.000 N 
ATOM     26  H   UNL     1       6.538   6.921  15.381  0.00  0.00    +0.000 HD
BRANCH  25  33
ATOM     27  C   UNL     1       8.818   5.850  12.919  0.00  0.00    +0.000 C 
ATOM     28  C   UNL     1       7.556   5.056  13.118  0.00  0.00    +0.000 A 
ATOM     29  C   UNL     1       7.205   4.125  12.118  0.00  0.00    +0.000 A 
ATOM     30  C   UNL     1       6.066   3.331  12.241  0.00  0.00    +0.000 A 
ATOM     31  C   UNL     1       5.256   3.452  13.361  0.00  0.00    +0.000 A 
ATOM     32  C   UNL     1       5.585   4.368  14.357  0.00  0.00    +0.000 A 
ATOM     33  C   UNL     1       6.725   5.170  14.250  0.00  0.00    +0.000 A 
ENDBRANCH  25  33
ENDBRANCH  22  25
ENDBRANCH   1  22
TORSDOF 5
ENDMDL
MODEL 6
REMARK VINA RESULT:      -8.8      0.955      1.334
REMARK  Name = 
REMARK  7 active torsions:
REMARK  status: ('A' for Active; 'I' for Inactive)
REMARK    1  A    between atoms: C_1  and  C_2
REMARK    2  A    between atoms: C_7  and  N_8
REMARK    3  A    between atoms: N_8  and  S_9
REMARK    4  A    between atoms: S_9  and  C_12
REMARK    5  A    between atoms: C_15  and  C_16
REMARK    6  A    between atoms: C_17  and  C_18
REMARK    7  A    between atoms: N_20  and  C_21
REMARK                            x       y       z     vdW  Elec       q    Type
REMARK                         _______ _______ _______ _____ _____    ______ ____
ROOT
ATOM      1  C   UNL     1       4.586   5.601  17.133  0.00  0.00    +0.000 A 
ATOM      2  C   UNL     1       4.392   4.235  16.924  0.00  0.00    +0.000 A 
ATOM      3  C   UNL     1       3.462   3.532  17.695  0.00  0.00    +0.000 A 
ATOM      4  C   UNL     1       2.703   4.170  18.697  0.00  0.00    +0.000 A 
ATOM      5  C   UNL     1       1.695   3.335  19.438  0.00  0.00    +0.000 C 
ATOM      6  C   UNL     1       2.906   5.551  18.911  0.00  0.00    +0.000 A 
ATOM      7  C   UNL     1       3.832   6.258  18.105  0.00  0.00    +0.000 A 
ENDROOT
BRANCH   6   8
ATOM      8  C   UNL     1       2.141   6.394  19.887  0.00  0.00    +0.000 C 
ATOM      9  O   UNL     1       1.527   5.806  20.772  0.00  0.00    +0.000 OA
ATOM     10  N   UNL     1       2.108   7.762  19.673  0.00  0.00    +0.000 N 
ATOM     11  H   UNL     1       2.502   8.115  18.812  0.00  0.00    +0.000 HD
BRANCH  10  12
ATOM     12  C   UNL     1       1.397   8.703  20.464  0.00  0.00    +0.000 A 
ATOM     13  C   UNL     1       1.455   8.777  21.861  0.00  0.00    +0.000 A 
ATOM     14  N   UNL     1       0.758   9.632  22.656  0.00  0.00    +0.000 NA
ATOM     15  C   UNL     1      -0.054  10.445  21.961  0.00  0.00    +0.000 A 
ATOM     16  N   UNL     1      -0.891  11.368  22.524  0.00  0.00    +0.000 N 
ATOM     17  C   UNL     1      -1.596  12.014  21.542  0.00  0.00    +0.000 A 
ATOM     18  C   UNL     1      -1.182  11.508  20.326  0.00  0.00    +0.000 A 
ATOM     19  C   UNL     1      -0.207  10.505  20.581  0.00  0.00    +0.000 A 
ATOM     20  C   UNL     1       0.562   9.617  19.804  0.00  0.00    +0.000 A 
ATOM     21  H   UNL     1      -0.975  11.511  23.521  0.00  0.00    +0.000 HD
ENDBRANCH  10  12
ENDBRANCH   6   8
BRANCH   1  22
ATOM     22  S   UNL     1       5.766   6.431  16.081  0.00  0.00    +0.000 S 
ATOM     23  O   UNL     1       6.567   7.245  16.975  0.00  0.00    +0.000 OA
ATOM     24  O   UNL     1       5.017   7.023  14.994  0.00  0.00    +0.000 OA
BRANCH  22  25
ATOM     25  N   UNL     1       6.822   5.259  15.485  0.00  0.00    +0.000 N 
ATOM     26  H   UNL     1       7.782   5.437  15.783  0.00  0.00    +0.000 HD
BRANCH  25  33
ATOM     27  C   UNL     1       8.739   5.912  13.218  0.00  0.00    +0.000 C 
ATOM     28  C   UNL     1       7.540   5.011  13.103  0.00  0.00    +0.000 A 
ATOM     29  C   UNL     1       7.314   4.381  11.862  0.00  0.00    +0.000 A 
ATOM     30  C   UNL     1       6.241   3.509  11.681  0.00  0.00    +0.000 A 
ATOM     31  C   UNL     1       5.374   3.251  12.733  0.00  0.00    +0.000 A 
ATOM     32  C   UNL     1       5.580   3.867  13.965  0.00  0.00    +0.000 A 
ATOM     33  C   UNL     1       6.653   4.741  14.163  0.00  0.00    +0.000 A 
ENDBRANCH  25  33
ENDBRANCH  22  25
ENDBRANCH   1  22
TORSDOF 5
ENDMDL
MODEL 7
REMARK VINA RESULT:      -8.8      1.019      1.169
REMARK  Name = 
REMARK  7 active torsions:
REMARK  status: ('A' for Active; 'I' for Inactive)
REMARK    1  A    between atoms: C_1  and  C_2
REMARK    2  A    between atoms: C_7  and  N_8
REMARK    3  A    between atoms: N_8  and  S_9
REMARK    4  A    between atoms: S_9  and  C_12
REMARK    5  A    between atoms: C_15  and  C_16
REMARK    6  A    between atoms: C_17  and  C_18
REMARK    7  A    between atoms: N_20  and  C_21
REMARK                            x       y       z     vdW  Elec       q    Type
REMARK                         _______ _______ _______ _____ _____    ______ ____
ROOT
ATOM      1  C   UNL     1       5.371   4.788  17.526  0.00  0.00    +0.000 A 
ATOM      2  C   UNL     1       5.015   3.472  17.226  0.00  0.00    +0.000 A 
ATOM      3  C   UNL     1       3.822   2.938  17.721  0.00  0.00    +0.000 A 
ATOM      4  C   UNL     1       2.955   3.698  18.532  0.00  0.00    +0.000 A 
ATOM      5  C   UNL     1       1.673   3.046  18.975  0.00  0.00    +0.000 C 
ATOM      6  C   UNL     1       3.321   5.026  18.840  0.00  0.00    +0.000 A 
ATOM      7  C   UNL     1       4.520   5.566  18.309  0.00  0.00    +0.000 A 
ENDROOT
BRANCH   6   8
ATOM      8  C   UNL     1       2.488   5.990  19.632  0.00  0.00    +0.000 C 
ATOM      9  O   UNL     1       1.881   5.539  20.598  0.00  0.00    +0.000 OA
ATOM     10  N   UNL     1       2.391   7.291  19.169  0.00  0.00    +0.000 N 
ATOM     11  H   UNL     1       2.790   7.503  18.265  0.00  0.00    +0.000 HD
BRANCH  10  12
ATOM     12  C   UNL     1       1.612   8.321  19.763  0.00  0.00    +0.000 A 
ATOM     13  C   UNL     1       1.268   9.524  19.135  0.00  0.00    +0.000 A 
ATOM     14  N   UNL     1       0.563  10.551  19.683  0.00  0.00    +0.000 NA
ATOM     15  C   UNL     1       0.210  10.318  20.957  0.00  0.00    +0.000 A 
ATOM     16  N   UNL     1      -0.467  11.205  21.746  0.00  0.00    +0.000 N 
ATOM     17  C   UNL     1      -0.650  10.670  22.995  0.00  0.00    +0.000 A 
ATOM     18  C   UNL     1      -0.097   9.405  22.994  0.00  0.00    +0.000 A 
ATOM     19  C   UNL     1       0.458   9.173  21.705  0.00  0.00    +0.000 A 
ATOM     20  C   UNL     1       1.166   8.130  21.079  0.00  0.00    +0.000 A 
ATOM     21  H   UNL     1      -0.754  12.123  21.435  0.00  0.00    +0.000 HD
ENDBRANCH  10  12
ENDBRANCH   6   8
BRANCH   1  22
ATOM     22  S   UNL     1       6.892   5.404  16.823  0.00  0.00    +0.000 S 
ATOM     23  O   UNL     1       7.702   4.227  16.574  0.00  0.00    +0.000 OA
ATOM     24  O   UNL     1       7.357   6.465  17.689  0.00  0.00    +0.000 OA
BRANCH  22  25
ATOM     25  N   UNL     1       6.528   6.021  15.295  0.00  0.00    +0.000 N 
ATOM     26  H   UNL     1       5.840   6.772  15.352  0.00  0.00    +0.000 HD
BRANCH  25  33
ATOM     27  C   UNL     1       8.672   5.840  13.148  0.00  0.00    +0.000 C 
ATOM     28  C   UNL     1       7.408   5.024  13.178  0.00  0.00    +0.000 A 
ATOM     29  C   UNL     1       7.225   4.067  12.158  0.00  0.00    +0.000 A 
ATOM     30  C   UNL     1       6.094   3.252  12.130  0.00  0.00    +0.000 A 
ATOM     31  C   UNL     1       5.126   3.378  13.116  0.00  0.00    +0.000 A 
ATOM     32  C   UNL     1       5.288   4.321  14.128  0.00  0.00    +0.000 A 
ATOM     33  C   UNL     1       6.418   5.143  14.172  0.00  0.00    +0.000 A 
ENDBRANCH  25  33
ENDBRANCH  22  25
ENDBRANCH   1  22
TORSDOF 5
ENDMDL
MODEL 8
REMARK VINA RESULT:      -8.8      3.263      4.918
REMARK  Name = 
REMARK  7 active torsions:
REMARK  status: ('A' for Active; 'I' for Inactive)
REMARK    1  A    between atoms: C_1  and  C_2
REMARK    2  A    between atoms: C_7  and  N_8
REMARK    3  A    between atoms: N_8  and  S_9
REMARK    4  A    between atoms: S_9  and  C_12
REMARK    5  A    between atoms: C_15  and  C_16
REMARK    6  A    between atoms: C_17  and  C_18
REMARK    7  A    between atoms: N_20  and  C_21
REMARK                            x       y       z     vdW  Elec       q    Type
REMARK                         _______ _______ _______ _____ _____    ______ ____
ROOT
ATOM      1  C   UNL     1       4.418   5.798  18.618  0.00  0.00    +0.000 A 
ATOM      2  C   UNL     1       4.435   6.300  17.316  0.00  0.00    +0.000 A 
ATOM      3  C   UNL     1       3.545   7.311  16.941  0.00  0.00    +0.000 A 
ATOM      4  C   UNL     1       2.613   7.846  17.853  0.00  0.00    +0.000 A 
ATOM      5  C   UNL     1       1.732   8.963  17.365  0.00  0.00    +0.000 C 
ATOM      6  C   UNL     1       2.592   7.331  19.168  0.00  0.00    +0.000 A 
ATOM      7  C   UNL     1       3.518   6.325  19.543  0.00  0.00    +0.000 A 
ENDROOT
BRANCH   6   8
ATOM      8  C   UNL     1       1.713   7.829  20.275  0.00  0.00    +0.000 C 
ATOM      9  O   UNL     1       1.298   6.997  21.076  0.00  0.00    +0.000 OA
ATOM     10  N   UNL     1       1.359   9.168  20.268  0.00  0.00    +0.000 N 
ATOM     11  H   UNL     1       1.614   9.720  19.461  0.00  0.00    +0.000 HD
BRANCH  10  12
ATOM     12  C   UNL     1       0.499   9.799  21.207  0.00  0.00    +0.000 A 
ATOM     13  C   UNL     1       0.389   9.439  22.554  0.00  0.00    +0.000 A 
ATOM     14  N   UNL     1      -0.453   9.986  23.473  0.00  0.00    +0.000 NA
ATOM     15  C   UNL     1      -1.230  10.951  22.956  0.00  0.00    +0.000 A 
ATOM     16  N   UNL     1      -2.187  11.631  23.656  0.00  0.00    +0.000 N 
ATOM     17  C   UNL     1      -2.814  12.530  22.832  0.00  0.00    +0.000 A 
ATOM     18  C   UNL     1      -2.228  12.436  21.586  0.00  0.00    +0.000 A 
ATOM     19  C   UNL     1      -1.224  11.431  21.652  0.00  0.00    +0.000 A 
ATOM     20  C   UNL     1      -0.313  10.848  20.750  0.00  0.00    +0.000 A 
ATOM     21  H   UNL     1      -2.397  11.457  24.630  0.00  0.00    +0.000 HD
ENDBRANCH  10  12
ENDBRANCH   6   8
BRANCH   1  22
ATOM     22  S   UNL     1       5.612   4.534  19.024  0.00  0.00    +0.000 S 
ATOM     23  O   UNL     1       6.499   5.146  19.995  0.00  0.00    +0.000 OA
ATOM     24  O   UNL     1       6.114   4.012  17.772  0.00  0.00    +0.000 OA
BRANCH  22  25
ATOM     25  N   UNL     1       4.797   3.324  19.871  0.00  0.00    +0.000 N 
ATOM     26  H   UNL     1       5.421   2.553  20.111  0.00  0.00    +0.000 HD
BRANCH  25  33
ATOM     27  C   UNL     1       2.445   3.693  21.761  0.00  0.00    +0.000 C 
ATOM     28  C   UNL     1       2.351   3.153  20.361  0.00  0.00    +0.000 A 
ATOM     29  C   UNL     1       1.068   2.838  19.867  0.00  0.00    +0.000 A 
ATOM     30  C   UNL     1       0.892   2.359  18.570  0.00  0.00    +0.000 A 
ATOM     31  C   UNL     1       1.992   2.183  17.743  0.00  0.00    +0.000 A 
ATOM     32  C   UNL     1       3.267   2.485  18.214  0.00  0.00    +0.000 A 
ATOM     33  C   UNL     1       3.459   2.969  19.511  0.00  0.00    +0.000 A 
ENDBRANCH  25  33
ENDBRANCH  22  25
ENDBRANCH   1  22
TORSDOF 5
ENDMDL
MODEL 9
REMARK VINA RESULT:      -8.7      2.354      9.567
REMARK  Name = 
REMARK  7 active torsions:
REMARK  status: ('A' for Active; 'I' for Inactive)
REMARK    1  A    between atoms: C_1  and  C_2
REMARK    2  A    between atoms: C_7  and  N_8
REMARK    3  A    between atoms: N_8  and  S_9
REMARK    4  A    between atoms: S_9  and  C_12
REMARK    5  A    between atoms: C_15  and  C_16
REMARK    6  A    between atoms: C_17  and  C_18
REMARK    7  A    between atoms: N_20  and  C_21
REMARK                            x       y       z     vdW  Elec       q    Type
REMARK                         _______ _______ _______ _____ _____    ______ ____
ROOT
ATOM      1  C   UNL     1       1.624   7.072  20.467  0.00  0.00    +0.000 A 
ATOM      2  C   UNL     1       1.396   5.882  21.160  0.00  0.00    +0.000 A 
ATOM      3  C   UNL     1       2.020   4.700  20.750  0.00  0.00    +0.000 A 
ATOM      4  C   UNL     1       2.884   4.672  19.638  0.00  0.00    +0.000 A 
ATOM      5  C   UNL     1       3.543   3.359  19.307  0.00  0.00    +0.000 C 
ATOM      6  C   UNL     1       3.109   5.875  18.934  0.00  0.00    +0.000 A 
ATOM      7  C   UNL     1       2.492   7.072  19.375  0.00  0.00    +0.000 A 
ENDROOT
BRANCH   6   8
ATOM      8  C   UNL     1       4.044   6.034  17.773  0.00  0.00    +0.000 C 
ATOM      9  O   UNL     1       4.130   7.152  17.274  0.00  0.00    +0.000 OA
ATOM     10  N   UNL     1       4.675   4.899  17.291  0.00  0.00    +0.000 N 
ATOM     11  H   UNL     1       4.392   4.005  17.668  0.00  0.00    +0.000 HD
BRANCH  10  12
ATOM     12  C   UNL     1       5.552   4.855  16.174  0.00  0.00    +0.000 A 
ATOM     13  C   UNL     1       6.774   5.533  16.093  0.00  0.00    +0.000 A 
ATOM     14  N   UNL     1       7.620   5.552  15.028  0.00  0.00    +0.000 NA
ATOM     15  C   UNL     1       7.162   4.839  13.986  0.00  0.00    +0.000 A 
ATOM     16  N   UNL     1       7.801   4.730  12.783  0.00  0.00    +0.000 N 
ATOM     17  C   UNL     1       7.059   3.952  11.933  0.00  0.00    +0.000 A 
ATOM     18  C   UNL     1       5.934   3.538  12.617  0.00  0.00    +0.000 A 
ATOM     19  C   UNL     1       5.986   4.101  13.922  0.00  0.00    +0.000 A 
ATOM     20  C   UNL     1       5.162   4.092  15.064  0.00  0.00    +0.000 A 
ATOM     21  H   UNL     1       8.677   5.189  12.571  0.00  0.00    +0.000 HD
ENDBRANCH  10  12
ENDBRANCH   6   8
BRANCH   1  22
ATOM     22  S   UNL     1       0.818   8.543  21.078  0.00  0.00    +0.000 S 
ATOM     23  O   UNL     1       1.732   9.100  22.058  0.00  0.00    +0.000 OA
ATOM     24  O   UNL     1      -0.530   8.165  21.440  0.00  0.00    +0.000 OA
BRANCH  22  25
ATOM     25  N   UNL     1       0.787   9.662  19.817  0.00  0.00    +0.000 N 
ATOM     26  H   UNL     1       1.730   9.942  19.545  0.00  0.00    +0.000 HD
BRANCH  25  33
ATOM     27  C   UNL     1      -1.255   9.881  17.576  0.00  0.00    +0.000 C 
ATOM     28  C   UNL     1      -1.183  10.792  18.771  0.00  0.00    +0.000 A 
ATOM     29  C   UNL     1      -2.167  11.796  18.887  0.00  0.00    +0.000 A 
ATOM     30  C   UNL     1      -2.186  12.663  19.979  0.00  0.00    +0.000 A 
ATOM     31  C   UNL     1      -1.225  12.547  20.972  0.00  0.00    +0.000 A 
ATOM     32  C   UNL     1      -0.242  11.564  20.872  0.00  0.00    +0.000 A 
ATOM     33  C   UNL     1      -0.212  10.685  19.785  0.00  0.00    +0.000 A 
ENDBRANCH  25  33
ENDBRANCH  22  25
ENDBRANCH   1  22
TORSDOF 5
ENDMDL
