MODEL 1
REMARK VINA RESULT:      -8.4      0.000      0.000
REMARK  Name = 
REMARK  7 active torsions:
REMARK  status: ('A' for Active; 'I' for Inactive)
REMARK    1  A    between atoms: C_1  and  N_2
REMARK    2  A    between atoms: C_3  and  N_4
REMARK    3  A    between atoms: C_7  and  N_8
REMARK    4  A    between atoms: N_8  and  C_9
REMARK    5  A    between atoms: C_9  and  C_10
REMARK    6  A    between atoms: C_9  and  C_16
REMARK    7  A    between atoms: N_25  and  C_26
REMARK                            x       y       z     vdW  Elec       q    Type
REMARK                         _______ _______ _______ _____ _____    ______ ____
ROOT
ATOM      1  N   UNL     1       1.593   8.580  19.734  0.00  0.00    +0.000 N 
ATOM      2  C   UNL     1       2.292   8.592  18.449  0.00  0.00    +0.000 C 
ATOM      3  C   UNL     1       2.275   7.130  18.025  0.00  0.00    +0.000 C 
ATOM      4  C   UNL     1       2.492   6.368  19.344  0.00  0.00    +0.000 C 
ATOM      5  C   UNL     1       1.646   7.230  20.327  0.00  0.00    +0.000 C 
ENDROOT
BRANCH   1   8
ATOM      6  C   UNL     1       1.375   9.338  22.444  0.00  0.00    +0.000 C 
ATOM      7  N   UNL     1       0.543   9.944  21.418  0.00  0.00    +0.000 N 
ATOM      8  C   UNL     1       0.665   9.553  20.098  0.00  0.00    +0.000 A 
ATOM      9  C   UNL     1      -0.099  10.153  19.180  0.00  0.00    +0.000 A 
ATOM     10  C   UNL     1      -1.058  11.219  19.554  0.00  0.00    +0.000 A 
ATOM     11  O   UNL     1      -1.718  11.755  18.671  0.00  0.00    +0.000 OA
ATOM     12  N   UNL     1      -1.121  11.535  20.890  0.00  0.00    +0.000 N 
ATOM     13  C   UNL     1      -2.014  12.590  21.336  0.00  0.00    +0.000 C 
ATOM     14  C   UNL     1      -0.349  10.919  21.860  0.00  0.00    +0.000 A 
ATOM     15  O   UNL     1      -0.442  11.224  23.053  0.00  0.00    +0.000 OA
ENDBRANCH   1   8
BRANCH   4  16
ATOM     16  N   UNL     1       3.947   6.303  19.616  0.00  0.00    +0.000 NA
ATOM     17  H   UNL     1       4.081   6.542  20.601  0.00  0.00    +0.000 HD
BRANCH  16  18
ATOM     18  C   UNL     1       4.568   4.958  19.438  0.00  0.00    +0.000 C 
BRANCH  18  19
ATOM     19  C   UNL     1       3.555   3.843  19.202  0.00  0.00    +0.000 A 
ATOM     20  C   UNL     1       3.345   3.299  17.925  0.00  0.00    +0.000 A 
ATOM     21  C   UNL     1       2.328   2.368  17.701  0.00  0.00    +0.000 A 
ATOM     22  C   UNL     1       1.527   1.939  18.756  0.00  0.00    +0.000 A 
ATOM     23  C   UNL     1       1.774   2.403  20.045  0.00  0.00    +0.000 A 
ATOM     24  C   UNL     1       2.782   3.346  20.269  0.00  0.00    +0.000 A 
ENDBRANCH  18  19
BRANCH  18  25
ATOM     25  C   UNL     1       5.586   5.041  18.318  0.00  0.00    +0.000 A 
ATOM     26  N   UNL     1       5.504   5.737  17.197  0.00  0.00    +0.000 NA
ATOM     27  C   UNL     1       6.617   5.399  16.468  0.00  0.00    +0.000 A 
ATOM     28  C   UNL     1       7.375   4.467  17.134  0.00  0.00    +0.000 A 
ATOM     29  N   UNL     1       6.737   4.285  18.326  0.00  0.00    +0.000 N 
ATOM     30  H   UNL     1       6.994   3.655  19.073  0.00  0.00    +0.000 HD
ENDBRANCH  18  25
ENDBRANCH  16  18
ENDBRANCH   4  16
TORSDOF 5
ENDMDL
MODEL 2
REMARK VINA RESULT:      -7.9      1.168      2.234
REMARK  Name = 
REMARK  7 active torsions:
REMARK  status: ('A' for Active; 'I' for Inactive)
REMARK    1  A    between atoms: C_1  and  N_2
REMARK    2  A    between atoms: C_3  and  N_4
REMARK    3  A    between atoms: C_7  and  N_8
REMARK    4  A    between atoms: N_8  and  C_9
REMARK    5  A    between atoms: C_9  and  C_10
REMARK    6  A    between atoms: C_9  and  C_16
REMARK    7  A    between atoms: N_25  and  C_26
REMARK                            x       y       z     vdW  Elec       q    Type
REMARK                         _______ _______ _______ _____ _____    ______ ____
ROOT
ATOM      1  N   UNL     1       1.811   8.515  19.680  0.00  0.00    +0.000 N 
ATOM      2  C   UNL     1       2.149   8.963  18.329  0.00  0.00    +0.000 C 
ATOM      3  C   UNL     1       2.044   7.692  17.498  0.00  0.00    +0.000 C 
ATOM      4  C   UNL     1       2.611   6.605  18.428  0.00  0.00    +0.000 C 
ATOM      5  C   UNL     1       2.039   7.062  19.803  0.00  0.00    +0.000 C 
ENDROOT
BRANCH   1   8
ATOM      6  C   UNL     1      -0.081  10.306  18.594  0.00  0.00    +0.000 C 
ATOM      7  N   UNL     1       0.060  10.130  20.030  0.00  0.00    +0.000 N 
ATOM      8  C   UNL     1       0.996   9.250  20.538  0.00  0.00    +0.000 A 
ATOM      9  C   UNL     1       1.077   9.096  21.864  0.00  0.00    +0.000 A 
ATOM     10  C   UNL     1       0.186   9.843  22.781  0.00  0.00    +0.000 A 
ATOM     11  O   UNL     1       0.282   9.648  23.987  0.00  0.00    +0.000 OA
ATOM     12  N   UNL     1      -0.707  10.705  22.190  0.00  0.00    +0.000 N 
ATOM     13  C   UNL     1      -1.638  11.453  23.016  0.00  0.00    +0.000 C 
ATOM     14  C   UNL     1      -0.800  10.890  20.820  0.00  0.00    +0.000 A 
ATOM     15  O   UNL     1      -1.609  11.681  20.326  0.00  0.00    +0.000 OA
ENDBRANCH   1   8
BRANCH   4  16
ATOM     16  N   UNL     1       4.087   6.601  18.303  0.00  0.00    +0.000 NA
ATOM     17  H   UNL     1       4.463   7.070  19.129  0.00  0.00    +0.000 HD
BRANCH  16  18
ATOM     18  C   UNL     1       4.720   5.250  18.284  0.00  0.00    +0.000 C 
BRANCH  18  19
ATOM     19  C   UNL     1       3.739   4.111  18.542  0.00  0.00    +0.000 A 
ATOM     20  C   UNL     1       3.480   3.646  19.842  0.00  0.00    +0.000 A 
ATOM     21  C   UNL     1       2.678   2.522  20.053  0.00  0.00    +0.000 A 
ATOM     22  C   UNL     1       2.093   1.866  18.973  0.00  0.00    +0.000 A 
ATOM     23  C   UNL     1       2.269   2.363  17.684  0.00  0.00    +0.000 A 
ATOM     24  C   UNL     1       3.084   3.479  17.469  0.00  0.00    +0.000 A 
ENDBRANCH  18  19
BRANCH  18  25
ATOM     25  C   UNL     1       5.450   5.077  16.965  0.00  0.00    +0.000 A 
ATOM     26  N   UNL     1       5.230   5.712  15.827  0.00  0.00    +0.000 NA
ATOM     27  C   UNL     1       6.069   5.131  14.909  0.00  0.00    +0.000 A 
ATOM     28  C   UNL     1       6.790   4.111  15.481  0.00  0.00    +0.000 A 
ATOM     29  N   UNL     1       6.424   4.119  16.796  0.00  0.00    +0.000 N 
ATOM     30  H   UNL     1       6.737   3.495  17.527  0.00  0.00    +0.000 HD
ENDBRANCH  18  25
ENDBRANCH  16  18
ENDBRANCH   4  16
TORSDOF 5
ENDMDL
MODEL 3
REMARK VINA RESULT:      -7.9      0.659      1.810
REMARK  Name = 
REMARK  7 active torsions:
REMARK  status: ('A' for Active; 'I' for Inactive)
REMARK    1  A    between atoms: C_1  and  N_2
REMARK    2  A    between atoms: C_3  and  N_4
REMARK    3  A    between atoms: C_7  and  N_8
REMARK    4  A    between atoms: N_8  and  C_9
REMARK    5  A    between atoms: C_9  and  C_10
REMARK    6  A    between atoms: C_9  and  C_16
REMARK    7  A    between atoms: N_25  and  C_26
REMARK                            x       y       z     vdW  Elec       q    Type
REMARK                         _______ _______ _______ _____ _____    ______ ____
ROOT
ATOM      1  N   UNL     1       1.517   8.844  19.756  0.00  0.00    +0.000 N 
ATOM      2  C   UNL     1       2.180   8.889  18.453  0.00  0.00    +0.000 C 
ATOM      3  C   UNL     1       2.172   7.435  18.002  0.00  0.00    +0.000 C 
ATOM      4  C   UNL     1       2.436   6.653  19.301  0.00  0.00    +0.000 C 
ATOM      5  C   UNL     1       1.606   7.485  20.323  0.00  0.00    +0.000 C 
ENDROOT
BRANCH   1   8
ATOM      6  C   UNL     1      -0.374   9.813  17.898  0.00  0.00    +0.000 C 
ATOM      7  N   UNL     1      -0.352  10.283  19.273  0.00  0.00    +0.000 N 
ATOM      8  C   UNL     1       0.586   9.797  20.164  0.00  0.00    +0.000 A 
ATOM      9  C   UNL     1       0.557  10.236  21.426  0.00  0.00    +0.000 A 
ATOM     10  C   UNL     1      -0.456  11.218  21.877  0.00  0.00    +0.000 A 
ATOM     11  O   UNL     1      -0.456  11.569  23.051  0.00  0.00    +0.000 OA
ATOM     12  N   UNL     1      -1.342  11.655  20.922  0.00  0.00    +0.000 N 
ATOM     13  C   UNL     1      -2.386  12.596  21.288  0.00  0.00    +0.000 C 
ATOM     14  C   UNL     1      -1.323  11.226  19.605  0.00  0.00    +0.000 A 
ATOM     15  O   UNL     1      -2.130  11.650  18.773  0.00  0.00    +0.000 OA
ENDBRANCH   1   8
BRANCH   4  16
ATOM     16  N   UNL     1       3.899   6.604  19.532  0.00  0.00    +0.000 NA
ATOM     17  H   UNL     1       4.067   6.942  20.482  0.00  0.00    +0.000 HD
BRANCH  16  18
ATOM     18  C   UNL     1       4.507   5.243  19.474  0.00  0.00    +0.000 C 
BRANCH  18  19
ATOM     19  C   UNL     1       3.508   4.140  19.139  0.00  0.00    +0.000 A 
ATOM     20  C   UNL     1       3.254   3.758  17.812  0.00  0.00    +0.000 A 
ATOM     21  C   UNL     1       2.247   2.837  17.513  0.00  0.00    +0.000 A 
ATOM     22  C   UNL     1       1.503   2.256  18.536  0.00  0.00    +0.000 A 
ATOM     23  C   UNL     1       1.797   2.558  19.863  0.00  0.00    +0.000 A 
ATOM     24  C   UNL     1       2.794   3.492  20.164  0.00  0.00    +0.000 A 
ENDBRANCH  18  19
BRANCH  18  25
ATOM     25  C   UNL     1       5.664   5.272  18.494  0.00  0.00    +0.000 A 
ATOM     26  N   UNL     1       5.873   6.131  17.511  0.00  0.00    +0.000 NA
ATOM     27  C   UNL     1       6.987   5.675  16.850  0.00  0.00    +0.000 A 
ATOM     28  C   UNL     1       7.449   4.511  17.414  0.00  0.00    +0.000 A 
ATOM     29  N   UNL     1       6.632   4.293  18.485  0.00  0.00    +0.000 N 
ATOM     30  H   UNL     1       6.656   3.516  19.132  0.00  0.00    +0.000 HD
ENDBRANCH  18  25
ENDBRANCH  16  18
ENDBRANCH   4  16
TORSDOF 5
ENDMDL
MODEL 4
REMARK VINA RESULT:      -7.8      2.285      4.427
REMARK  Name = 
REMARK  7 active torsions:
REMARK  status: ('A' for Active; 'I' for Inactive)
REMARK    1  A    between atoms: C_1  and  N_2
REMARK    2  A    between atoms: C_3  and  N_4
REMARK    3  A    between atoms: C_7  and  N_8
REMARK    4  A    between atoms: N_8  and  C_9
REMARK    5  A    between atoms: C_9  and  C_10
REMARK    6  A    between atoms: C_9  and  C_16
REMARK    7  A    between atoms: N_25  and  C_26
REMARK                            x       y       z     vdW  Elec       q    Type
REMARK                         _______ _______ _______ _____ _____    ______ ____
ROOT
ATOM      1  N   UNL     1       2.761   6.297  18.194  0.00  0.00    +0.000 N 
ATOM      2  C   UNL     1       1.988   5.146  17.724  0.00  0.00    +0.000 C 
ATOM      3  C   UNL     1       2.852   3.956  18.119  0.00  0.00    +0.000 C 
ATOM      4  C   UNL     1       4.286   4.448  17.859  0.00  0.00    +0.000 C 
ATOM      5  C   UNL     1       4.183   5.929  18.333  0.00  0.00    +0.000 C 
ENDROOT
BRANCH   1   8
ATOM      6  C   UNL     1       1.984   6.088  20.899  0.00  0.00    +0.000 C 
ATOM      7  N   UNL     1       1.791   7.317  20.148  0.00  0.00    +0.000 N 
ATOM      8  C   UNL     1       2.176   7.393  18.822  0.00  0.00    +0.000 A 
ATOM      9  C   UNL     1       2.005   8.549  18.173  0.00  0.00    +0.000 A 
ATOM     10  C   UNL     1       1.422   9.733  18.847  0.00  0.00    +0.000 A 
ATOM     11  O   UNL     1       1.310  10.776  18.214  0.00  0.00    +0.000 OA
ATOM     12  N   UNL     1       1.058   9.563  20.161  0.00  0.00    +0.000 N 
ATOM     13  C   UNL     1       0.506  10.682  20.903  0.00  0.00    +0.000 C 
ATOM     14  C   UNL     1       1.212   8.372  20.850  0.00  0.00    +0.000 A 
ATOM     15  O   UNL     1       0.863   8.254  22.029  0.00  0.00    +0.000 OA
ENDBRANCH   1   8
BRANCH   4  16
ATOM     16  N   UNL     1       4.603   4.241  16.427  0.00  0.00    +0.000 NA
ATOM     17  H   UNL     1       4.320   5.087  15.929  0.00  0.00    +0.000 HD
BRANCH  16  18
ATOM     18  C   UNL     1       6.050   4.055  16.116  0.00  0.00    +0.000 C 
BRANCH  18  19
ATOM     19  C   UNL     1       6.383   4.204  14.636  0.00  0.00    +0.000 A 
ATOM     20  C   UNL     1       5.657   3.521  13.647  0.00  0.00    +0.000 A 
ATOM     21  C   UNL     1       6.051   3.567  12.308  0.00  0.00    +0.000 A 
ATOM     22  C   UNL     1       7.156   4.325  11.929  0.00  0.00    +0.000 A 
ATOM     23  C   UNL     1       7.837   5.078  12.882  0.00  0.00    +0.000 A 
ATOM     24  C   UNL     1       7.454   5.021  14.226  0.00  0.00    +0.000 A 
ENDBRANCH  18  19
BRANCH  18  25
ATOM     25  C   UNL     1       6.854   5.014  16.974  0.00  0.00    +0.000 A 
ATOM     26  N   UNL     1       7.498   4.752  18.098  0.00  0.00    +0.000 NA
ATOM     27  C   UNL     1       7.974   5.960  18.544  0.00  0.00    +0.000 A 
ATOM     28  C   UNL     1       7.596   6.976  17.702  0.00  0.00    +0.000 A 
ATOM     29  N   UNL     1       6.929   6.358  16.685  0.00  0.00    +0.000 N 
ATOM     30  H   UNL     1       6.487   6.789  15.885  0.00  0.00    +0.000 HD
ENDBRANCH  18  25
ENDBRANCH  16  18
ENDBRANCH   4  16
TORSDOF 5
ENDMDL
MODEL 5
REMARK VINA RESULT:      -7.8      1.809      3.081
REMARK  Name = 
REMARK  7 active torsions:
REMARK  status: ('A' for Active; 'I' for Inactive)
REMARK    1  A    between atoms: C_1  and  N_2
REMARK    2  A    between atoms: C_3  and  N_4
REMARK    3  A    between atoms: C_7  and  N_8
REMARK    4  A    between atoms: N_8  and  C_9
REMARK    5  A    between atoms: C_9  and  C_10
REMARK    6  A    between atoms: C_9  and  C_16
REMARK    7  A    between atoms: N_25  and  C_26
REMARK                            x       y       z     vdW  Elec       q    Type
REMARK                         _______ _______ _______ _____ _____    ______ ____
ROOT
ATOM      1  N   UNL     1      -0.071   9.827  19.225  0.00  0.00    +0.000 N 
ATOM      2  C   UNL     1       0.342   8.855  20.238  0.00  0.00    +0.000 C 
ATOM      3  C   UNL     1       1.862   8.896  20.168  0.00  0.00    +0.000 C 
ATOM      4  C   UNL     1       2.151   9.048  18.664  0.00  0.00    +0.000 C 
ATOM      5  C   UNL     1       1.011  10.022  18.240  0.00  0.00    +0.000 C 
ENDROOT
BRANCH   1   8
ATOM      6  C   UNL     1      -2.218   9.885  17.394  0.00  0.00    +0.000 C 
ATOM      7  N   UNL     1      -2.178  10.773  18.544  0.00  0.00    +0.000 N 
ATOM      8  C   UNL     1      -1.114  10.729  19.424  0.00  0.00    +0.000 A 
ATOM      9  C   UNL     1      -1.126  11.544  20.484  0.00  0.00    +0.000 A 
ATOM     10  C   UNL     1      -2.251  12.476  20.725  0.00  0.00    +0.000 A 
ATOM     11  O   UNL     1      -2.227  13.184  21.725  0.00  0.00    +0.000 OA
ATOM     12  N   UNL     1      -3.261  12.461  19.793  0.00  0.00    +0.000 N 
ATOM     13  C   UNL     1      -4.415  13.323  19.971  0.00  0.00    +0.000 C 
ATOM     14  C   UNL     1      -3.263  11.636  18.680  0.00  0.00    +0.000 A 
ATOM     15  O   UNL     1      -4.185  11.658  17.858  0.00  0.00    +0.000 OA
ENDBRANCH   1   8
BRANCH   4  16
ATOM     16  N   UNL     1       2.128   7.704  18.041  0.00  0.00    +0.000 NA
ATOM     17  H   UNL     1       2.545   7.794  17.113  0.00  0.00    +0.000 HD
BRANCH  16  18
ATOM     18  C   UNL     1       2.933   6.664  18.746  0.00  0.00    +0.000 C 
BRANCH  18  19
ATOM     19  C   UNL     1       2.153   5.390  19.052  0.00  0.00    +0.000 A 
ATOM     20  C   UNL     1       1.746   5.074  20.358  0.00  0.00    +0.000 A 
ATOM     21  C   UNL     1       1.144   3.845  20.643  0.00  0.00    +0.000 A 
ATOM     22  C   UNL     1       0.906   2.929  19.622  0.00  0.00    +0.000 A 
ATOM     23  C   UNL     1       1.225   3.260  18.307  0.00  0.00    +0.000 A 
ATOM     24  C   UNL     1       1.842   4.482  18.023  0.00  0.00    +0.000 A 
ENDBRANCH  18  19
BRANCH  18  25
ATOM     25  C   UNL     1       4.178   6.380  17.927  0.00  0.00    +0.000 A 
ATOM     26  N   UNL     1       4.444   6.773  16.694  0.00  0.00    +0.000 NA
ATOM     27  C   UNL     1       5.635   6.176  16.363  0.00  0.00    +0.000 A 
ATOM     28  C   UNL     1       6.089   5.386  17.391  0.00  0.00    +0.000 A 
ATOM     29  N   UNL     1       5.182   5.563  18.394  0.00  0.00    +0.000 N 
ATOM     30  H   UNL     1       5.177   5.125  19.305  0.00  0.00    +0.000 HD
ENDBRANCH  18  25
ENDBRANCH  16  18
ENDBRANCH   4  16
TORSDOF 5
ENDMDL
MODEL 6
REMARK VINA RESULT:      -7.8      2.140      4.409
REMARK  Name = 
REMARK  7 active torsions:
REMARK  status: ('A' for Active; 'I' for Inactive)
REMARK    1  A    between atoms: C_1  and  N_2
REMARK    2  A    between atoms: C_3  and  N_4
REMARK    3  A    between atoms: C_7  and  N_8
REMARK    4  A    between atoms: N_8  and  C_9
REMARK    5  A    between atoms: C_9  and  C_10
REMARK    6  A    between atoms: C_9  and  C_16
REMARK    7  A    between atoms: N_25  and  C_26
REMARK                            x       y       z     vdW  Elec       q    Type
REMARK                         _______ _______ _______ _____ _____    ______ ____
ROOT
ATOM      1  N   UNL     1       2.591   6.744  18.670  0.00  0.00    +0.000 N 
ATOM      2  C   UNL     1       1.856   5.624  18.082  0.00  0.00    +0.000 C 
ATOM      3  C   UNL     1       2.748   4.425  18.373  0.00  0.00    +0.000 C 
ATOM      4  C   UNL     1       4.171   4.978  18.181  0.00  0.00    +0.000 C 
ATOM      5  C   UNL     1       4.021   6.402  18.793  0.00  0.00    +0.000 C 
ENDROOT
BRANCH   1   8
ATOM      6  C   UNL     1       2.014   9.195  17.395  0.00  0.00    +0.000 C 
ATOM      7  N   UNL     1       1.672   8.966  18.789  0.00  0.00    +0.000 N 
ATOM      8  C   UNL     1       1.968   7.759  19.393  0.00  0.00    +0.000 A 
ATOM      9  C   UNL     1       1.615   7.578  20.669  0.00  0.00    +0.000 A 
ATOM     10  C   UNL     1       0.915   8.638  21.432  0.00  0.00    +0.000 A 
ATOM     11  O   UNL     1       0.589   8.412  22.592  0.00  0.00    +0.000 OA
ATOM     12  N   UNL     1       0.671   9.809  20.757  0.00  0.00    +0.000 N 
ATOM     13  C   UNL     1      -0.037  10.888  21.423  0.00  0.00    +0.000 C 
ATOM     14  C   UNL     1       1.040  10.025  19.439  0.00  0.00    +0.000 A 
ATOM     15  O   UNL     1       0.812  11.096  18.869  0.00  0.00    +0.000 OA
ENDBRANCH   1   8
BRANCH   4  16
ATOM     16  N   UNL     1       4.509   4.918  16.740  0.00  0.00    +0.000 NA
ATOM     17  H   UNL     1       4.312   5.839  16.344  0.00  0.00    +0.000 HD
BRANCH  16  18
ATOM     18  C   UNL     1       5.944   4.645  16.434  0.00  0.00    +0.000 C 
BRANCH  18  19
ATOM     19  C   UNL     1       6.239   4.520  14.944  0.00  0.00    +0.000 A 
ATOM     20  C   UNL     1       5.409   3.776  14.090  0.00  0.00    +0.000 A 
ATOM     21  C   UNL     1       5.760   3.566  12.754  0.00  0.00    +0.000 A 
ATOM     22  C   UNL     1       6.927   4.125  12.240  0.00  0.00    +0.000 A 
ATOM     23  C   UNL     1       7.719   4.936  13.049  0.00  0.00    +0.000 A 
ATOM     24  C   UNL     1       7.378   5.135  14.390  0.00  0.00    +0.000 A 
ENDBRANCH  18  19
BRANCH  18  25
ATOM     25  C   UNL     1       6.789   5.722  17.088  0.00  0.00    +0.000 A 
ATOM     26  N   UNL     1       7.588   5.602  18.134  0.00  0.00    +0.000 NA
ATOM     27  C   UNL     1       8.039   6.870  18.404  0.00  0.00    +0.000 A 
ATOM     28  C   UNL     1       7.491   7.781  17.534  0.00  0.00    +0.000 A 
ATOM     29  N   UNL     1       6.739   7.034  16.675  0.00  0.00    +0.000 N 
ATOM     30  H   UNL     1       6.171   7.363  15.907  0.00  0.00    +0.000 HD
ENDBRANCH  18  25
ENDBRANCH  16  18
ENDBRANCH   4  16
TORSDOF 5
ENDMDL
MODEL 7
REMARK VINA RESULT:      -7.8      3.304      8.455
REMARK  Name = 
REMARK  7 active torsions:
REMARK  status: ('A' for Active; 'I' for Inactive)
REMARK    1  A    between atoms: C_1  and  N_2
REMARK    2  A    between atoms: C_3  and  N_4
REMARK    3  A    between atoms: C_7  and  N_8
REMARK    4  A    between atoms: N_8  and  C_9
REMARK    5  A    between atoms: C_9  and  C_10
REMARK    6  A    between atoms: C_9  and  C_16
REMARK    7  A    between atoms: N_25  and  C_26
REMARK                            x       y       z     vdW  Elec       q    Type
REMARK                         _______ _______ _______ _____ _____    ______ ____
ROOT
ATOM      1  N   UNL     1       2.138   6.838  19.323  0.00  0.00    +0.000 N 
ATOM      2  C   UNL     1       1.990   7.483  18.019  0.00  0.00    +0.000 C 
ATOM      3  C   UNL     1       2.196   8.959  18.329  0.00  0.00    +0.000 C 
ATOM      4  C   UNL     1       1.500   9.143  19.689  0.00  0.00    +0.000 C 
ATOM      5  C   UNL     1       1.884   7.812  20.402  0.00  0.00    +0.000 C 
ENDROOT
BRANCH   1   8
ATOM      6  C   UNL     1       0.782   4.583  20.346  0.00  0.00    +0.000 C 
ATOM      7  N   UNL     1       2.191   4.526  19.995  0.00  0.00    +0.000 N 
ATOM      8  C   UNL     1       2.834   5.645  19.500  0.00  0.00    +0.000 A 
ATOM      9  C   UNL     1       4.124   5.544  19.165  0.00  0.00    +0.000 A 
ATOM     10  C   UNL     1       4.861   4.268  19.311  0.00  0.00    +0.000 A 
ATOM     11  O   UNL     1       6.036   4.221  18.966  0.00  0.00    +0.000 OA
ATOM     12  N   UNL     1       4.146   3.211  19.822  0.00  0.00    +0.000 N 
ATOM     13  C   UNL     1       4.786   1.916  19.970  0.00  0.00    +0.000 C 
ATOM     14  C   UNL     1       2.813   3.294  20.189  0.00  0.00    +0.000 A 
ATOM     15  O   UNL     1       2.206   2.325  20.654  0.00  0.00    +0.000 OA
ENDBRANCH   1   8
BRANCH   4  16
ATOM     16  N   UNL     1       0.054   9.364  19.453  0.00  0.00    +0.000 NA
ATOM     17  H   UNL     1      -0.423   9.233  20.347  0.00  0.00    +0.000 HD
BRANCH  16  18
ATOM     18  C   UNL     1      -0.312  10.737  18.997  0.00  0.00    +0.000 C 
BRANCH  18  19
ATOM     19  C   UNL     1      -1.602  10.788  18.185  0.00  0.00    +0.000 A 
ATOM     20  C   UNL     1      -2.658  11.644  18.537  0.00  0.00    +0.000 A 
ATOM     21  C   UNL     1      -3.879  11.590  17.861  0.00  0.00    +0.000 A 
ATOM     22  C   UNL     1      -4.053  10.706  16.799  0.00  0.00    +0.000 A 
ATOM     23  C   UNL     1      -2.990   9.910  16.380  0.00  0.00    +0.000 A 
ATOM     24  C   UNL     1      -1.772   9.952  17.066  0.00  0.00    +0.000 A 
ENDBRANCH  18  19
BRANCH  18  25
ATOM     25  C   UNL     1      -0.372  11.647  20.208  0.00  0.00    +0.000 A 
ATOM     26  N   UNL     1       0.091  12.880  20.321  0.00  0.00    +0.000 NA
ATOM     27  C   UNL     1      -0.107  13.234  21.632  0.00  0.00    +0.000 A 
ATOM     28  C   UNL     1      -0.670  12.199  22.338  0.00  0.00    +0.000 A 
ATOM     29  N   UNL     1      -0.879  11.218  21.414  0.00  0.00    +0.000 N 
ATOM     30  H   UNL     1      -1.264  10.296  21.569  0.00  0.00    +0.000 HD
ENDBRANCH  18  25
ENDBRANCH  16  18
ENDBRANCH   4  16
TORSDOF 5
ENDMDL
MODEL 8
REMARK VINA RESULT:      -7.7      0.771      2.177
REMARK  Name = 
REMARK  7 active torsions:
REMARK  status: ('A' for Active; 'I' for Inactive)
REMARK    1  A    between atoms: C_1  and  N_2
REMARK    2  A    between atoms: C_3  and  N_4
REMARK    3  A    between atoms: C_7  and  N_8
REMARK    4  A    between atoms: N_8  and  C_9
REMARK    5  A    between atoms: C_9  and  C_10
REMARK    6  A    between atoms: C_9  and  C_16
REMARK    7  A    between atoms: N_25  and  C_26
REMARK                            x       y       z     vdW  Elec       q    Type
REMARK                         _______ _______ _______ _____ _____    ______ ____
ROOT
ATOM      1  N   UNL     1       1.436   9.067  19.729  0.00  0.00    +0.000 N 
ATOM      2  C   UNL     1       2.231   9.177  18.506  0.00  0.00    +0.000 C 
ATOM      3  C   UNL     1       2.195   7.766  17.934  0.00  0.00    +0.000 C 
ATOM      4  C   UNL     1       2.283   6.868  19.181  0.00  0.00    +0.000 C 
ATOM      5  C   UNL     1       1.395   7.664  20.183  0.00  0.00    +0.000 C 
ENDROOT
BRANCH   1   8
ATOM      6  C   UNL     1      -0.540   9.923  17.905  0.00  0.00    +0.000 C 
ATOM      7  N   UNL     1      -0.461  10.471  19.249  0.00  0.00    +0.000 N 
ATOM      8  C   UNL     1       0.519  10.039  20.123  0.00  0.00    +0.000 A 
ATOM      9  C   UNL     1       0.543  10.548  21.358  0.00  0.00    +0.000 A 
ATOM     10  C   UNL     1      -0.455  11.551  21.798  0.00  0.00    +0.000 A 
ATOM     11  O   UNL     1      -0.406  11.968  22.949  0.00  0.00    +0.000 OA
ATOM     12  N   UNL     1      -1.385  11.931  20.860  0.00  0.00    +0.000 N 
ATOM     13  C   UNL     1      -2.417  12.888  21.218  0.00  0.00    +0.000 C 
ATOM     14  C   UNL     1      -1.421  11.428  19.570  0.00  0.00    +0.000 A 
ATOM     15  O   UNL     1      -2.267  11.802  18.751  0.00  0.00    +0.000 OA
ENDBRANCH   1   8
BRANCH   4  16
ATOM     16  N   UNL     1       3.709   6.714  19.550  0.00  0.00    +0.000 NA
ATOM     17  H   UNL     1       3.816   7.070  20.502  0.00  0.00    +0.000 HD
BRANCH  16  18
ATOM     18  C   UNL     1       4.208   5.308  19.587  0.00  0.00    +0.000 C 
BRANCH  18  19
ATOM     19  C   UNL     1       3.126   4.268  19.315  0.00  0.00    +0.000 A 
ATOM     20  C   UNL     1       2.171   3.930  20.287  0.00  0.00    +0.000 A 
ATOM     21  C   UNL     1       1.266   2.888  20.071  0.00  0.00    +0.000 A 
ATOM     22  C   UNL     1       1.277   2.190  18.866  0.00  0.00    +0.000 A 
ATOM     23  C   UNL     1       2.160   2.566  17.857  0.00  0.00    +0.000 A 
ATOM     24  C   UNL     1       3.077   3.599  18.077  0.00  0.00    +0.000 A 
ENDBRANCH  18  19
BRANCH  18  25
ATOM     25  C   UNL     1       5.367   5.181  18.617  0.00  0.00    +0.000 A 
ATOM     26  N   UNL     1       6.427   4.398  18.718  0.00  0.00    +0.000 NA
ATOM     27  C   UNL     1       7.233   4.725  17.656  0.00  0.00    +0.000 A 
ATOM     28  C   UNL     1       6.678   5.738  16.913  0.00  0.00    +0.000 A 
ATOM     29  N   UNL     1       5.473   5.985  17.504  0.00  0.00    +0.000 N 
ATOM     30  H   UNL     1       4.789   6.682  17.243  0.00  0.00    +0.000 HD
ENDBRANCH  18  25
ENDBRANCH  16  18
ENDBRANCH   4  16
TORSDOF 5
ENDMDL
MODEL 9
REMARK VINA RESULT:      -7.7      3.467      8.297
REMARK  Name = 
REMARK  7 active torsions:
REMARK  status: ('A' for Active; 'I' for Inactive)
REMARK    1  A    between atoms: C_1  and  N_2
REMARK    2  A    between atoms: C_3  and  N_4
REMARK    3  A    between atoms: C_7  and  N_8
REMARK    4  A    between atoms: N_8  and  C_9
REMARK    5  A    between atoms: C_9  and  C_10
REMARK    6  A    between atoms: C_9  and  C_16
REMARK    7  A    between atoms: N_25  and  C_26
REMARK                            x       y       z     vdW  Elec       q    Type
REMARK                         _______ _______ _______ _____ _____    ______ ____
ROOT
ATOM      1  N   UNL     1       2.215   6.868  19.224  0.00  0.00    +0.000 N 
ATOM      2  C   UNL     1       2.098   7.484  17.903  0.00  0.00    +0.000 C 
ATOM      3  C   UNL     1       2.355   8.959  18.177  0.00  0.00    +0.000 C 
ATOM      4  C   UNL     1       1.658   9.203  19.527  0.00  0.00    +0.000 C 
ATOM      5  C   UNL     1       1.991   7.878  20.276  0.00  0.00    +0.000 C 
ENDROOT
BRANCH   1   8
ATOM      6  C   UNL     1       0.778   4.696  20.313  0.00  0.00    +0.000 C 
ATOM      7  N   UNL     1       2.184   4.577  19.965  0.00  0.00    +0.000 N 
ATOM      8  C   UNL     1       2.868   5.655  19.437  0.00  0.00    +0.000 A 
ATOM      9  C   UNL     1       4.153   5.498  19.105  0.00  0.00    +0.000 A 
ATOM     10  C   UNL     1       4.842   4.200  19.289  0.00  0.00    +0.000 A 
ATOM     11  O   UNL     1       6.015   4.100  18.945  0.00  0.00    +0.000 OA
ATOM     12  N   UNL     1       4.089   3.186  19.830  0.00  0.00    +0.000 N 
ATOM     13  C   UNL     1       4.681   1.873  20.016  0.00  0.00    +0.000 C 
ATOM     14  C   UNL     1       2.761   3.329  20.194  0.00  0.00    +0.000 A 
ATOM     15  O   UNL     1       2.119   2.396  20.688  0.00  0.00    +0.000 OA
ENDBRANCH   1   8
BRANCH   4  16
ATOM     16  N   UNL     1       0.223   9.470  19.275  0.00  0.00    +0.000 NA
ATOM     17  H   UNL     1      -0.196   9.739  20.168  0.00  0.00    +0.000 HD
BRANCH  16  18
ATOM     18  C   UNL     1      -0.060  10.597  18.340  0.00  0.00    +0.000 C 
BRANCH  18  19
ATOM     19  C   UNL     1      -1.527  10.710  17.943  0.00  0.00    +0.000 A 
ATOM     20  C   UNL     1      -2.413  11.550  18.636  0.00  0.00    +0.000 A 
ATOM     21  C   UNL     1      -3.779  11.548  18.343  0.00  0.00    +0.000 A 
ATOM     22  C   UNL     1      -4.277  10.735  17.328  0.00  0.00    +0.000 A 
ATOM     23  C   UNL     1      -3.401   9.959  16.573  0.00  0.00    +0.000 A 
ATOM     24  C   UNL     1      -2.036   9.947  16.875  0.00  0.00    +0.000 A 
ENDBRANCH  18  19
BRANCH  18  25
ATOM     25  C   UNL     1       0.457  11.880  18.962  0.00  0.00    +0.000 A 
ATOM     26  N   UNL     1       0.435  12.231  20.236  0.00  0.00    +0.000 NA
ATOM     27  C   UNL     1       0.915  13.516  20.276  0.00  0.00    +0.000 A 
ATOM     28  C   UNL     1       1.208  13.969  19.013  0.00  0.00    +0.000 A 
ATOM     29  N   UNL     1       0.960  12.907  18.194  0.00  0.00    +0.000 N 
ATOM     30  H   UNL     1       1.046  12.871  17.188  0.00  0.00    +0.000 HD
ENDBRANCH  18  25
ENDBRANCH  16  18
ENDBRANCH   4  16
TORSDOF 5
ENDMDL
