MODEL 1
REMARK VINA RESULT:      -8.0      0.000      0.000
REMARK  Name = 
REMARK  4 active torsions:
REMARK  status: ('A' for Active; 'I' for Inactive)
REMARK    1  A    between atoms: S_2  and  N_4
REMARK    2  A    between atoms: S_2  and  C_19
REMARK    3  A    between atoms: C_8  and  C_9
REMARK    4  A    between atoms: C_9  and  C_10
REMARK                            x       y       z     vdW  Elec       q    Type
REMARK                         _______ _______ _______ _____ _____    ______ ____
ROOT
ATOM      1  N   UNL     1       6.425   3.804  16.092  0.00  0.00    +0.000 N 
ATOM      2  C   UNL     1       5.605   4.246  17.164  0.00  0.00    +0.000 A 
ATOM      3  N   UNL     1       6.158   4.561  18.311  0.00  0.00    +0.000 NA
ATOM      4  N   UNL     1       5.207   4.838  19.277  0.00  0.00    +0.000 NA
ATOM      5  C   UNL     1       3.977   4.717  18.815  0.00  0.00    +0.000 A 
ATOM      6  S   UNL     1       3.901   4.220  17.170  0.00  0.00    +0.000 S 
ATOM      7  H   UNL     1       7.370   3.737  16.478  0.00  0.00    +0.000 HD
ENDROOT
BRANCH   1   9
ATOM      8  O   UNL     1       5.457   5.945  14.993  0.00  0.00    +0.000 OA
ATOM      9  S   UNL     1       6.495   4.951  14.851  0.00  0.00    +0.000 S 
ATOM     10  O   UNL     1       7.890   5.324  14.727  0.00  0.00    +0.000 OA
BRANCH   9  11
ATOM     11  C   UNL     1       6.084   3.956  13.438  0.00  0.00    +0.000 A 
ATOM     12  C   UNL     1       4.752   3.881  13.017  0.00  0.00    +0.000 A 
ATOM     13  C   UNL     1       4.441   3.170  11.857  0.00  0.00    +0.000 A 
ATOM     14  C   UNL     1       5.450   2.549  11.124  0.00  0.00    +0.000 A 
ATOM     15  C   UNL     1       6.778   2.629  11.547  0.00  0.00    +0.000 A 
ATOM     16  C   UNL     1       7.101   3.337  12.703  0.00  0.00    +0.000 A 
ENDBRANCH   9  11
ENDBRANCH   1   9
BRANCH   5  17
ATOM     17  C   UNL     1       2.735   4.982  19.702  0.00  0.00    +0.000 C 
ATOM     18  C   UNL     1       2.535   4.176  20.989  0.00  0.00    +0.000 C 
ATOM     19  C   UNL     1       1.702   3.862  19.789  0.00  0.00    +0.000 C 
BRANCH  17  20
ATOM     20  C   UNL     1       2.199   6.409  19.669  0.00  0.00    +0.000 A 
ATOM     21  C   UNL     1       1.619   7.022  20.794  0.00  0.00    +0.000 A 
ATOM     22  C   UNL     1       1.249   8.366  20.779  0.00  0.00    +0.000 A 
ATOM     23  C   UNL     1       1.439   9.131  19.630  0.00  0.00    +0.000 A 
ATOM     24  C   UNL     1       1.962   8.539  18.489  0.00  0.00    +0.000 A 
ATOM     25  C   UNL     1       2.325   7.192  18.502  0.00  0.00    +0.000 A 
ENDBRANCH  17  20
ENDBRANCH   5  17
TORSDOF 4
ENDMDL
MODEL 2
REMARK VINA RESULT:      -7.9      0.262      1.416
REMARK  Name = 
REMARK  4 active torsions:
REMARK  status: ('A' for Active; 'I' for Inactive)
REMARK    1  A    between atoms: S_2  and  N_4
REMARK    2  A    between atoms: S_2  and  C_19
REMARK    3  A    between atoms: C_8  and  C_9
REMARK    4  A    between atoms: C_9  and  C_10
REMARK                            x       y       z     vdW  Elec       q    Type
REMARK                         _______ _______ _______ _____ _____    ______ ____
ROOT
ATOM      1  N   UNL     1       6.664   3.973  15.969  0.00  0.00    +0.000 N 
ATOM      2  C   UNL     1       5.799   4.404  17.009  0.00  0.00    +0.000 A 
ATOM      3  N   UNL     1       6.307   4.768  18.162  0.00  0.00    +0.000 NA
ATOM      4  N   UNL     1       5.321   5.025  19.096  0.00  0.00    +0.000 NA
ATOM      5  C   UNL     1       4.110   4.843  18.606  0.00  0.00    +0.000 A 
ATOM      6  S   UNL     1       4.098   4.307  16.971  0.00  0.00    +0.000 S 
ATOM      7  H   UNL     1       7.601   3.955  16.380  0.00  0.00    +0.000 HD
ENDROOT
BRANCH   1   9
ATOM      8  O   UNL     1       5.721   6.125  14.868  0.00  0.00    +0.000 OA
ATOM      9  S   UNL     1       6.720   5.095  14.704  0.00  0.00    +0.000 S 
ATOM     10  O   UNL     1       8.120   5.420  14.516  0.00  0.00    +0.000 OA
BRANCH   9  11
ATOM     11  C   UNL     1       6.220   4.088  13.328  0.00  0.00    +0.000 A 
ATOM     12  C   UNL     1       7.188   3.370  12.617  0.00  0.00    +0.000 A 
ATOM     13  C   UNL     1       6.786   2.513  11.591  0.00  0.00    +0.000 A 
ATOM     14  C   UNL     1       5.434   2.371  11.286  0.00  0.00    +0.000 A 
ATOM     15  C   UNL     1       4.473   3.087  12.000  0.00  0.00    +0.000 A 
ATOM     16  C   UNL     1       4.861   3.945  13.028  0.00  0.00    +0.000 A 
ENDBRANCH   9  11
ENDBRANCH   1   9
BRANCH   5  17
ATOM     17  C   UNL     1       2.834   5.076  19.454  0.00  0.00    +0.000 C 
ATOM     18  C   UNL     1       2.529   4.149  20.635  0.00  0.00    +0.000 C 
ATOM     19  C   UNL     1       1.749   4.006  19.369  0.00  0.00    +0.000 C 
BRANCH  17  20
ATOM     20  C   UNL     1       2.366   6.523  19.550  0.00  0.00    +0.000 A 
ATOM     21  C   UNL     1       2.432   7.410  18.462  0.00  0.00    +0.000 A 
ATOM     22  C   UNL     1       1.885   8.691  18.535  0.00  0.00    +0.000 A 
ATOM     23  C   UNL     1       1.265   9.122  19.705  0.00  0.00    +0.000 A 
ATOM     24  C   UNL     1       1.230   8.284  20.812  0.00  0.00    +0.000 A 
ATOM     25  C   UNL     1       1.785   7.007  20.742  0.00  0.00    +0.000 A 
ENDBRANCH  17  20
ENDBRANCH   5  17
TORSDOF 4
ENDMDL
MODEL 3
REMARK VINA RESULT:      -7.9      0.838      1.578
REMARK  Name = 
REMARK  4 active torsions:
REMARK  status: ('A' for Active; 'I' for Inactive)
REMARK    1  A    between atoms: S_2  and  N_4
REMARK    2  A    between atoms: S_2  and  C_19
REMARK    3  A    between atoms: C_8  and  C_9
REMARK    4  A    between atoms: C_9  and  C_10
REMARK                            x       y       z     vdW  Elec       q    Type
REMARK                         _______ _______ _______ _____ _____    ______ ____
ROOT
ATOM      1  N   UNL     1       5.963   4.049  16.415  0.00  0.00    +0.000 N 
ATOM      2  C   UNL     1       5.181   4.425  17.539  0.00  0.00    +0.000 A 
ATOM      3  N   UNL     1       5.711   4.378  18.738  0.00  0.00    +0.000 NA
ATOM      4  N   UNL     1       4.775   4.644  19.721  0.00  0.00    +0.000 NA
ATOM      5  C   UNL     1       3.577   4.878  19.218  0.00  0.00    +0.000 A 
ATOM      6  S   UNL     1       3.509   4.754  17.504  0.00  0.00    +0.000 S 
ATOM      7  H   UNL     1       6.849   3.711  16.797  0.00  0.00    +0.000 HD
ENDROOT
BRANCH   1   9
ATOM      8  O   UNL     1       5.255   6.338  15.419  0.00  0.00    +0.000 OA
ATOM      9  S   UNL     1       6.340   5.385  15.448  0.00  0.00    +0.000 S 
ATOM     10  O   UNL     1       7.686   5.779  15.813  0.00  0.00    +0.000 OA
BRANCH   9  11
ATOM     11  C   UNL     1       6.426   4.634  13.840  0.00  0.00    +0.000 A 
ATOM     12  C   UNL     1       7.497   4.945  12.995  0.00  0.00    +0.000 A 
ATOM     13  C   UNL     1       7.611   4.291  11.767  0.00  0.00    +0.000 A 
ATOM     14  C   UNL     1       6.671   3.333  11.394  0.00  0.00    +0.000 A 
ATOM     15  C   UNL     1       5.607   3.024  12.242  0.00  0.00    +0.000 A 
ATOM     16  C   UNL     1       5.482   3.669  13.471  0.00  0.00    +0.000 A 
ENDBRANCH   9  11
ENDBRANCH   1   9
BRANCH   5  17
ATOM     17  C   UNL     1       2.359   5.210  20.115  0.00  0.00    +0.000 C 
ATOM     18  C   UNL     1       2.091   4.375  21.371  0.00  0.00    +0.000 C 
ATOM     19  C   UNL     1       1.238   4.175  20.161  0.00  0.00    +0.000 C 
BRANCH  17  20
ATOM     20  C   UNL     1       1.941   6.676  20.138  0.00  0.00    +0.000 A 
ATOM     21  C   UNL     1       2.231   7.558  19.082  0.00  0.00    +0.000 A 
ATOM     22  C   UNL     1       1.732   8.861  19.067  0.00  0.00    +0.000 A 
ATOM     23  C   UNL     1       0.939   9.319  20.116  0.00  0.00    +0.000 A 
ATOM     24  C   UNL     1       0.679   8.486  21.195  0.00  0.00    +0.000 A 
ATOM     25  C   UNL     1       1.184   7.186  21.215  0.00  0.00    +0.000 A 
ENDBRANCH  17  20
ENDBRANCH   5  17
TORSDOF 4
ENDMDL
MODEL 4
REMARK VINA RESULT:      -7.9      0.299      1.020
REMARK  Name = 
REMARK  4 active torsions:
REMARK  status: ('A' for Active; 'I' for Inactive)
REMARK    1  A    between atoms: S_2  and  N_4
REMARK    2  A    between atoms: S_2  and  C_19
REMARK    3  A    between atoms: C_8  and  C_9
REMARK    4  A    between atoms: C_9  and  C_10
REMARK                            x       y       z     vdW  Elec       q    Type
REMARK                         _______ _______ _______ _____ _____    ______ ____
ROOT
ATOM      1  N   UNL     1       6.294   3.903  16.232  0.00  0.00    +0.000 N 
ATOM      2  C   UNL     1       5.478   4.353  17.303  0.00  0.00    +0.000 A 
ATOM      3  N   UNL     1       6.015   4.550  18.483  0.00  0.00    +0.000 NA
ATOM      4  N   UNL     1       5.058   4.854  19.435  0.00  0.00    +0.000 NA
ATOM      5  C   UNL     1       3.840   4.871  18.929  0.00  0.00    +0.000 A 
ATOM      6  S   UNL     1       3.779   4.480  17.255  0.00  0.00    +0.000 S 
ATOM      7  H   UNL     1       7.215   3.730  16.641  0.00  0.00    +0.000 HD
ENDROOT
BRANCH   1   9
ATOM      8  O   UNL     1       5.507   6.142  15.186  0.00  0.00    +0.000 OA
ATOM      9  S   UNL     1       6.509   5.109  15.066  0.00  0.00    +0.000 S 
ATOM     10  O   UNL     1       7.924   5.422  15.067  0.00  0.00    +0.000 OA
BRANCH   9  11
ATOM     11  C   UNL     1       6.166   4.211  13.572  0.00  0.00    +0.000 A 
ATOM     12  C   UNL     1       7.227   3.823  12.747  0.00  0.00    +0.000 A 
ATOM     13  C   UNL     1       6.965   3.044  11.618  0.00  0.00    +0.000 A 
ATOM     14  C   UNL     1       5.661   2.653  11.325  0.00  0.00    +0.000 A 
ATOM     15  C   UNL     1       4.607   3.040  12.152  0.00  0.00    +0.000 A 
ATOM     16  C   UNL     1       4.855   3.817  13.282  0.00  0.00    +0.000 A 
ENDBRANCH   9  11
ENDBRANCH   1   9
BRANCH   5  17
ATOM     17  C   UNL     1       2.594   5.194  19.792  0.00  0.00    +0.000 C 
ATOM     18  C   UNL     1       2.368   4.444  21.108  0.00  0.00    +0.000 C 
ATOM     19  C   UNL     1       1.540   4.097  19.913  0.00  0.00    +0.000 C 
BRANCH  17  20
ATOM     20  C   UNL     1       2.085   6.628  19.697  0.00  0.00    +0.000 A 
ATOM     21  C   UNL     1       1.494   7.291  20.787  0.00  0.00    +0.000 A 
ATOM     22  C   UNL     1       1.149   8.640  20.716  0.00  0.00    +0.000 A 
ATOM     23  C   UNL     1       1.377   9.360  19.545  0.00  0.00    +0.000 A 
ATOM     24  C   UNL     1       1.913   8.718  18.438  0.00  0.00    +0.000 A 
ATOM     25  C   UNL     1       2.250   7.367  18.506  0.00  0.00    +0.000 A 
ENDBRANCH  17  20
ENDBRANCH   5  17
TORSDOF 4
ENDMDL
MODEL 5
REMARK VINA RESULT:      -7.7      4.542      6.228
REMARK  Name = 
REMARK  4 active torsions:
REMARK  status: ('A' for Active; 'I' for Inactive)
REMARK    1  A    between atoms: S_2  and  N_4
REMARK    2  A    between atoms: S_2  and  C_19
REMARK    3  A    between atoms: C_8  and  C_9
REMARK    4  A    between atoms: C_9  and  C_10
REMARK                            x       y       z     vdW  Elec       q    Type
REMARK                         _______ _______ _______ _____ _____    ______ ____
ROOT
ATOM      1  N   UNL     1       3.500   5.709  17.963  0.00  0.00    +0.000 N 
ATOM      2  C   UNL     1       2.711   6.805  18.399  0.00  0.00    +0.000 A 
ATOM      3  N   UNL     1       2.555   7.842  17.611  0.00  0.00    +0.000 NA
ATOM      4  N   UNL     1       1.876   8.867  18.244  0.00  0.00    +0.000 NA
ATOM      5  C   UNL     1       1.550   8.557  19.485  0.00  0.00    +0.000 A 
ATOM      6  S   UNL     1       2.086   6.998  19.974  0.00  0.00    +0.000 S 
ATOM      7  H   UNL     1       3.895   5.994  17.064  0.00  0.00    +0.000 HD
ENDROOT
BRANCH   1   9
ATOM      8  O   UNL     1       1.215   4.714  17.243  0.00  0.00    +0.000 OA
ATOM      9  S   UNL     1       2.549   4.344  17.653  0.00  0.00    +0.000 S 
ATOM     10  O   UNL     1       3.369   3.455  16.855  0.00  0.00    +0.000 OA
BRANCH   9  11
ATOM     11  C   UNL     1       2.425   3.635  19.278  0.00  0.00    +0.000 A 
ATOM     12  C   UNL     1       1.166   3.511  19.876  0.00  0.00    +0.000 A 
ATOM     13  C   UNL     1       1.059   2.876  21.115  0.00  0.00    +0.000 A 
ATOM     14  C   UNL     1       2.194   2.365  21.741  0.00  0.00    +0.000 A 
ATOM     15  C   UNL     1       3.446   2.489  21.139  0.00  0.00    +0.000 A 
ATOM     16  C   UNL     1       3.566   3.120  19.902  0.00  0.00    +0.000 A 
ENDBRANCH   9  11
ENDBRANCH   1   9
BRANCH   5  17
ATOM     17  C   UNL     1       0.775   9.537  20.401  0.00  0.00    +0.000 C 
ATOM     18  C   UNL     1       1.088   9.584  21.900  0.00  0.00    +0.000 C 
ATOM     19  C   UNL     1      -0.163   8.915  21.432  0.00  0.00    +0.000 C 
BRANCH  17  20
ATOM     20  C   UNL     1       0.306  10.826  19.735  0.00  0.00    +0.000 A 
ATOM     21  C   UNL     1       1.122  11.967  19.645  0.00  0.00    +0.000 A 
ATOM     22  C   UNL     1       0.721  13.092  18.925  0.00  0.00    +0.000 A 
ATOM     23  C   UNL     1      -0.515  13.108  18.283  0.00  0.00    +0.000 A 
ATOM     24  C   UNL     1      -1.362  12.014  18.398  0.00  0.00    +0.000 A 
ATOM     25  C   UNL     1      -0.965  10.893  19.125  0.00  0.00    +0.000 A 
ENDBRANCH  17  20
ENDBRANCH   5  17
TORSDOF 4
ENDMDL
MODEL 6
REMARK VINA RESULT:      -7.7      4.528      6.305
REMARK  Name = 
REMARK  4 active torsions:
REMARK  status: ('A' for Active; 'I' for Inactive)
REMARK    1  A    between atoms: S_2  and  N_4
REMARK    2  A    between atoms: S_2  and  C_19
REMARK    3  A    between atoms: C_8  and  C_9
REMARK    4  A    between atoms: C_9  and  C_10
REMARK                            x       y       z     vdW  Elec       q    Type
REMARK                         _______ _______ _______ _____ _____    ______ ____
ROOT
ATOM      1  N   UNL     1       3.564   5.587  18.071  0.00  0.00    +0.000 N 
ATOM      2  C   UNL     1       2.794   6.726  18.426  0.00  0.00    +0.000 A 
ATOM      3  N   UNL     1       2.769   7.763  17.623  0.00  0.00    +0.000 NA
ATOM      4  N   UNL     1       2.086   8.826  18.185  0.00  0.00    +0.000 NA
ATOM      5  C   UNL     1       1.627   8.544  19.389  0.00  0.00    +0.000 A 
ATOM      6  S   UNL     1       2.032   6.963  19.932  0.00  0.00    +0.000 S 
ATOM      7  H   UNL     1       4.058   5.845  17.214  0.00  0.00    +0.000 HD
ENDROOT
BRANCH   1   9
ATOM      8  O   UNL     1       1.262   4.702  17.266  0.00  0.00    +0.000 OA
ATOM      9  S   UNL     1       2.577   4.271  17.676  0.00  0.00    +0.000 S 
ATOM     10  O   UNL     1       3.383   3.400  16.845  0.00  0.00    +0.000 OA
BRANCH   9  11
ATOM     11  C   UNL     1       2.404   3.482  19.259  0.00  0.00    +0.000 A 
ATOM     12  C   UNL     1       3.543   2.993  19.908  0.00  0.00    +0.000 A 
ATOM     13  C   UNL     1       3.419   2.450  21.189  0.00  0.00    +0.000 A 
ATOM     14  C   UNL     1       2.175   2.405  21.813  0.00  0.00    +0.000 A 
ATOM     15  C   UNL     1       1.043   2.897  21.162  0.00  0.00    +0.000 A 
ATOM     16  C   UNL     1       1.153   3.442  19.884  0.00  0.00    +0.000 A 
ENDBRANCH   9  11
ENDBRANCH   1   9
BRANCH   5  17
ATOM     17  C   UNL     1       0.819   9.570  20.223  0.00  0.00    +0.000 C 
ATOM     18  C   UNL     1       1.082   9.701  21.727  0.00  0.00    +0.000 C 
ATOM     19  C   UNL     1      -0.152   9.003  21.255  0.00  0.00    +0.000 C 
BRANCH  17  20
ATOM     20  C   UNL     1       0.371  10.818  19.472  0.00  0.00    +0.000 A 
ATOM     21  C   UNL     1      -0.899  10.924  18.878  0.00  0.00    +0.000 A 
ATOM     22  C   UNL     1      -1.335  12.118  18.304  0.00  0.00    +0.000 A 
ATOM     23  C   UNL     1      -0.505  13.237  18.300  0.00  0.00    +0.000 A 
ATOM     24  C   UNL     1       0.773  13.146  18.835  0.00  0.00    +0.000 A 
ATOM     25  C   UNL     1       1.212  11.950  19.401  0.00  0.00    +0.000 A 
ENDBRANCH  17  20
ENDBRANCH   5  17
TORSDOF 4
ENDMDL
MODEL 7
REMARK VINA RESULT:      -7.7      4.537      6.477
REMARK  Name = 
REMARK  4 active torsions:
REMARK  status: ('A' for Active; 'I' for Inactive)
REMARK    1  A    between atoms: S_2  and  N_4
REMARK    2  A    between atoms: S_2  and  C_19
REMARK    3  A    between atoms: C_8  and  C_9
REMARK    4  A    between atoms: C_9  and  C_10
REMARK                            x       y       z     vdW  Elec       q    Type
REMARK                         _______ _______ _______ _____ _____    ______ ____
ROOT
ATOM      1  N   UNL     1       3.581   6.166  18.125  0.00  0.00    +0.000 N 
ATOM      2  C   UNL     1       2.759   7.319  18.233  0.00  0.00    +0.000 A 
ATOM      3  N   UNL     1       2.843   8.259  17.322  0.00  0.00    +0.000 NA
ATOM      4  N   UNL     1       2.078   9.361  17.654  0.00  0.00    +0.000 NA
ATOM      5  C   UNL     1       1.449   9.204  18.804  0.00  0.00    +0.000 A 
ATOM      6  S   UNL     1       1.782   7.704  19.576  0.00  0.00    +0.000 S 
ATOM      7  H   UNL     1       4.193   6.338  17.325  0.00  0.00    +0.000 HD
ENDROOT
BRANCH   1   9
ATOM      8  O   UNL     1       1.319   5.137  17.380  0.00  0.00    +0.000 OA
ATOM      9  S   UNL     1       2.673   4.790  17.744  0.00  0.00    +0.000 S 
ATOM     10  O   UNL     1       3.509   3.985  16.877  0.00  0.00    +0.000 OA
BRANCH   9  11
ATOM     11  C   UNL     1       2.604   3.974  19.321  0.00  0.00    +0.000 A 
ATOM     12  C   UNL     1       1.422   4.027  20.067  0.00  0.00    +0.000 A 
ATOM     13  C   UNL     1       1.338   3.315  21.266  0.00  0.00    +0.000 A 
ATOM     14  C   UNL     1       2.420   2.555  21.705  0.00  0.00    +0.000 A 
ATOM     15  C   UNL     1       3.595   2.504  20.955  0.00  0.00    +0.000 A 
ATOM     16  C   UNL     1       3.691   3.209  19.757  0.00  0.00    +0.000 A 
ENDBRANCH   9  11
ENDBRANCH   1   9
BRANCH   5  17
ATOM     17  C   UNL     1       0.520  10.297  19.390  0.00  0.00    +0.000 C 
ATOM     18  C   UNL     1       1.130  11.518  20.085  0.00  0.00    +0.000 C 
ATOM     19  C   UNL     1       0.504  10.440  20.910  0.00  0.00    +0.000 C 
BRANCH  17  20
ATOM     20  C   UNL     1      -0.810  10.483  18.669  0.00  0.00    +0.000 A 
ATOM     21  C   UNL     1      -1.715  11.504  19.009  0.00  0.00    +0.000 A 
ATOM     22  C   UNL     1      -2.866  11.734  18.257  0.00  0.00    +0.000 A 
ATOM     23  C   UNL     1      -3.149  10.938  17.149  0.00  0.00    +0.000 A 
ATOM     24  C   UNL     1      -2.299   9.891  16.821  0.00  0.00    +0.000 A 
ATOM     25  C   UNL     1      -1.152   9.656  17.577  0.00  0.00    +0.000 A 
ENDBRANCH  17  20
ENDBRANCH   5  17
TORSDOF 4
ENDMDL
MODEL 8
REMARK VINA RESULT:      -7.7      5.063      9.449
REMARK  Name = 
REMARK  4 active torsions:
REMARK  status: ('A' for Active; 'I' for Inactive)
REMARK    1  A    between atoms: S_2  and  N_4
REMARK    2  A    between atoms: S_2  and  C_19
REMARK    3  A    between atoms: C_8  and  C_9
REMARK    4  A    between atoms: C_9  and  C_10
REMARK                            x       y       z     vdW  Elec       q    Type
REMARK                         _______ _______ _______ _____ _____    ______ ____
ROOT
ATOM      1  N   UNL     1       0.191  10.324  19.462  0.00  0.00    +0.000 N 
ATOM      2  C   UNL     1       1.153   9.368  19.041  0.00  0.00    +0.000 A 
ATOM      3  N   UNL     1       1.767   9.534  17.894  0.00  0.00    +0.000 NA
ATOM      4  N   UNL     1       2.563   8.447  17.580  0.00  0.00    +0.000 NA
ATOM      5  C   UNL     1       2.513   7.508  18.506  0.00  0.00    +0.000 A 
ATOM      6  S   UNL     1       1.456   7.878  19.811  0.00  0.00    +0.000 S 
ATOM      7  H   UNL     1       0.097  10.981  18.684  0.00  0.00    +0.000 HD
ENDROOT
BRANCH   1   9
ATOM      8  O   UNL     1       1.334  10.373  21.791  0.00  0.00    +0.000 OA
ATOM      9  S   UNL     1       0.748  11.224  20.782  0.00  0.00    +0.000 S 
ATOM     10  O   UNL     1       1.472  12.349  20.225  0.00  0.00    +0.000 OA
BRANCH   9  11
ATOM     11  C   UNL     1      -0.779  11.850  21.442  0.00  0.00    +0.000 A 
ATOM     12  C   UNL     1      -1.661  12.531  20.596  0.00  0.00    +0.000 A 
ATOM     13  C   UNL     1      -2.898  12.948  21.093  0.00  0.00    +0.000 A 
ATOM     14  C   UNL     1      -3.248  12.680  22.414  0.00  0.00    +0.000 A 
ATOM     15  C   UNL     1      -2.366  11.998  23.252  0.00  0.00    +0.000 A 
ATOM     16  C   UNL     1      -1.129  11.575  22.768  0.00  0.00    +0.000 A 
ENDBRANCH   9  11
ENDBRANCH   1   9
BRANCH   5  17
ATOM     17  C   UNL     1       3.325   6.194  18.390  0.00  0.00    +0.000 C 
ATOM     18  C   UNL     1       4.855   6.238  18.465  0.00  0.00    +0.000 C 
ATOM     19  C   UNL     1       4.190   6.031  17.142  0.00  0.00    +0.000 C 
BRANCH  17  20
ATOM     20  C   UNL     1       2.627   4.943  18.909  0.00  0.00    +0.000 A 
ATOM     21  C   UNL     1       2.642   4.581  20.268  0.00  0.00    +0.000 A 
ATOM     22  C   UNL     1       1.894   3.503  20.741  0.00  0.00    +0.000 A 
ATOM     23  C   UNL     1       1.119   2.750  19.862  0.00  0.00    +0.000 A 
ATOM     24  C   UNL     1       1.125   3.054  18.508  0.00  0.00    +0.000 A 
ATOM     25  C   UNL     1       1.879   4.127  18.033  0.00  0.00    +0.000 A 
ENDBRANCH  17  20
ENDBRANCH   5  17
TORSDOF 4
ENDMDL
MODEL 9
REMARK VINA RESULT:      -7.6      5.059      9.463
REMARK  Name = 
REMARK  4 active torsions:
REMARK  status: ('A' for Active; 'I' for Inactive)
REMARK    1  A    between atoms: S_2  and  N_4
REMARK    2  A    between atoms: S_2  and  C_19
REMARK    3  A    between atoms: C_8  and  C_9
REMARK    4  A    between atoms: C_9  and  C_10
REMARK                            x       y       z     vdW  Elec       q    Type
REMARK                         _______ _______ _______ _____ _____    ______ ____
ROOT
ATOM      1  N   UNL     1       0.950  10.623  20.198  0.00  0.00    +0.000 N 
ATOM      2  C   UNL     1       1.286   9.264  19.967  0.00  0.00    +0.000 A 
ATOM      3  N   UNL     1       1.201   8.402  20.952  0.00  0.00    +0.000 NA
ATOM      4  N   UNL     1       1.693   7.161  20.589  0.00  0.00    +0.000 NA
ATOM      5  C   UNL     1       2.129   7.143  19.344  0.00  0.00    +0.000 A 
ATOM      6  S   UNL     1       1.999   8.659  18.542  0.00  0.00    +0.000 S 
ATOM      7  H   UNL     1       0.760  10.694  21.201  0.00  0.00    +0.000 HD
ENDROOT
BRANCH   1   9
ATOM      8  O   UNL     1      -0.270  12.124  18.469  0.00  0.00    +0.000 OA
ATOM      9  S   UNL     1      -0.485  11.050  19.410  0.00  0.00    +0.000 S 
ATOM     10  O   UNL     1      -1.109   9.805  19.010  0.00  0.00    +0.000 OA
BRANCH   9  11
ATOM     11  C   UNL     1      -1.436  11.711  20.757  0.00  0.00    +0.000 A 
ATOM     12  C   UNL     1      -2.582  12.464  20.481  0.00  0.00    +0.000 A 
ATOM     13  C   UNL     1      -3.377  12.911  21.538  0.00  0.00    +0.000 A 
ATOM     14  C   UNL     1      -3.033  12.601  22.853  0.00  0.00    +0.000 A 
ATOM     15  C   UNL     1      -1.891  11.847  23.122  0.00  0.00    +0.000 A 
ATOM     16  C   UNL     1      -1.090  11.394  22.075  0.00  0.00    +0.000 A 
ENDBRANCH   9  11
ENDBRANCH   1   9
BRANCH   5  17
ATOM     17  C   UNL     1       2.720   5.865  18.697  0.00  0.00    +0.000 C 
ATOM     18  C   UNL     1       1.832   4.978  17.819  0.00  0.00    +0.000 C 
ATOM     19  C   UNL     1       2.180   4.529  19.201  0.00  0.00    +0.000 C 
BRANCH  17  20
ATOM     20  C   UNL     1       4.207   5.924  18.368  0.00  0.00    +0.000 A 
ATOM     21  C   UNL     1       4.708   6.647  17.271  0.00  0.00    +0.000 A 
ATOM     22  C   UNL     1       6.079   6.789  17.061  0.00  0.00    +0.000 A 
ATOM     23  C   UNL     1       6.987   6.202  17.938  0.00  0.00    +0.000 A 
ATOM     24  C   UNL     1       6.521   5.440  19.001  0.00  0.00    +0.000 A 
ATOM     25  C   UNL     1       5.150   5.290  19.207  0.00  0.00    +0.000 A 
ENDBRANCH  17  20
ENDBRANCH   5  17
TORSDOF 4
ENDMDL
