MODEL 1
REMARK VINA RESULT:      -9.2      0.000      0.000
REMARK  Name = 
REMARK  5 active torsions:
REMARK  status: ('A' for Active; 'I' for Inactive)
REMARK    1  A    between atoms: C_1  and  S_2
REMARK    2  A    between atoms: S_2  and  C_5
REMARK    3  A    between atoms: N_13  and  C_14
REMARK    4  A    between atoms: C_18  and  N_19
REMARK    5  A    between atoms: N_19  and  C_20
REMARK                            x       y       z     vdW  Elec       q    Type
REMARK                         _______ _______ _______ _____ _____    ______ ____
ROOT
ATOM      1  C   UNL     1       4.817   4.738  17.074  0.00  0.00    +0.000 A 
ATOM      2  C   UNL     1       4.464   3.394  17.001  0.00  0.00    +0.000 A 
ATOM      3  C   UNL     1       3.472   2.907  17.855  0.00  0.00    +0.000 A 
ATOM      4  C   UNL     1       2.817   3.721  18.771  0.00  0.00    +0.000 A 
ATOM      5  N   UNL     1       1.858   3.183  19.525  0.00  0.00    +0.000 NA
ATOM      6  C   UNL     1       1.213   4.006  20.357  0.00  0.00    +0.000 A 
ATOM      7  N   UNL     1       1.434   5.317  20.494  0.00  0.00    +0.000 NA
ATOM      8  C   UNL     1       2.411   5.851  19.740  0.00  0.00    +0.000 A 
ATOM      9  N   UNL     1       2.666   7.239  19.845  0.00  0.00    +0.000 N 
ATOM     10  C   UNL     1       3.176   5.078  18.844  0.00  0.00    +0.000 A 
ATOM     11  C   UNL     1       4.198   5.579  18.002  0.00  0.00    +0.000 A 
ATOM     12  H   UNL     1       3.589   7.406  20.229  0.00  0.00    +0.000 HD
ENDROOT
BRANCH   9  13
ATOM     13  C   UNL     1       1.731   8.257  20.134  0.00  0.00    +0.000 A 
ATOM     14  C   UNL     1       1.260   8.475  21.434  0.00  0.00    +0.000 A 
ATOM     15  C   UNL     1       0.208   9.359  21.673  0.00  0.00    +0.000 A 
ATOM     16  C   UNL     1      -0.367  10.054  20.610  0.00  0.00    +0.000 A 
ATOM     17  C   UNL     1       0.131   9.921  19.310  0.00  0.00    +0.000 A 
ATOM     18  C   UNL     1       1.145   8.981  19.082  0.00  0.00    +0.000 A 
BRANCH  17  19
ATOM     19  N   UNL     1      -0.521  10.629  18.287  0.00  0.00    +0.000 N 
ATOM     20  H   UNL     1      -0.353  11.626  18.422  0.00  0.00    +0.000 HD
BRANCH  19  21
ATOM     21  C   UNL     1      -1.931  10.346  18.024  0.00  0.00    +0.000 C 
ATOM     22  C   UNL     1      -2.166   9.958  16.563  0.00  0.00    +0.000 C 
ATOM     23  C   UNL     1      -3.554  10.478  16.199  0.00  0.00    +0.000 C 
ATOM     24  C   UNL     1      -3.991  11.394  17.336  0.00  0.00    +0.000 C 
ATOM     25  C   UNL     1      -2.752  11.624  18.186  0.00  0.00    +0.000 C 
ENDBRANCH  19  21
ENDBRANCH  17  19
ENDBRANCH   9  13
BRANCH   1  27
ATOM     26  C   UNL     1       6.185   4.149  14.723  0.00  0.00    +0.000 C 
ATOM     27  S   UNL     1       6.063   5.385  15.990  0.00  0.00    +0.000 S 
ATOM     28  O   UNL     1       7.315   5.407  16.726  0.00  0.00    +0.000 OA
ATOM     29  O   UNL     1       5.530   6.597  15.397  0.00  0.00    +0.000 OA
ENDBRANCH   1  27
TORSDOF 4
ENDMDL
MODEL 2
REMARK VINA RESULT:      -8.4      1.831      2.496
REMARK  Name = 
REMARK  5 active torsions:
REMARK  status: ('A' for Active; 'I' for Inactive)
REMARK    1  A    between atoms: C_1  and  S_2
REMARK    2  A    between atoms: S_2  and  C_5
REMARK    3  A    between atoms: N_13  and  C_14
REMARK    4  A    between atoms: C_18  and  N_19
REMARK    5  A    between atoms: N_19  and  C_20
REMARK                            x       y       z     vdW  Elec       q    Type
REMARK                         _______ _______ _______ _____ _____    ______ ____
ROOT
ATOM      1  C   UNL     1       5.092   4.773  17.279  0.00  0.00    +0.000 A 
ATOM      2  C   UNL     1       4.713   3.472  16.964  0.00  0.00    +0.000 A 
ATOM      3  C   UNL     1       3.596   2.920  17.597  0.00  0.00    +0.000 A 
ATOM      4  C   UNL     1       2.846   3.629  18.526  0.00  0.00    +0.000 A 
ATOM      5  N   UNL     1       1.774   3.038  19.057  0.00  0.00    +0.000 NA
ATOM      6  C   UNL     1       1.044   3.768  19.907  0.00  0.00    +0.000 A 
ATOM      7  N   UNL     1       1.284   5.033  20.263  0.00  0.00    +0.000 NA
ATOM      8  C   UNL     1       2.372   5.619  19.732  0.00  0.00    +0.000 A 
ATOM      9  N   UNL     1       2.651   6.964  20.072  0.00  0.00    +0.000 N 
ATOM     10  C   UNL     1       3.231   4.942  18.844  0.00  0.00    +0.000 A 
ATOM     11  C   UNL     1       4.375   5.504  18.229  0.00  0.00    +0.000 A 
ATOM     12  H   UNL     1       3.516   7.029  20.596  0.00  0.00    +0.000 HD
ENDROOT
BRANCH   9  13
ATOM     13  C   UNL     1       1.717   7.977  20.380  0.00  0.00    +0.000 A 
ATOM     14  C   UNL     1       0.839   7.863  21.464  0.00  0.00    +0.000 A 
ATOM     15  C   UNL     1      -0.194   8.782  21.645  0.00  0.00    +0.000 A 
ATOM     16  C   UNL     1      -0.343   9.842  20.752  0.00  0.00    +0.000 A 
ATOM     17  C   UNL     1       0.563  10.031  19.702  0.00  0.00    +0.000 A 
ATOM     18  C   UNL     1       1.555   9.061  19.501  0.00  0.00    +0.000 A 
BRANCH  17  19
ATOM     19  N   UNL     1       0.328  11.102  18.825  0.00  0.00    +0.000 N 
ATOM     20  H   UNL     1       0.844  10.935  17.961  0.00  0.00    +0.000 HD
BRANCH  19  21
ATOM     21  C   UNL     1       0.514  12.467  19.315  0.00  0.00    +0.000 C 
ATOM     22  C   UNL     1      -0.633  13.383  18.883  0.00  0.00    +0.000 C 
ATOM     23  C   UNL     1      -0.022  14.767  18.683  0.00  0.00    +0.000 C 
ATOM     24  C   UNL     1       1.491  14.590  18.722  0.00  0.00    +0.000 C 
ATOM     25  C   UNL     1       1.737  13.092  18.646  0.00  0.00    +0.000 C 
ENDBRANCH  19  21
ENDBRANCH  17  19
ENDBRANCH   9  13
BRANCH   1  27
ATOM     26  C   UNL     1       6.820   6.949  17.453  0.00  0.00    +0.000 C 
ATOM     27  S   UNL     1       6.497   5.503  16.478  0.00  0.00    +0.000 S 
ATOM     28  O   UNL     1       6.073   5.930  15.156  0.00  0.00    +0.000 OA
ATOM     29  O   UNL     1       7.608   4.583  16.639  0.00  0.00    +0.000 OA
ENDBRANCH   1  27
TORSDOF 4
ENDMDL
MODEL 3
REMARK VINA RESULT:      -8.3      0.893      1.255
REMARK  Name = 
REMARK  5 active torsions:
REMARK  status: ('A' for Active; 'I' for Inactive)
REMARK    1  A    between atoms: C_1  and  S_2
REMARK    2  A    between atoms: S_2  and  C_5
REMARK    3  A    between atoms: N_13  and  C_14
REMARK    4  A    between atoms: C_18  and  N_19
REMARK    5  A    between atoms: N_19  and  C_20
REMARK                            x       y       z     vdW  Elec       q    Type
REMARK                         _______ _______ _______ _____ _____    ______ ____
ROOT
ATOM      1  C   UNL     1       4.660   4.549  17.219  0.00  0.00    +0.000 A 
ATOM      2  C   UNL     1       4.237   3.228  17.105  0.00  0.00    +0.000 A 
ATOM      3  C   UNL     1       3.182   2.783  17.905  0.00  0.00    +0.000 A 
ATOM      4  C   UNL     1       2.534   3.617  18.806  0.00  0.00    +0.000 A 
ATOM      5  N   UNL     1       1.513   3.120  19.507  0.00  0.00    +0.000 NA
ATOM      6  C   UNL     1       0.877   3.965  20.326  0.00  0.00    +0.000 A 
ATOM      7  N   UNL     1       1.164   5.258  20.497  0.00  0.00    +0.000 NA
ATOM      8  C   UNL     1       2.202   5.750  19.796  0.00  0.00    +0.000 A 
ATOM      9  N   UNL     1       2.528   7.119  19.939  0.00  0.00    +0.000 N 
ATOM     10  C   UNL     1       2.962   4.950  18.921  0.00  0.00    +0.000 A 
ATOM     11  C   UNL     1       4.047   5.407  18.134  0.00  0.00    +0.000 A 
ATOM     12  H   UNL     1       3.440   7.228  20.365  0.00  0.00    +0.000 HD
ENDROOT
BRANCH   9  13
ATOM     13  C   UNL     1       1.638   8.184  20.206  0.00  0.00    +0.000 A 
ATOM     14  C   UNL     1       0.843   8.206  21.358  0.00  0.00    +0.000 A 
ATOM     15  C   UNL     1      -0.155   9.166  21.516  0.00  0.00    +0.000 A 
ATOM     16  C   UNL     1      -0.351  10.132  20.530  0.00  0.00    +0.000 A 
ATOM     17  C   UNL     1       0.477  10.188  19.404  0.00  0.00    +0.000 A 
ATOM     18  C   UNL     1       1.432   9.176  19.233  0.00  0.00    +0.000 A 
BRANCH  17  19
ATOM     19  N   UNL     1       0.198  11.169  18.439  0.00  0.00    +0.000 N 
ATOM     20  H   UNL     1       0.378  12.087  18.846  0.00  0.00    +0.000 HD
BRANCH  19  21
ATOM     21  C   UNL     1      -1.086  11.126  17.742  0.00  0.00    +0.000 C 
ATOM     22  C   UNL     1      -2.196  11.788  18.560  0.00  0.00    +0.000 C 
ATOM     23  C   UNL     1      -3.479  11.026  18.237  0.00  0.00    +0.000 C 
ATOM     24  C   UNL     1      -3.065   9.776  17.471  0.00  0.00    +0.000 C 
ATOM     25  C   UNL     1      -1.556   9.677  17.617  0.00  0.00    +0.000 C 
ENDBRANCH  19  21
ENDBRANCH  17  19
ENDBRANCH   9  13
BRANCH   1  27
ATOM     26  C   UNL     1       7.432   4.803  17.174  0.00  0.00    +0.000 C 
ATOM     27  S   UNL     1       5.987   5.142  16.202  0.00  0.00    +0.000 S 
ATOM     28  O   UNL     1       5.842   6.583  16.090  0.00  0.00    +0.000 OA
ATOM     29  O   UNL     1       6.026   4.307  15.016  0.00  0.00    +0.000 OA
ENDBRANCH   1  27
TORSDOF 4
ENDMDL
MODEL 4
REMARK VINA RESULT:      -8.3      1.672      2.178
REMARK  Name = 
REMARK  5 active torsions:
REMARK  status: ('A' for Active; 'I' for Inactive)
REMARK    1  A    between atoms: C_1  and  S_2
REMARK    2  A    between atoms: S_2  and  C_5
REMARK    3  A    between atoms: N_13  and  C_14
REMARK    4  A    between atoms: C_18  and  N_19
REMARK    5  A    between atoms: N_19  and  C_20
REMARK                            x       y       z     vdW  Elec       q    Type
REMARK                         _______ _______ _______ _____ _____    ______ ____
ROOT
ATOM      1  C   UNL     1       4.825   4.619  17.138  0.00  0.00    +0.000 A 
ATOM      2  C   UNL     1       4.449   3.292  16.950  0.00  0.00    +0.000 A 
ATOM      3  C   UNL     1       3.419   2.764  17.731  0.00  0.00    +0.000 A 
ATOM      4  C   UNL     1       2.750   3.520  18.685  0.00  0.00    +0.000 A 
ATOM      5  N   UNL     1       1.755   2.947  19.364  0.00  0.00    +0.000 NA
ATOM      6  C   UNL     1       1.098   3.719  20.236  0.00  0.00    +0.000 A 
ATOM      7  N   UNL     1       1.340   5.010  20.480  0.00  0.00    +0.000 NA
ATOM      8  C   UNL     1       2.353   5.578  19.802  0.00  0.00    +0.000 A 
ATOM      9  N   UNL     1       2.631   6.948  20.022  0.00  0.00    +0.000 N 
ATOM     10  C   UNL     1       3.132   4.859  18.875  0.00  0.00    +0.000 A 
ATOM     11  C   UNL     1       4.192   5.399  18.107  0.00  0.00    +0.000 A 
ATOM     12  H   UNL     1       3.544   7.064  20.447  0.00  0.00    +0.000 HD
ENDROOT
BRANCH   9  13
ATOM     13  C   UNL     1       1.708   7.962  20.358  0.00  0.00    +0.000 A 
ATOM     14  C   UNL     1       0.900   7.873  21.498  0.00  0.00    +0.000 A 
ATOM     15  C   UNL     1      -0.128   8.788  21.717  0.00  0.00    +0.000 A 
ATOM     16  C   UNL     1      -0.342   9.821  20.805  0.00  0.00    +0.000 A 
ATOM     17  C   UNL     1       0.495   9.987  19.697  0.00  0.00    +0.000 A 
ATOM     18  C   UNL     1       1.482   9.020  19.462  0.00  0.00    +0.000 A 
BRANCH  17  19
ATOM     19  N   UNL     1       0.196  11.031  18.806  0.00  0.00    +0.000 N 
ATOM     20  H   UNL     1       0.896  11.037  18.065  0.00  0.00    +0.000 HD
BRANCH  19  21
ATOM     21  C   UNL     1      -0.040  12.370  19.345  0.00  0.00    +0.000 C 
ATOM     22  C   UNL     1      -0.555  13.328  18.269  0.00  0.00    +0.000 C 
ATOM     23  C   UNL     1      -0.003  14.706  18.624  0.00  0.00    +0.000 C 
ATOM     24  C   UNL     1       1.039  14.494  19.715  0.00  0.00    +0.000 C 
ATOM     25  C   UNL     1       1.288  12.995  19.769  0.00  0.00    +0.000 C 
ENDBRANCH  19  21
ENDBRANCH  17  19
ENDBRANCH   9  13
BRANCH   1  27
ATOM     26  C   UNL     1       5.947   4.479  14.594  0.00  0.00    +0.000 C 
ATOM     27  S   UNL     1       6.121   5.318  16.147  0.00  0.00    +0.000 S 
ATOM     28  O   UNL     1       7.386   4.922  16.740  0.00  0.00    +0.000 OA
ATOM     29  O   UNL     1       5.801   6.720  15.950  0.00  0.00    +0.000 OA
ENDBRANCH   1  27
TORSDOF 4
ENDMDL
MODEL 5
REMARK VINA RESULT:      -8.2      1.987      3.057
REMARK  Name = 
REMARK  5 active torsions:
REMARK  status: ('A' for Active; 'I' for Inactive)
REMARK    1  A    between atoms: C_1  and  S_2
REMARK    2  A    between atoms: S_2  and  C_5
REMARK    3  A    between atoms: N_13  and  C_14
REMARK    4  A    between atoms: C_18  and  N_19
REMARK    5  A    between atoms: N_19  and  C_20
REMARK                            x       y       z     vdW  Elec       q    Type
REMARK                         _______ _______ _______ _____ _____    ______ ____
ROOT
ATOM      1  C   UNL     1       4.843   5.107  16.924  0.00  0.00    +0.000 A 
ATOM      2  C   UNL     1       4.721   3.749  17.200  0.00  0.00    +0.000 A 
ATOM      3  C   UNL     1       3.878   3.342  18.237  0.00  0.00    +0.000 A 
ATOM      4  C   UNL     1       3.150   4.247  18.998  0.00  0.00    +0.000 A 
ATOM      5  N   UNL     1       2.342   3.772  19.947  0.00  0.00    +0.000 NA
ATOM      6  C   UNL     1       1.616   4.667  20.624  0.00  0.00    +0.000 A 
ATOM      7  N   UNL     1       1.619   5.989  20.430  0.00  0.00    +0.000 NA
ATOM      8  C   UNL     1       2.445   6.464  19.480  0.00  0.00    +0.000 A 
ATOM      9  N   UNL     1       2.465   7.857  19.234  0.00  0.00    +0.000 N 
ATOM     10  C   UNL     1       3.276   5.619  18.719  0.00  0.00    +0.000 A 
ATOM     11  C   UNL     1       4.146   6.046  17.687  0.00  0.00    +0.000 A 
ATOM     12  H   UNL     1       3.367   8.250  19.476  0.00  0.00    +0.000 HD
ENDROOT
BRANCH   9  13
ATOM     13  C   UNL     1       1.390   8.762  19.369  0.00  0.00    +0.000 A 
ATOM     14  C   UNL     1       0.690   9.244  18.256  0.00  0.00    +0.000 A 
ATOM     15  C   UNL     1      -0.244  10.270  18.391  0.00  0.00    +0.000 A 
ATOM     16  C   UNL     1      -0.505  10.808  19.650  0.00  0.00    +0.000 A 
ATOM     17  C   UNL     1       0.117  10.298  20.794  0.00  0.00    +0.000 A 
ATOM     18  C   UNL     1       1.098   9.311  20.629  0.00  0.00    +0.000 A 
BRANCH  17  19
ATOM     19  N   UNL     1      -0.173  10.913  22.022  0.00  0.00    +0.000 N 
ATOM     20  H   UNL     1      -0.349  10.188  22.717  0.00  0.00    +0.000 HD
BRANCH  19  21
ATOM     21  C   UNL     1      -1.190  11.963  22.061  0.00  0.00    +0.000 C 
ATOM     22  C   UNL     1      -0.587  13.319  22.434  0.00  0.00    +0.000 C 
ATOM     23  C   UNL     1      -1.663  14.063  23.220  0.00  0.00    +0.000 C 
ATOM     24  C   UNL     1      -2.755  13.049  23.538  0.00  0.00    +0.000 C 
ATOM     25  C   UNL     1      -2.172  11.688  23.198  0.00  0.00    +0.000 C 
ENDBRANCH  19  21
ENDBRANCH  17  19
ENDBRANCH   9  13
BRANCH   1  27
ATOM     26  C   UNL     1       5.860   4.286  14.466  0.00  0.00    +0.000 C 
ATOM     27  S   UNL     1       5.896   5.648  15.601  0.00  0.00    +0.000 S 
ATOM     28  O   UNL     1       7.242   5.762  16.133  0.00  0.00    +0.000 OA
ATOM     29  O   UNL     1       5.247   6.785  14.975  0.00  0.00    +0.000 OA
ENDBRANCH   1  27
TORSDOF 4
ENDMDL
MODEL 6
REMARK VINA RESULT:      -8.2      1.057      1.400
REMARK  Name = 
REMARK  5 active torsions:
REMARK  status: ('A' for Active; 'I' for Inactive)
REMARK    1  A    between atoms: C_1  and  S_2
REMARK    2  A    between atoms: S_2  and  C_5
REMARK    3  A    between atoms: N_13  and  C_14
REMARK    4  A    between atoms: C_18  and  N_19
REMARK    5  A    between atoms: N_19  and  C_20
REMARK                            x       y       z     vdW  Elec       q    Type
REMARK                         _______ _______ _______ _____ _____    ______ ____
ROOT
ATOM      1  C   UNL     1       5.645   5.386  17.595  0.00  0.00    +0.000 A 
ATOM      2  C   UNL     1       5.341   4.185  16.962  0.00  0.00    +0.000 A 
ATOM      3  C   UNL     1       4.111   3.575  17.222  0.00  0.00    +0.000 A 
ATOM      4  C   UNL     1       3.176   4.131  18.086  0.00  0.00    +0.000 A 
ATOM      5  N   UNL     1       2.012   3.501  18.251  0.00  0.00    +0.000 NA
ATOM      6  C   UNL     1       1.116   4.091  19.048  0.00  0.00    +0.000 A 
ATOM      7  N   UNL     1       1.275   5.256  19.682  0.00  0.00    +0.000 NA
ATOM      8  C   UNL     1       2.455   5.881  19.521  0.00  0.00    +0.000 A 
ATOM      9  N   UNL     1       2.657   7.125  20.164  0.00  0.00    +0.000 N 
ATOM     10  C   UNL     1       3.486   5.344  18.725  0.00  0.00    +0.000 A 
ATOM     11  C   UNL     1       4.739   5.959  18.490  0.00  0.00    +0.000 A 
ATOM     12  H   UNL     1       3.385   7.052  20.864  0.00  0.00    +0.000 HD
ENDROOT
BRANCH   9  13
ATOM     13  C   UNL     1       1.681   8.104  20.452  0.00  0.00    +0.000 A 
ATOM     14  C   UNL     1       1.102   8.216  21.722  0.00  0.00    +0.000 A 
ATOM     15  C   UNL     1       0.016   9.062  21.939  0.00  0.00    +0.000 A 
ATOM     16  C   UNL     1      -0.487   9.827  20.888  0.00  0.00    +0.000 A 
ATOM     17  C   UNL     1       0.115   9.800  19.625  0.00  0.00    +0.000 A 
ATOM     18  C   UNL     1       1.164   8.896  19.412  0.00  0.00    +0.000 A 
BRANCH  17  19
ATOM     19  N   UNL     1      -0.469  10.573  18.609  0.00  0.00    +0.000 N 
ATOM     20  H   UNL     1      -0.240  11.553  18.772  0.00  0.00    +0.000 HD
BRANCH  19  21
ATOM     21  C   UNL     1      -1.889  10.388  18.311  0.00  0.00    +0.000 C 
ATOM     22  C   UNL     1      -2.103   9.840  16.899  0.00  0.00    +0.000 C 
ATOM     23  C   UNL     1      -3.419  10.435  16.405  0.00  0.00    +0.000 C 
ATOM     24  C   UNL     1      -3.809  11.522  17.397  0.00  0.00    +0.000 C 
ATOM     25  C   UNL     1      -2.588  11.745  18.274  0.00  0.00    +0.000 C 
ENDBRANCH  19  21
ENDBRANCH  17  19
ENDBRANCH   9  13
BRANCH   1  27
ATOM     26  C   UNL     1       6.778   7.912  17.306  0.00  0.00    +0.000 C 
ATOM     27  S   UNL     1       7.194   6.188  17.269  0.00  0.00    +0.000 S 
ATOM     28  O   UNL     1       7.588   5.843  15.915  0.00  0.00    +0.000 OA
ATOM     29  O   UNL     1       8.069   5.903  18.392  0.00  0.00    +0.000 OA
ENDBRANCH   1  27
TORSDOF 4
ENDMDL
MODEL 7
REMARK VINA RESULT:      -8.2      0.947      1.080
REMARK  Name = 
REMARK  5 active torsions:
REMARK  status: ('A' for Active; 'I' for Inactive)
REMARK    1  A    between atoms: C_1  and  S_2
REMARK    2  A    between atoms: S_2  and  C_5
REMARK    3  A    between atoms: N_13  and  C_14
REMARK    4  A    between atoms: C_18  and  N_19
REMARK    5  A    between atoms: N_19  and  C_20
REMARK                            x       y       z     vdW  Elec       q    Type
REMARK                         _______ _______ _______ _____ _____    ______ ____
ROOT
ATOM      1  C   UNL     1       4.287   5.377  17.015  0.00  0.00    +0.000 A 
ATOM      2  C   UNL     1       3.897   4.060  16.787  0.00  0.00    +0.000 A 
ATOM      3  C   UNL     1       2.968   3.471  17.648  0.00  0.00    +0.000 A 
ATOM      4  C   UNL     1       2.413   4.157  18.721  0.00  0.00    +0.000 A 
ATOM      5  N   UNL     1       1.507   3.530  19.473  0.00  0.00    +0.000 NA
ATOM      6  C   UNL     1       0.955   4.237  20.464  0.00  0.00    +0.000 A 
ATOM      7  N   UNL     1       1.219   5.512  20.761  0.00  0.00    +0.000 NA
ATOM      8  C   UNL     1       2.142   6.135  20.007  0.00  0.00    +0.000 A 
ATOM      9  N   UNL     1       2.438   7.491  20.281  0.00  0.00    +0.000 N 
ATOM     10  C   UNL     1       2.809   5.486  18.950  0.00  0.00    +0.000 A 
ATOM     11  C   UNL     1       3.769   6.086  18.100  0.00  0.00    +0.000 A 
ATOM     12  H   UNL     1       3.394   7.591  20.602  0.00  0.00    +0.000 HD
ENDROOT
BRANCH   9  13
ATOM     13  C   UNL     1       1.556   8.471  20.788  0.00  0.00    +0.000 A 
ATOM     14  C   UNL     1       1.426   8.702  22.162  0.00  0.00    +0.000 A 
ATOM     15  C   UNL     1       0.426   9.540  22.653  0.00  0.00    +0.000 A 
ATOM     16  C   UNL     1      -0.442  10.176  21.766  0.00  0.00    +0.000 A 
ATOM     17  C   UNL     1      -0.291  10.030  20.383  0.00  0.00    +0.000 A 
ATOM     18  C   UNL     1       0.679   9.134  19.914  0.00  0.00    +0.000 A 
BRANCH  17  19
ATOM     19  N   UNL     1      -1.224  10.676  19.555  0.00  0.00    +0.000 N 
ATOM     20  H   UNL     1      -2.133  10.663  20.016  0.00  0.00    +0.000 HD
BRANCH  19  21
ATOM     21  C   UNL     1      -1.318  10.273  18.153  0.00  0.00    +0.000 C 
ATOM     22  C   UNL     1      -1.479  11.481  17.228  0.00  0.00    +0.000 C 
ATOM     23  C   UNL     1      -2.346  11.014  16.062  0.00  0.00    +0.000 C 
ATOM     24  C   UNL     1      -2.907   9.652  16.449  0.00  0.00    +0.000 C 
ATOM     25  C   UNL     1      -2.606   9.482  17.930  0.00  0.00    +0.000 C 
ENDBRANCH  19  21
ENDBRANCH  17  19
ENDBRANCH   9  13
BRANCH   1  27
ATOM     26  C   UNL     1       5.922   4.843  14.826  0.00  0.00    +0.000 C 
ATOM     27  S   UNL     1       5.454   6.153  15.927  0.00  0.00    +0.000 S 
ATOM     28  O   UNL     1       6.615   6.518  16.719  0.00  0.00    +0.000 OA
ATOM     29  O   UNL     1       4.730   7.155  15.166  0.00  0.00    +0.000 OA
ENDBRANCH   1  27
TORSDOF 4
ENDMDL
MODEL 8
REMARK VINA RESULT:      -8.0      2.057      3.202
REMARK  Name = 
REMARK  5 active torsions:
REMARK  status: ('A' for Active; 'I' for Inactive)
REMARK    1  A    between atoms: C_1  and  S_2
REMARK    2  A    between atoms: S_2  and  C_5
REMARK    3  A    between atoms: N_13  and  C_14
REMARK    4  A    between atoms: C_18  and  N_19
REMARK    5  A    between atoms: N_19  and  C_20
REMARK                            x       y       z     vdW  Elec       q    Type
REMARK                         _______ _______ _______ _____ _____    ______ ____
ROOT
ATOM      1  C   UNL     1       5.268   5.052  17.563  0.00  0.00    +0.000 A 
ATOM      2  C   UNL     1       5.063   3.679  17.661  0.00  0.00    +0.000 A 
ATOM      3  C   UNL     1       4.018   3.205  18.458  0.00  0.00    +0.000 A 
ATOM      4  C   UNL     1       3.169   4.059  19.150  0.00  0.00    +0.000 A 
ATOM      5  N   UNL     1       2.175   3.525  19.861  0.00  0.00    +0.000 NA
ATOM      6  C   UNL     1       1.345   4.377  20.471  0.00  0.00    +0.000 A 
ATOM      7  N   UNL     1       1.415   5.711  20.425  0.00  0.00    +0.000 NA
ATOM      8  C   UNL     1       2.427   6.243  19.716  0.00  0.00    +0.000 A 
ATOM      9  N   UNL     1       2.527   7.652  19.631  0.00  0.00    +0.000 N 
ATOM     10  C   UNL     1       3.378   5.446  19.051  0.00  0.00    +0.000 A 
ATOM     11  C   UNL     1       4.449   5.937  18.267  0.00  0.00    +0.000 A 
ATOM     12  H   UNL     1       3.368   7.980  20.090  0.00  0.00    +0.000 HD
ENDROOT
BRANCH   9  13
ATOM     13  C   UNL     1       1.465   8.584  19.643  0.00  0.00    +0.000 A 
ATOM     14  C   UNL     1       0.991   9.174  18.466  0.00  0.00    +0.000 A 
ATOM     15  C   UNL     1       0.072  10.221  18.514  0.00  0.00    +0.000 A 
ATOM     16  C   UNL     1      -0.402  10.671  19.745  0.00  0.00    +0.000 A 
ATOM     17  C   UNL     1      -0.010  10.053  20.937  0.00  0.00    +0.000 A 
ATOM     18  C   UNL     1       0.962   9.046  20.871  0.00  0.00    +0.000 A 
BRANCH  17  19
ATOM     19  N   UNL     1      -0.505  10.584  22.139  0.00  0.00    +0.000 N 
ATOM     20  H   UNL     1      -0.976   9.841  22.654  0.00  0.00    +0.000 HD
BRANCH  19  21
ATOM     21  C   UNL     1      -1.305  11.807  22.092  0.00  0.00    +0.000 C 
ATOM     22  C   UNL     1      -0.468  13.043  22.425  0.00  0.00    +0.000 C 
ATOM     23  C   UNL     1      -1.406  14.015  23.136  0.00  0.00    +0.000 C 
ATOM     24  C   UNL     1      -2.678  13.242  23.459  0.00  0.00    +0.000 C 
ATOM     25  C   UNL     1      -2.353  11.779  23.203  0.00  0.00    +0.000 C 
ENDBRANCH  19  21
ENDBRANCH  17  19
ENDBRANCH   9  13
BRANCH   1  27
ATOM     26  C   UNL     1       7.221   7.034  17.492  0.00  0.00    +0.000 C 
ATOM     27  S   UNL     1       6.579   5.678  16.545  0.00  0.00    +0.000 S 
ATOM     28  O   UNL     1       5.977   6.212  15.336  0.00  0.00    +0.000 OA
ATOM     29  O   UNL     1       7.597   4.647  16.473  0.00  0.00    +0.000 OA
ENDBRANCH   1  27
TORSDOF 4
ENDMDL
MODEL 9
REMARK VINA RESULT:      -7.9      4.819      9.070
REMARK  Name = 
REMARK  5 active torsions:
REMARK  status: ('A' for Active; 'I' for Inactive)
REMARK    1  A    between atoms: C_1  and  S_2
REMARK    2  A    between atoms: S_2  and  C_5
REMARK    3  A    between atoms: N_13  and  C_14
REMARK    4  A    between atoms: C_18  and  N_19
REMARK    5  A    between atoms: N_19  and  C_20
REMARK                            x       y       z     vdW  Elec       q    Type
REMARK                         _______ _______ _______ _____ _____    ______ ____
ROOT
ATOM      1  C   UNL     1      -2.231  12.977  21.064  0.00  0.00    +0.000 A 
ATOM      2  C   UNL     1      -3.535  13.003  20.578  0.00  0.00    +0.000 A 
ATOM      3  C   UNL     1      -3.845  12.266  19.432  0.00  0.00    +0.000 A 
ATOM      4  C   UNL     1      -2.897  11.501  18.765  0.00  0.00    +0.000 A 
ATOM      5  N   UNL     1      -3.286  10.801  17.698  0.00  0.00    +0.000 NA
ATOM      6  C   UNL     1      -2.361  10.034  17.111  0.00  0.00    +0.000 A 
ATOM      7  N   UNL     1      -1.090   9.898  17.502  0.00  0.00    +0.000 NA
ATOM      8  C   UNL     1      -0.702  10.616  18.571  0.00  0.00    +0.000 A 
ATOM      9  N   UNL     1       0.632  10.488  19.025  0.00  0.00    +0.000 N 
ATOM     10  C   UNL     1      -1.581  11.478  19.256  0.00  0.00    +0.000 A 
ATOM     11  C   UNL     1      -1.248  12.240  20.401  0.00  0.00    +0.000 A 
ATOM     12  H   UNL     1       1.134  11.361  18.912  0.00  0.00    +0.000 HD
ENDROOT
BRANCH   9  13
ATOM     13  C   UNL     1       1.452   9.340  18.949  0.00  0.00    +0.000 A 
ATOM     14  C   UNL     1       2.189   9.038  17.798  0.00  0.00    +0.000 A 
ATOM     15  C   UNL     1       2.846   7.815  17.673  0.00  0.00    +0.000 A 
ATOM     16  C   UNL     1       2.791   6.889  18.714  0.00  0.00    +0.000 A 
ATOM     17  C   UNL     1       2.130   7.190  19.910  0.00  0.00    +0.000 A 
ATOM     18  C   UNL     1       1.424   8.398  19.990  0.00  0.00    +0.000 A 
BRANCH  17  19
ATOM     19  N   UNL     1       2.091   6.195  20.899  0.00  0.00    +0.000 N 
ATOM     20  H   UNL     1       2.732   6.455  21.649  0.00  0.00    +0.000 HD
BRANCH  19  21
ATOM     21  C   UNL     1       2.257   4.798  20.501  0.00  0.00    +0.000 C 
ATOM     22  C   UNL     1       1.008   4.258  19.802  0.00  0.00    +0.000 C 
ATOM     23  C   UNL     1       0.920   2.779  20.167  0.00  0.00    +0.000 C 
ATOM     24  C   UNL     1       1.932   2.540  21.281  0.00  0.00    +0.000 C 
ATOM     25  C   UNL     1       2.375   3.918  21.744  0.00  0.00    +0.000 C 
ENDBRANCH  19  21
ENDBRANCH  17  19
ENDBRANCH   9  13
BRANCH   1  27
ATOM     26  C   UNL     1      -0.645  15.090  21.942  0.00  0.00    +0.000 C 
ATOM     27  S   UNL     1      -1.816  13.892  22.526  0.00  0.00    +0.000 S 
ATOM     28  O   UNL     1      -1.128  12.985  23.429  0.00  0.00    +0.000 OA
ATOM     29  O   UNL     1      -3.015  14.592  22.950  0.00  0.00    +0.000 OA
ENDBRANCH   1  27
TORSDOF 4
ENDMDL
