MODEL 1
REMARK VINA RESULT:      -8.9      0.000      0.000
REMARK  Name = 
REMARK  5 active torsions:
REMARK  status: ('A' for Active; 'I' for Inactive)
REMARK    1  A    between atoms: C_2  and  C_19
REMARK    2  A    between atoms: N_3  and  C_4
REMARK    3  A    between atoms: C_7  and  S_8
REMARK    4  A    between atoms: S_8  and  N_11
REMARK    5  A    between atoms: C_23  and  N_24
REMARK                            x       y       z     vdW  Elec       q    Type
REMARK                         _______ _______ _______ _____ _____    ______ ____
ROOT
ATOM      1  O   UNL     1       7.756  10.320  17.518  0.00  0.00    +0.000 OA
ATOM      2  C   UNL     1       8.639   9.980  18.303  0.00  0.00    +0.000 C 
ATOM      3  N   UNL     1       8.838   8.698  18.817  0.00  0.00    +0.000 N 
ATOM      4  H   UNL     1       9.442   8.604  19.621  0.00  0.00    +0.000 HD
ENDROOT
BRANCH   3   5
ATOM      5  C   UNL     1       8.048   7.575  18.477  0.00  0.00    +0.000 A 
ATOM      6  C   UNL     1       7.126   7.603  17.422  0.00  0.00    +0.000 A 
ATOM      7  C   UNL     1       6.242   6.552  17.200  0.00  0.00    +0.000 A 
ATOM      8  C   UNL     1       6.300   5.411  17.993  0.00  0.00    +0.000 A 
ATOM      9  C   UNL     1       7.254   5.334  19.014  0.00  0.00    +0.000 A 
ATOM     10  C   UNL     1       8.140   6.405  19.242  0.00  0.00    +0.000 A 
BRANCH   8  11
ATOM     11  S   UNL     1       4.977   4.212  17.878  0.00  0.00    +0.000 S 
ATOM     12  O   UNL     1       4.930   3.781  16.500  0.00  0.00    +0.000 OA
ATOM     13  O   UNL     1       5.190   3.257  18.949  0.00  0.00    +0.000 OA
BRANCH  11  14
ATOM     14  N   UNL     1       3.543   5.030  18.208  0.00  0.00    +0.000 NA
ATOM     15  C   UNL     1       3.364   5.731  19.496  0.00  0.00    +0.000 C 
ATOM     16  C   UNL     1       2.597   4.847  20.481  0.00  0.00    +0.000 C 
ATOM     17  O   UNL     1       1.347   4.391  19.937  0.00  0.00    +0.000 OA
ATOM     18  C   UNL     1       1.506   3.707  18.685  0.00  0.00    +0.000 C 
ATOM     19  C   UNL     1       2.250   4.563  17.658  0.00  0.00    +0.000 C 
ENDBRANCH  11  14
ENDBRANCH   8  11
ENDBRANCH   3   5
BRANCH   2  20
ATOM     20  C   UNL     1       9.528  11.056  18.805  0.00  0.00    +0.000 A 
ATOM     21  C   UNL     1      10.210  10.832  20.005  0.00  0.00    +0.000 A 
ATOM     22  C   UNL     1      11.042  11.816  20.524  0.00  0.00    +0.000 A 
ATOM     23  C   UNL     1      11.206  13.018  19.836  0.00  0.00    +0.000 A 
ATOM     24  C   UNL     1      10.524  13.272  18.635  0.00  0.00    +0.000 A 
ATOM     25  C   UNL     1       9.659  12.279  18.141  0.00  0.00    +0.000 A 
BRANCH  24  26
ATOM     26  N   UNL     1      10.717  14.476  17.910  0.00  0.00    +0.000 N 
ATOM     27  C   UNL     1      11.931  14.763  17.185  0.00  0.00    +0.000 C 
ATOM     28  C   UNL     1      11.907  16.263  16.995  0.00  0.00    +0.000 C 
ATOM     29  C   UNL     1      10.428  16.586  16.909  0.00  0.00    +0.000 C 
ATOM     30  C   UNL     1       9.786  15.515  17.756  0.00  0.00    +0.000 C 
ATOM     31  O   UNL     1       8.636  15.593  18.159  0.00  0.00    +0.000 OA
ENDBRANCH  24  26
ENDBRANCH   2  20
TORSDOF 5
ENDMDL
MODEL 2
REMARK VINA RESULT:      -8.8      2.778     10.583
REMARK  Name = 
REMARK  5 active torsions:
REMARK  status: ('A' for Active; 'I' for Inactive)
REMARK    1  A    between atoms: C_2  and  C_19
REMARK    2  A    between atoms: N_3  and  C_4
REMARK    3  A    between atoms: C_7  and  S_8
REMARK    4  A    between atoms: S_8  and  N_11
REMARK    5  A    between atoms: C_23  and  N_24
REMARK                            x       y       z     vdW  Elec       q    Type
REMARK                         _______ _______ _______ _____ _____    ______ ____
ROOT
ATOM      1  O   UNL     1       8.199   6.639  18.835  0.00  0.00    +0.000 OA
ATOM      2  C   UNL     1       7.568   7.037  17.857  0.00  0.00    +0.000 C 
ATOM      3  N   UNL     1       7.525   8.348  17.381  0.00  0.00    +0.000 N 
ATOM      4  H   UNL     1       6.794   8.583  16.723  0.00  0.00    +0.000 HD
ENDROOT
BRANCH   3   5
ATOM      5  C   UNL     1       8.239   9.425  17.955  0.00  0.00    +0.000 A 
ATOM      6  C   UNL     1       8.994   9.280  19.127  0.00  0.00    +0.000 A 
ATOM      7  C   UNL     1       9.558  10.378  19.770  0.00  0.00    +0.000 A 
ATOM      8  C   UNL     1       9.433  11.649  19.220  0.00  0.00    +0.000 A 
ATOM      9  C   UNL     1       8.736  11.811  18.017  0.00  0.00    +0.000 A 
ATOM     10  C   UNL     1       8.158  10.698  17.375  0.00  0.00    +0.000 A 
BRANCH   8  11
ATOM     11  S   UNL     1       9.909  13.065  20.205  0.00  0.00    +0.000 S 
ATOM     12  O   UNL     1       8.986  14.126  19.874  0.00  0.00    +0.000 OA
ATOM     13  O   UNL     1      10.041  12.594  21.571  0.00  0.00    +0.000 OA
BRANCH  11  14
ATOM     14  N   UNL     1      11.439  13.535  19.682  0.00  0.00    +0.000 NA
ATOM     15  C   UNL     1      11.786  14.967  19.586  0.00  0.00    +0.000 C 
ATOM     16  C   UNL     1      11.602  15.466  18.152  0.00  0.00    +0.000 C 
ATOM     17  O   UNL     1      12.333  14.670  17.205  0.00  0.00    +0.000 OA
ATOM     18  C   UNL     1      12.005  13.274  17.286  0.00  0.00    +0.000 C 
ATOM     19  C   UNL     1      12.196  12.725  18.701  0.00  0.00    +0.000 C 
ENDBRANCH  11  14
ENDBRANCH   8  11
ENDBRANCH   3   5
BRANCH   2  20
ATOM     20  C   UNL     1       6.717   6.037  17.168  0.00  0.00    +0.000 A 
ATOM     21  C   UNL     1       7.125   5.595  15.904  0.00  0.00    +0.000 A 
ATOM     22  C   UNL     1       6.353   4.671  15.212  0.00  0.00    +0.000 A 
ATOM     23  C   UNL     1       5.182   4.177  15.786  0.00  0.00    +0.000 A 
ATOM     24  C   UNL     1       4.746   4.612  17.048  0.00  0.00    +0.000 A 
ATOM     25  C   UNL     1       5.521   5.574  17.721  0.00  0.00    +0.000 A 
BRANCH  24  26
ATOM     26  N   UNL     1       3.577   4.084  17.654  0.00  0.00    +0.000 N 
ATOM     27  C   UNL     1       3.443   2.690  18.002  0.00  0.00    +0.000 C 
ATOM     28  C   UNL     1       1.952   2.484  18.148  0.00  0.00    +0.000 C 
ATOM     29  C   UNL     1       1.453   3.830  18.634  0.00  0.00    +0.000 C 
ATOM     30  C   UNL     1       2.435   4.806  18.032  0.00  0.00    +0.000 C 
ATOM     31  O   UNL     1       2.216   6.005  17.965  0.00  0.00    +0.000 OA
ENDBRANCH  24  26
ENDBRANCH   2  20
TORSDOF 5
ENDMDL
MODEL 3
REMARK VINA RESULT:      -8.6      7.084     10.813
REMARK  Name = 
REMARK  5 active torsions:
REMARK  status: ('A' for Active; 'I' for Inactive)
REMARK    1  A    between atoms: C_2  and  C_19
REMARK    2  A    between atoms: N_3  and  C_4
REMARK    3  A    between atoms: C_7  and  S_8
REMARK    4  A    between atoms: S_8  and  N_11
REMARK    5  A    between atoms: C_23  and  N_24
REMARK                            x       y       z     vdW  Elec       q    Type
REMARK                         _______ _______ _______ _____ _____    ______ ____
ROOT
ATOM      1  O   UNL     1       1.597   8.460  19.105  0.00  0.00    +0.000 OA
ATOM      2  C   UNL     1       1.712   7.746  20.100  0.00  0.00    +0.000 C 
ATOM      3  N   UNL     1       1.347   8.083  21.404  0.00  0.00    +0.000 N 
ATOM      4  H   UNL     1       1.706   7.508  22.154  0.00  0.00    +0.000 HD
ENDROOT
BRANCH   3   5
ATOM      5  C   UNL     1       0.757   9.314  21.770  0.00  0.00    +0.000 A 
ATOM      6  C   UNL     1      -0.220   9.406  22.771  0.00  0.00    +0.000 A 
ATOM      7  C   UNL     1      -0.908  10.592  23.011  0.00  0.00    +0.000 A 
ATOM      8  C   UNL     1      -0.592  11.739  22.293  0.00  0.00    +0.000 A 
ATOM      9  C   UNL     1       0.422  11.689  21.329  0.00  0.00    +0.000 A 
ATOM     10  C   UNL     1       1.109  10.484  21.083  0.00  0.00    +0.000 A 
BRANCH   8  11
ATOM     11  S   UNL     1      -1.677  13.157  22.411  0.00  0.00    +0.000 S 
ATOM     12  O   UNL     1      -1.328  13.843  23.634  0.00  0.00    +0.000 OA
ATOM     13  O   UNL     1      -1.611  13.838  21.132  0.00  0.00    +0.000 OA
BRANCH  11  14
ATOM     14  N   UNL     1      -3.243  12.563  22.587  0.00  0.00    +0.000 NA
ATOM     15  C   UNL     1      -4.199  12.638  21.464  0.00  0.00    +0.000 C 
ATOM     16  C   UNL     1      -5.098  13.867  21.609  0.00  0.00    +0.000 C 
ATOM     17  O   UNL     1      -5.760  13.904  22.884  0.00  0.00    +0.000 OA
ATOM     18  C   UNL     1      -4.842  13.833  23.986  0.00  0.00    +0.000 C 
ATOM     19  C   UNL     1      -3.936  12.604  23.895  0.00  0.00    +0.000 C 
ENDBRANCH  11  14
ENDBRANCH   8  11
ENDBRANCH   3   5
BRANCH   2  20
ATOM     20  C   UNL     1       2.367   6.431  19.898  0.00  0.00    +0.000 A 
ATOM     21  C   UNL     1       1.882   5.342  20.630  0.00  0.00    +0.000 A 
ATOM     22  C   UNL     1       2.474   4.093  20.488  0.00  0.00    +0.000 A 
ATOM     23  C   UNL     1       3.539   3.927  19.603  0.00  0.00    +0.000 A 
ATOM     24  C   UNL     1       4.050   5.006  18.864  0.00  0.00    +0.000 A 
ATOM     25  C   UNL     1       3.463   6.271  19.046  0.00  0.00    +0.000 A 
BRANCH  24  26
ATOM     26  N   UNL     1       5.108   4.837  17.933  0.00  0.00    +0.000 N 
ATOM     27  C   UNL     1       4.881   4.705  16.514  0.00  0.00    +0.000 C 
ATOM     28  C   UNL     1       6.154   4.079  15.990  0.00  0.00    +0.000 C 
ATOM     29  C   UNL     1       7.222   4.608  16.928  0.00  0.00    +0.000 C 
ATOM     30  C   UNL     1       6.480   4.812  18.225  0.00  0.00    +0.000 C 
ATOM     31  O   UNL     1       7.049   4.965  19.294  0.00  0.00    +0.000 OA
ENDBRANCH  24  26
ENDBRANCH   2  20
TORSDOF 5
ENDMDL
MODEL 4
REMARK VINA RESULT:      -8.5      6.710      9.435
REMARK  Name = 
REMARK  5 active torsions:
REMARK  status: ('A' for Active; 'I' for Inactive)
REMARK    1  A    between atoms: C_2  and  C_19
REMARK    2  A    between atoms: N_3  and  C_4
REMARK    3  A    between atoms: C_7  and  S_8
REMARK    4  A    between atoms: S_8  and  N_11
REMARK    5  A    between atoms: C_23  and  N_24
REMARK                            x       y       z     vdW  Elec       q    Type
REMARK                         _______ _______ _______ _____ _____    ______ ____
ROOT
ATOM      1  O   UNL     1       2.512   5.385  17.826  0.00  0.00    +0.000 OA
ATOM      2  C   UNL     1       3.496   6.122  17.856  0.00  0.00    +0.000 C 
ATOM      3  N   UNL     1       3.511   7.463  18.243  0.00  0.00    +0.000 N 
ATOM      4  H   UNL     1       4.325   8.011  18.000  0.00  0.00    +0.000 HD
ENDROOT
BRANCH   3   5
ATOM      5  C   UNL     1       2.372   8.173  18.689  0.00  0.00    +0.000 A 
ATOM      6  C   UNL     1       1.654   9.036  17.850  0.00  0.00    +0.000 A 
ATOM      7  C   UNL     1       0.637   9.850  18.341  0.00  0.00    +0.000 A 
ATOM      8  C   UNL     1       0.270   9.776  19.680  0.00  0.00    +0.000 A 
ATOM      9  C   UNL     1       0.931   8.878  20.525  0.00  0.00    +0.000 A 
ATOM     10  C   UNL     1       1.967   8.063  20.026  0.00  0.00    +0.000 A 
BRANCH   8  11
ATOM     11  S   UNL     1      -0.825  11.027  20.344  0.00  0.00    +0.000 S 
ATOM     12  O   UNL     1      -1.859  11.235  19.357  0.00  0.00    +0.000 OA
ATOM     13  O   UNL     1      -1.157  10.612  21.694  0.00  0.00    +0.000 OA
BRANCH  11  14
ATOM     14  N   UNL     1       0.067  12.450  20.458  0.00  0.00    +0.000 NA
ATOM     15  C   UNL     1      -0.280  13.468  21.469  0.00  0.00    +0.000 C 
ATOM     16  C   UNL     1      -1.154  14.559  20.849  0.00  0.00    +0.000 C 
ATOM     17  O   UNL     1      -0.546  15.142  19.685  0.00  0.00    +0.000 OA
ATOM     18  C   UNL     1      -0.203  14.163  18.692  0.00  0.00    +0.000 C 
ATOM     19  C   UNL     1       0.691  13.061  19.262  0.00  0.00    +0.000 C 
ENDBRANCH  11  14
ENDBRANCH   8  11
ENDBRANCH   3   5
BRANCH   2  20
ATOM     20  C   UNL     1       4.770   5.544  17.365  0.00  0.00    +0.000 A 
ATOM     21  C   UNL     1       5.752   5.231  18.312  0.00  0.00    +0.000 A 
ATOM     22  C   UNL     1       6.968   4.703  17.899  0.00  0.00    +0.000 A 
ATOM     23  C   UNL     1       7.200   4.473  16.543  0.00  0.00    +0.000 A 
ATOM     24  C   UNL     1       6.235   4.788  15.573  0.00  0.00    +0.000 A 
ATOM     25  C   UNL     1       5.022   5.354  16.004  0.00  0.00    +0.000 A 
BRANCH  24  26
ATOM     26  N   UNL     1       6.448   4.519  14.196  0.00  0.00    +0.000 N 
ATOM     27  C   UNL     1       5.539   3.723  13.408  0.00  0.00    +0.000 C 
ATOM     28  C   UNL     1       6.356   3.300  12.208  0.00  0.00    +0.000 C 
ATOM     29  C   UNL     1       7.321   4.453  12.012  0.00  0.00    +0.000 C 
ATOM     30  C   UNL     1       7.507   4.996  13.407  0.00  0.00    +0.000 C 
ATOM     31  O   UNL     1       8.419   5.750  13.706  0.00  0.00    +0.000 OA
ENDBRANCH  24  26
ENDBRANCH   2  20
TORSDOF 5
ENDMDL
MODEL 5
REMARK VINA RESULT:      -8.5      6.716      9.812
REMARK  Name = 
REMARK  5 active torsions:
REMARK  status: ('A' for Active; 'I' for Inactive)
REMARK    1  A    between atoms: C_2  and  C_19
REMARK    2  A    between atoms: N_3  and  C_4
REMARK    3  A    between atoms: C_7  and  S_8
REMARK    4  A    between atoms: S_8  and  N_11
REMARK    5  A    between atoms: C_23  and  N_24
REMARK                            x       y       z     vdW  Elec       q    Type
REMARK                         _______ _______ _______ _____ _____    ______ ____
ROOT
ATOM      1  O   UNL     1      -0.595  10.231  17.955  0.00  0.00    +0.000 OA
ATOM      2  C   UNL     1      -0.022  10.658  18.955  0.00  0.00    +0.000 C 
ATOM      3  N   UNL     1       1.030  10.037  19.631  0.00  0.00    +0.000 N 
ATOM      4  H   UNL     1       1.251  10.369  20.559  0.00  0.00    +0.000 HD
ENDROOT
BRANCH   3   5
ATOM      5  C   UNL     1       1.615   8.812  19.235  0.00  0.00    +0.000 A 
ATOM      6  C   UNL     1       1.636   7.689  20.073  0.00  0.00    +0.000 A 
ATOM      7  C   UNL     1       2.353   6.544  19.739  0.00  0.00    +0.000 A 
ATOM      8  C   UNL     1       3.020   6.469  18.521  0.00  0.00    +0.000 A 
ATOM      9  C   UNL     1       2.963   7.554  17.639  0.00  0.00    +0.000 A 
ATOM     10  C   UNL     1       2.245   8.716  17.987  0.00  0.00    +0.000 A 
BRANCH   8  11
ATOM     11  S   UNL     1       4.162   5.119  18.245  0.00  0.00    +0.000 S 
ATOM     12  O   UNL     1       4.595   4.672  19.549  0.00  0.00    +0.000 OA
ATOM     13  O   UNL     1       3.510   4.207  17.325  0.00  0.00    +0.000 OA
BRANCH  11  14
ATOM     14  N   UNL     1       5.502   5.764  17.455  0.00  0.00    +0.000 NA
ATOM     15  C   UNL     1       5.688   5.545  16.006  0.00  0.00    +0.000 C 
ATOM     16  C   UNL     1       6.635   4.369  15.762  0.00  0.00    +0.000 C 
ATOM     17  O   UNL     1       7.887   4.532  16.448  0.00  0.00    +0.000 OA
ATOM     18  C   UNL     1       7.720   4.744  17.858  0.00  0.00    +0.000 C 
ATOM     19  C   UNL     1       6.798   5.928  18.151  0.00  0.00    +0.000 C 
ENDBRANCH  11  14
ENDBRANCH   8  11
ENDBRANCH   3   5
BRANCH   2  20
ATOM     20  C   UNL     1      -0.550  11.916  19.535  0.00  0.00    +0.000 A 
ATOM     21  C   UNL     1      -0.063  13.124  19.025  0.00  0.00    +0.000 A 
ATOM     22  C   UNL     1      -0.516  14.329  19.547  0.00  0.00    +0.000 A 
ATOM     23  C   UNL     1      -1.467  14.329  20.568  0.00  0.00    +0.000 A 
ATOM     24  C   UNL     1      -1.964  13.130  21.103  0.00  0.00    +0.000 A 
ATOM     25  C   UNL     1      -1.469  11.918  20.588  0.00  0.00    +0.000 A 
BRANCH  24  26
ATOM     26  N   UNL     1      -2.960  13.122  22.114  0.00  0.00    +0.000 N 
ATOM     27  C   UNL     1      -2.656  13.339  23.508  0.00  0.00    +0.000 C 
ATOM     28  C   UNL     1      -3.854  12.782  24.243  0.00  0.00    +0.000 C 
ATOM     29  C   UNL     1      -5.001  13.015  23.279  0.00  0.00    +0.000 C 
ATOM     30  C   UNL     1      -4.340  12.951  21.925  0.00  0.00    +0.000 C 
ATOM     31  O   UNL     1      -4.970  12.818  20.888  0.00  0.00    +0.000 OA
ENDBRANCH  24  26
ENDBRANCH   2  20
TORSDOF 5
ENDMDL
MODEL 6
REMARK VINA RESULT:      -8.5      7.037      9.609
REMARK  Name = 
REMARK  5 active torsions:
REMARK  status: ('A' for Active; 'I' for Inactive)
REMARK    1  A    between atoms: C_2  and  C_19
REMARK    2  A    between atoms: N_3  and  C_4
REMARK    3  A    between atoms: C_7  and  S_8
REMARK    4  A    between atoms: S_8  and  N_11
REMARK    5  A    between atoms: C_23  and  N_24
REMARK                            x       y       z     vdW  Elec       q    Type
REMARK                         _______ _______ _______ _____ _____    ______ ____
ROOT
ATOM      1  O   UNL     1       1.464  10.964  21.467  0.00  0.00    +0.000 OA
ATOM      2  C   UNL     1       0.442  10.733  20.823  0.00  0.00    +0.000 C 
ATOM      3  N   UNL     1       0.268   9.709  19.892  0.00  0.00    +0.000 N 
ATOM      4  H   UNL     1      -0.526   9.771  19.270  0.00  0.00    +0.000 HD
ENDROOT
BRANCH   3   5
ATOM      5  C   UNL     1       1.259   8.753  19.569  0.00  0.00    +0.000 A 
ATOM      6  C   UNL     1       1.967   8.791  18.359  0.00  0.00    +0.000 A 
ATOM      7  C   UNL     1       2.820   7.758  17.983  0.00  0.00    +0.000 A 
ATOM      8  C   UNL     1       3.037   6.684  18.839  0.00  0.00    +0.000 A 
ATOM      9  C   UNL     1       2.389   6.653  20.079  0.00  0.00    +0.000 A 
ATOM     10  C   UNL     1       1.517   7.696  20.452  0.00  0.00    +0.000 A 
BRANCH   8  11
ATOM     11  S   UNL     1       3.898   5.245  18.217  0.00  0.00    +0.000 S 
ATOM     12  O   UNL     1       4.492   4.592  19.361  0.00  0.00    +0.000 OA
ATOM     13  O   UNL     1       2.962   4.540  17.361  0.00  0.00    +0.000 OA
BRANCH  11  14
ATOM     14  N   UNL     1       5.151   5.806  17.241  0.00  0.00    +0.000 NA
ATOM     15  C   UNL     1       5.311   5.294  15.866  0.00  0.00    +0.000 C 
ATOM     16  C   UNL     1       6.350   4.171  15.833  0.00  0.00    +0.000 C 
ATOM     17  O   UNL     1       7.603   4.578  16.405  0.00  0.00    +0.000 OA
ATOM     18  C   UNL     1       7.462   5.078  17.744  0.00  0.00    +0.000 C 
ATOM     19  C   UNL     1       6.448   6.220  17.822  0.00  0.00    +0.000 C 
ENDBRANCH  11  14
ENDBRANCH   8  11
ENDBRANCH   3   5
BRANCH   2  20
ATOM     20  C   UNL     1      -0.684  11.681  21.005  0.00  0.00    +0.000 A 
ATOM     21  C   UNL     1      -1.598  11.818  19.954  0.00  0.00    +0.000 A 
ATOM     22  C   UNL     1      -2.660  12.705  20.071  0.00  0.00    +0.000 A 
ATOM     23  C   UNL     1      -2.819  13.446  21.242  0.00  0.00    +0.000 A 
ATOM     24  C   UNL     1      -1.910  13.334  22.307  0.00  0.00    +0.000 A 
ATOM     25  C   UNL     1      -0.820  12.457  22.159  0.00  0.00    +0.000 A 
BRANCH  24  26
ATOM     26  N   UNL     1      -2.087  14.055  23.516  0.00  0.00    +0.000 N 
ATOM     27  C   UNL     1      -3.247  13.887  24.359  0.00  0.00    +0.000 C 
ATOM     28  C   UNL     1      -3.266  15.130  25.220  0.00  0.00    +0.000 C 
ATOM     29  C   UNL     1      -1.799  15.487  25.361  0.00  0.00    +0.000 C 
ATOM     30  C   UNL     1      -1.189  14.974  24.080  0.00  0.00    +0.000 C 
ATOM     31  O   UNL     1      -0.081  15.313  23.694  0.00  0.00    +0.000 OA
ENDBRANCH  24  26
ENDBRANCH   2  20
TORSDOF 5
ENDMDL
MODEL 7
REMARK VINA RESULT:      -8.5      7.243     10.764
REMARK  Name = 
REMARK  5 active torsions:
REMARK  status: ('A' for Active; 'I' for Inactive)
REMARK    1  A    between atoms: C_2  and  C_19
REMARK    2  A    between atoms: N_3  and  C_4
REMARK    3  A    between atoms: C_7  and  S_8
REMARK    4  A    between atoms: S_8  and  N_11
REMARK    5  A    between atoms: C_23  and  N_24
REMARK                            x       y       z     vdW  Elec       q    Type
REMARK                         _______ _______ _______ _____ _____    ______ ____
ROOT
ATOM      1  O   UNL     1       2.043   8.329  18.955  0.00  0.00    +0.000 OA
ATOM      2  C   UNL     1       1.948   7.498  19.857  0.00  0.00    +0.000 C 
ATOM      3  N   UNL     1       1.302   7.678  21.080  0.00  0.00    +0.000 N 
ATOM      4  H   UNL     1       1.497   7.012  21.815  0.00  0.00    +0.000 HD
ENDROOT
BRANCH   3   5
ATOM      5  C   UNL     1       0.628   8.863  21.455  0.00  0.00    +0.000 A 
ATOM      6  C   UNL     1       0.340   9.168  22.792  0.00  0.00    +0.000 A 
ATOM      7  C   UNL     1      -0.463  10.252  23.136  0.00  0.00    +0.000 A 
ATOM      8  C   UNL     1      -0.951  11.100  22.147  0.00  0.00    +0.000 A 
ATOM      9  C   UNL     1      -0.626  10.852  20.809  0.00  0.00    +0.000 A 
ATOM     10  C   UNL     1       0.178   9.748  20.465  0.00  0.00    +0.000 A 
BRANCH   8  11
ATOM     11  S   UNL     1      -2.206  12.299  22.582  0.00  0.00    +0.000 S 
ATOM     12  O   UNL     1      -2.803  12.739  21.343  0.00  0.00    +0.000 OA
ATOM     13  O   UNL     1      -3.014  11.693  23.624  0.00  0.00    +0.000 OA
BRANCH  11  14
ATOM     14  N   UNL     1      -1.410  13.618  23.263  0.00  0.00    +0.000 NA
ATOM     15  C   UNL     1      -2.130  14.538  24.165  0.00  0.00    +0.000 C 
ATOM     16  C   UNL     1      -2.620  15.765  23.395  0.00  0.00    +0.000 C 
ATOM     17  O   UNL     1      -1.553  16.424  22.693  0.00  0.00    +0.000 OA
ATOM     18  C   UNL     1      -0.844  15.540  21.811  0.00  0.00    +0.000 C 
ATOM     19  C   UNL     1      -0.314  14.307  22.544  0.00  0.00    +0.000 C 
ENDBRANCH  11  14
ENDBRANCH   8  11
ENDBRANCH   3   5
BRANCH   2  20
ATOM     20  C   UNL     1       2.651   6.210  19.646  0.00  0.00    +0.000 A 
ATOM     21  C   UNL     1       2.295   5.130  20.462  0.00  0.00    +0.000 A 
ATOM     22  C   UNL     1       2.936   3.908  20.313  0.00  0.00    +0.000 A 
ATOM     23  C   UNL     1       3.923   3.756  19.339  0.00  0.00    +0.000 A 
ATOM     24  C   UNL     1       4.306   4.827  18.515  0.00  0.00    +0.000 A 
ATOM     25  C   UNL     1       3.672   6.067  18.701  0.00  0.00    +0.000 A 
BRANCH  24  26
ATOM     26  N   UNL     1       5.282   4.669  17.496  0.00  0.00    +0.000 N 
ATOM     27  C   UNL     1       4.953   4.712  16.091  0.00  0.00    +0.000 C 
ATOM     28  C   UNL     1       6.126   4.040  15.413  0.00  0.00    +0.000 C 
ATOM     29  C   UNL     1       7.297   4.371  16.319  0.00  0.00    +0.000 C 
ATOM     30  C   UNL     1       6.661   4.495  17.681  0.00  0.00    +0.000 C 
ATOM     31  O   UNL     1       7.310   4.482  18.716  0.00  0.00    +0.000 OA
ENDBRANCH  24  26
ENDBRANCH   2  20
TORSDOF 5
ENDMDL
MODEL 8
REMARK VINA RESULT:      -8.4      7.084      9.710
REMARK  Name = 
REMARK  5 active torsions:
REMARK  status: ('A' for Active; 'I' for Inactive)
REMARK    1  A    between atoms: C_2  and  C_19
REMARK    2  A    between atoms: N_3  and  C_4
REMARK    3  A    between atoms: C_7  and  S_8
REMARK    4  A    between atoms: S_8  and  N_11
REMARK    5  A    between atoms: C_23  and  N_24
REMARK                            x       y       z     vdW  Elec       q    Type
REMARK                         _______ _______ _______ _____ _____    ______ ____
ROOT
ATOM      1  O   UNL     1       1.453  10.990  21.465  0.00  0.00    +0.000 OA
ATOM      2  C   UNL     1       0.438  10.767  20.807  0.00  0.00    +0.000 C 
ATOM      3  N   UNL     1       0.273   9.753  19.864  0.00  0.00    +0.000 N 
ATOM      4  H   UNL     1      -0.514   9.823  19.233  0.00  0.00    +0.000 HD
ENDROOT
BRANCH   3   5
ATOM      5  C   UNL     1       1.266   8.798  19.542  0.00  0.00    +0.000 A 
ATOM      6  C   UNL     1       1.952   8.818  18.320  0.00  0.00    +0.000 A 
ATOM      7  C   UNL     1       2.808   7.785  17.949  0.00  0.00    +0.000 A 
ATOM      8  C   UNL     1       3.048   6.730  18.822  0.00  0.00    +0.000 A 
ATOM      9  C   UNL     1       2.421   6.718  20.074  0.00  0.00    +0.000 A 
ATOM     10  C   UNL     1       1.548   7.761  20.441  0.00  0.00    +0.000 A 
BRANCH   8  11
ATOM     11  S   UNL     1       3.910   5.285  18.213  0.00  0.00    +0.000 S 
ATOM     12  O   UNL     1       4.456   4.612  19.369  0.00  0.00    +0.000 OA
ATOM     13  O   UNL     1       2.994   4.602  17.319  0.00  0.00    +0.000 OA
BRANCH  11  14
ATOM     14  N   UNL     1       5.202   5.839  17.286  0.00  0.00    +0.000 NA
ATOM     15  C   UNL     1       5.355   5.400  15.884  0.00  0.00    +0.000 C 
ATOM     16  C   UNL     1       6.338   4.231  15.796  0.00  0.00    +0.000 C 
ATOM     17  O   UNL     1       7.602   4.541  16.405  0.00  0.00    +0.000 OA
ATOM     18  C   UNL     1       7.467   4.969  17.769  0.00  0.00    +0.000 C 
ATOM     19  C   UNL     1       6.510   6.154  17.904  0.00  0.00    +0.000 C 
ENDBRANCH  11  14
ENDBRANCH   8  11
ENDBRANCH   3   5
BRANCH   2  20
ATOM     20  C   UNL     1      -0.688  11.715  20.986  0.00  0.00    +0.000 A 
ATOM     21  C   UNL     1      -1.626  11.816  19.953  0.00  0.00    +0.000 A 
ATOM     22  C   UNL     1      -2.690  12.702  20.067  0.00  0.00    +0.000 A 
ATOM     23  C   UNL     1      -2.826  13.477  21.219  0.00  0.00    +0.000 A 
ATOM     24  C   UNL     1      -1.893  13.401  22.265  0.00  0.00    +0.000 A 
ATOM     25  C   UNL     1      -0.803  12.525  22.119  0.00  0.00    +0.000 A 
BRANCH  24  26
ATOM     26  N   UNL     1      -2.047  14.157  23.456  0.00  0.00    +0.000 N 
ATOM     27  C   UNL     1      -1.123  15.196  23.844  0.00  0.00    +0.000 C 
ATOM     28  C   UNL     1      -1.368  15.379  25.325  0.00  0.00    +0.000 C 
ATOM     29  C   UNL     1      -2.839  15.048  25.485  0.00  0.00    +0.000 C 
ATOM     30  C   UNL     1      -3.095  14.050  24.383  0.00  0.00    +0.000 C 
ATOM     31  O   UNL     1      -4.089  13.340  24.353  0.00  0.00    +0.000 OA
ENDBRANCH  24  26
ENDBRANCH   2  20
TORSDOF 5
ENDMDL
MODEL 9
REMARK VINA RESULT:      -8.4      6.935     10.575
REMARK  Name = 
REMARK  5 active torsions:
REMARK  status: ('A' for Active; 'I' for Inactive)
REMARK    1  A    between atoms: C_2  and  C_19
REMARK    2  A    between atoms: N_3  and  C_4
REMARK    3  A    between atoms: C_7  and  S_8
REMARK    4  A    between atoms: S_8  and  N_11
REMARK    5  A    between atoms: C_23  and  N_24
REMARK                            x       y       z     vdW  Elec       q    Type
REMARK                         _______ _______ _______ _____ _____    ______ ____
ROOT
ATOM      1  O   UNL     1      -0.738   9.879  17.667  0.00  0.00    +0.000 OA
ATOM      2  C   UNL     1      -0.541  10.310  18.801  0.00  0.00    +0.000 C 
ATOM      3  N   UNL     1       0.455   9.887  19.682  0.00  0.00    +0.000 N 
ATOM      4  H   UNL     1       0.364  10.150  20.654  0.00  0.00    +0.000 HD
ENDROOT
BRANCH   3   5
ATOM      5  C   UNL     1       1.417   8.896  19.377  0.00  0.00    +0.000 A 
ATOM      6  C   UNL     1       2.096   8.868  18.151  0.00  0.00    +0.000 A 
ATOM      7  C   UNL     1       2.918   7.801  17.798  0.00  0.00    +0.000 A 
ATOM      8  C   UNL     1       3.131   6.759  18.694  0.00  0.00    +0.000 A 
ATOM      9  C   UNL     1       2.513   6.794  19.948  0.00  0.00    +0.000 A 
ATOM     10  C   UNL     1       1.673   7.871  20.297  0.00  0.00    +0.000 A 
BRANCH   8  11
ATOM     11  S   UNL     1       3.946   5.276  18.112  0.00  0.00    +0.000 S 
ATOM     12  O   UNL     1       4.452   4.597  19.282  0.00  0.00    +0.000 OA
ATOM     13  O   UNL     1       3.015   4.617  17.214  0.00  0.00    +0.000 OA
BRANCH  11  14
ATOM     14  N   UNL     1       5.269   5.770  17.195  0.00  0.00    +0.000 NA
ATOM     15  C   UNL     1       5.455   5.262  15.821  0.00  0.00    +0.000 C 
ATOM     16  C   UNL     1       6.424   4.079  15.817  0.00  0.00    +0.000 C 
ATOM     17  O   UNL     1       7.675   4.403  16.444  0.00  0.00    +0.000 OA
ATOM     18  C   UNL     1       7.509   4.898  17.782  0.00  0.00    +0.000 C 
ATOM     19  C   UNL     1       6.564   6.099  17.833  0.00  0.00    +0.000 C 
ENDBRANCH  11  14
ENDBRANCH   8  11
ENDBRANCH   3   5
BRANCH   2  20
ATOM     20  C   UNL     1      -1.500  11.324  19.300  0.00  0.00    +0.000 A 
ATOM     21  C   UNL     1      -1.008  12.331  20.139  0.00  0.00    +0.000 A 
ATOM     22  C   UNL     1      -1.872  13.294  20.645  0.00  0.00    +0.000 A 
ATOM     23  C   UNL     1      -3.223  13.262  20.303  0.00  0.00    +0.000 A 
ATOM     24  C   UNL     1      -3.743  12.257  19.471  0.00  0.00    +0.000 A 
ATOM     25  C   UNL     1      -2.863  11.269  18.995  0.00  0.00    +0.000 A 
BRANCH  24  26
ATOM     26  N   UNL     1      -5.109  12.242  19.087  0.00  0.00    +0.000 N 
ATOM     27  C   UNL     1      -6.187  12.354  20.040  0.00  0.00    +0.000 C 
ATOM     28  C   UNL     1      -7.394  11.819  19.303  0.00  0.00    +0.000 C 
ATOM     29  C   UNL     1      -7.113  12.176  17.856  0.00  0.00    +0.000 C 
ATOM     30  C   UNL     1      -5.607  12.160  17.777  0.00  0.00    +0.000 C 
ATOM     31  O   UNL     1      -5.002  12.127  16.717  0.00  0.00    +0.000 OA
ENDBRANCH  24  26
ENDBRANCH   2  20
TORSDOF 5
ENDMDL
