MODEL 1
REMARK VINA RESULT:      -9.3      0.000      0.000
REMARK  Name = 
REMARK  6 active torsions:
REMARK  status: ('A' for Active; 'I' for Inactive)
REMARK    1  A    between atoms: C_1  and  C_2
REMARK    2  A    between atoms: C_2  and  N_3
REMARK    3  A    between atoms: C_2  and  C_19
REMARK    4  A    between atoms: C_4  and  C_6
REMARK    5  A    between atoms: C_6  and  C_7
REMARK    6  A    between atoms: C_7  and  N_8
REMARK                            x       y       z     vdW  Elec       q    Type
REMARK                         _______ _______ _______ _____ _____    ______ ____
ROOT
ATOM      1  N   UNL     1       6.893   6.977  16.698  0.00  0.00    +0.000 N 
ATOM      2  C   UNL     1       7.686   7.351  17.756  0.00  0.00    +0.000 C 
ATOM      3  O   UNL     1       8.074   6.565  18.615  0.00  0.00    +0.000 OA
ATOM      4  H   UNL     1       6.622   7.671  16.015  0.00  0.00    +0.000 HD
ENDROOT
BRANCH   1   6
ATOM      5  C   UNL     1       6.710   5.186  15.030  0.00  0.00    +0.000 C 
ATOM      6  C   UNL     1       6.415   5.608  16.463  0.00  0.00    +0.000 C 
BRANCH   6   7
ATOM      7  C   UNL     1       4.957   5.582  16.895  0.00  0.00    +0.000 A 
ATOM      8  C   UNL     1       4.295   6.602  17.586  0.00  0.00    +0.000 A 
ATOM      9  C   UNL     1       3.104   6.322  18.276  0.00  0.00    +0.000 A 
ATOM     10  C   UNL     1       2.596   5.012  18.341  0.00  0.00    +0.000 A 
ATOM     11  C   UNL     1       3.216   4.020  17.582  0.00  0.00    +0.000 A 
ATOM     12  C   UNL     1       4.331   4.335  16.804  0.00  0.00    +0.000 A 
ATOM     13  C   UNL     1       2.779   2.590  17.598  0.00  0.00    +0.000 C 
ATOM     14  C   UNL     1       2.053   2.171  18.861  0.00  0.00    +0.000 C 
ATOM     15  C   UNL     1       1.135   3.209  19.495  0.00  0.00    +0.000 C 
ATOM     16  C   UNL     1       1.428   4.692  19.232  0.00  0.00    +0.000 C 
ENDBRANCH   6   7
ENDBRANCH   1   6
BRANCH   2  17
ATOM     17  C   UNL     1       7.988   8.845  17.800  0.00  0.00    +0.000 C 
BRANCH  17  18
ATOM     18  C   UNL     1       8.834   9.185  19.022  0.00  0.00    +0.000 C 
BRANCH  18  19
ATOM     19  N   UNL     1       9.415  10.529  18.987  0.00  0.00    +0.000 N 
ATOM     20  N   UNL     1       9.817  10.974  17.758  0.00  0.00    +0.000 NA
ATOM     21  N   UNL     1      10.199  12.152  17.581  0.00  0.00    +0.000 NA
ATOM     22  C   UNL     1      10.138  13.076  18.628  0.00  0.00    +0.000 A 
ATOM     23  C   UNL     1      10.411  14.422  18.358  0.00  0.00    +0.000 A 
ATOM     24  C   UNL     1      10.344  15.377  19.379  0.00  0.00    +0.000 A 
ATOM     25  C   UNL     1      10.021  15.002  20.675  0.00  0.00    +0.000 A 
ATOM     26  C   UNL     1       9.754  13.661  20.960  0.00  0.00    +0.000 A 
ATOM     27  C   UNL     1       9.810  12.714  19.925  0.00  0.00    +0.000 A 
ATOM     28  C   UNL     1       9.463  11.307  20.133  0.00  0.00    +0.000 A 
ATOM     29  O   UNL     1       9.195  10.900  21.260  0.00  0.00    +0.000 OA
ENDBRANCH  18  19
ENDBRANCH  17  18
ENDBRANCH   2  17
TORSDOF 5
ENDMDL
MODEL 2
REMARK VINA RESULT:      -9.2      5.637      8.034
REMARK  Name = 
REMARK  6 active torsions:
REMARK  status: ('A' for Active; 'I' for Inactive)
REMARK    1  A    between atoms: C_1  and  C_2
REMARK    2  A    between atoms: C_2  and  N_3
REMARK    3  A    between atoms: C_2  and  C_19
REMARK    4  A    between atoms: C_4  and  C_6
REMARK    5  A    between atoms: C_6  and  C_7
REMARK    6  A    between atoms: C_7  and  N_8
REMARK                            x       y       z     vdW  Elec       q    Type
REMARK                         _______ _______ _______ _____ _____    ______ ____
ROOT
ATOM      1  N   UNL     1       4.050   4.869  18.642  0.00  0.00    +0.000 N 
ATOM      2  C   UNL     1       5.092   4.045  18.995  0.00  0.00    +0.000 C 
ATOM      3  O   UNL     1       4.979   3.127  19.800  0.00  0.00    +0.000 OA
ATOM      4  H   UNL     1       4.206   5.597  17.958  0.00  0.00    +0.000 HD
ENDROOT
BRANCH   1   6
ATOM      5  C   UNL     1       1.743   4.229  18.103  0.00  0.00    +0.000 C 
ATOM      6  C   UNL     1       2.686   4.755  19.176  0.00  0.00    +0.000 C 
BRANCH   6   7
ATOM      7  C   UNL     1       2.347   6.111  19.777  0.00  0.00    +0.000 A 
ATOM      8  C   UNL     1       1.668   6.319  20.983  0.00  0.00    +0.000 A 
ATOM      9  C   UNL     1       1.062   7.560  21.241  0.00  0.00    +0.000 A 
ATOM     10  C   UNL     1       1.068   8.582  20.275  0.00  0.00    +0.000 A 
ATOM     11  C   UNL     1       1.817   8.395  19.112  0.00  0.00    +0.000 A 
ATOM     12  C   UNL     1       2.514   7.202  18.920  0.00  0.00    +0.000 A 
ATOM     13  C   UNL     1       1.870   9.402  18.009  0.00  0.00    +0.000 C 
ATOM     14  C   UNL     1       0.668  10.323  17.941  0.00  0.00    +0.000 C 
ATOM     15  C   UNL     1       0.062  10.750  19.272  0.00  0.00    +0.000 C 
ATOM     16  C   UNL     1       0.262   9.834  20.487  0.00  0.00    +0.000 C 
ENDBRANCH   6   7
ENDBRANCH   1   6
BRANCH   2  17
ATOM     17  C   UNL     1       6.419   4.418  18.341  0.00  0.00    +0.000 C 
BRANCH  17  18
ATOM     18  C   UNL     1       6.258   5.660  17.473  0.00  0.00    +0.000 C 
BRANCH  18  19
ATOM     19  N   UNL     1       6.421   5.409  16.039  0.00  0.00    +0.000 N 
ATOM     20  N   UNL     1       7.602   5.827  15.490  0.00  0.00    +0.000 NA
ATOM     21  N   UNL     1       7.913   5.546  14.312  0.00  0.00    +0.000 NA
ATOM     22  C   UNL     1       7.090   4.711  13.548  0.00  0.00    +0.000 A 
ATOM     23  C   UNL     1       7.544   4.278  12.297  0.00  0.00    +0.000 A 
ATOM     24  C   UNL     1       6.755   3.429  11.513  0.00  0.00    +0.000 A 
ATOM     25  C   UNL     1       5.506   3.018  11.956  0.00  0.00    +0.000 A 
ATOM     26  C   UNL     1       5.039   3.449  13.199  0.00  0.00    +0.000 A 
ATOM     27  C   UNL     1       5.845   4.288  13.984  0.00  0.00    +0.000 A 
ATOM     28  C   UNL     1       5.455   4.712  15.330  0.00  0.00    +0.000 A 
ATOM     29  O   UNL     1       4.352   4.408  15.775  0.00  0.00    +0.000 OA
ENDBRANCH  18  19
ENDBRANCH  17  18
ENDBRANCH   2  17
TORSDOF 5
ENDMDL
MODEL 3
REMARK VINA RESULT:      -8.8      1.591      1.831
REMARK  Name = 
REMARK  6 active torsions:
REMARK  status: ('A' for Active; 'I' for Inactive)
REMARK    1  A    between atoms: C_1  and  C_2
REMARK    2  A    between atoms: C_2  and  N_3
REMARK    3  A    between atoms: C_2  and  C_19
REMARK    4  A    between atoms: C_4  and  C_6
REMARK    5  A    between atoms: C_6  and  C_7
REMARK    6  A    between atoms: C_7  and  N_8
REMARK                            x       y       z     vdW  Elec       q    Type
REMARK                         _______ _______ _______ _____ _____    ______ ____
ROOT
ATOM      1  N   UNL     1       7.481   5.955  18.346  0.00  0.00    +0.000 N 
ATOM      2  C   UNL     1       7.486   7.158  17.682  0.00  0.00    +0.000 C 
ATOM      3  O   UNL     1       6.896   7.342  16.622  0.00  0.00    +0.000 OA
ATOM      4  H   UNL     1       7.974   5.875  19.225  0.00  0.00    +0.000 HD
ENDROOT
BRANCH   1   6
ATOM      5  C   UNL     1       7.103   4.488  16.415  0.00  0.00    +0.000 C 
ATOM      6  C   UNL     1       6.778   4.753  17.879  0.00  0.00    +0.000 C 
BRANCH   6   7
ATOM      7  C   UNL     1       5.311   4.952  18.226  0.00  0.00    +0.000 A 
ATOM      8  C   UNL     1       4.820   5.780  19.242  0.00  0.00    +0.000 A 
ATOM      9  C   UNL     1       3.519   5.588  19.735  0.00  0.00    +0.000 A 
ATOM     10  C   UNL     1       2.718   4.530  19.270  0.00  0.00    +0.000 A 
ATOM     11  C   UNL     1       3.183   3.763  18.201  0.00  0.00    +0.000 A 
ATOM     12  C   UNL     1       4.430   4.039  17.639  0.00  0.00    +0.000 A 
ATOM     13  C   UNL     1       2.429   2.597  17.647  0.00  0.00    +0.000 C 
ATOM     14  C   UNL     1       1.471   1.947  18.626  0.00  0.00    +0.000 C 
ATOM     15  C   UNL     1       0.746   2.878  19.588  0.00  0.00    +0.000 C 
ATOM     16  C   UNL     1       1.404   4.221  19.933  0.00  0.00    +0.000 C 
ENDBRANCH   6   7
ENDBRANCH   1   6
BRANCH   2  17
ATOM     17  C   UNL     1       8.346   8.227  18.350  0.00  0.00    +0.000 C 
BRANCH  17  18
ATOM     18  C   UNL     1       8.095   9.590  17.717  0.00  0.00    +0.000 C 
BRANCH  18  19
ATOM     19  N   UNL     1       8.809  10.689  18.369  0.00  0.00    +0.000 N 
ATOM     20  N   UNL     1       9.666  10.331  19.374  0.00  0.00    +0.000 NA
ATOM     21  N   UNL     1      10.430  11.163  19.910  0.00  0.00    +0.000 NA
ATOM     22  C   UNL     1      10.492  12.474  19.427  0.00  0.00    +0.000 A 
ATOM     23  C   UNL     1      11.474  13.334  19.932  0.00  0.00    +0.000 A 
ATOM     24  C   UNL     1      11.576  14.648  19.461  0.00  0.00    +0.000 A 
ATOM     25  C   UNL     1      10.696  15.122  18.498  0.00  0.00    +0.000 A 
ATOM     26  C   UNL     1       9.707  14.276  17.991  0.00  0.00    +0.000 A 
ATOM     27  C   UNL     1       9.624  12.955  18.461  0.00  0.00    +0.000 A 
ATOM     28  C   UNL     1       8.666  11.991  17.916  0.00  0.00    +0.000 A 
ATOM     29  O   UNL     1       7.840  12.349  17.082  0.00  0.00    +0.000 OA
ENDBRANCH  18  19
ENDBRANCH  17  18
ENDBRANCH   2  17
TORSDOF 5
ENDMDL
MODEL 4
REMARK VINA RESULT:      -8.8      1.562      1.886
REMARK  Name = 
REMARK  6 active torsions:
REMARK  status: ('A' for Active; 'I' for Inactive)
REMARK    1  A    between atoms: C_1  and  C_2
REMARK    2  A    between atoms: C_2  and  N_3
REMARK    3  A    between atoms: C_2  and  C_19
REMARK    4  A    between atoms: C_4  and  C_6
REMARK    5  A    between atoms: C_6  and  C_7
REMARK    6  A    between atoms: C_7  and  N_8
REMARK                            x       y       z     vdW  Elec       q    Type
REMARK                         _______ _______ _______ _____ _____    ______ ____
ROOT
ATOM      1  N   UNL     1       5.952   7.111  17.375  0.00  0.00    +0.000 N 
ATOM      2  C   UNL     1       7.318   7.148  17.237  0.00  0.00    +0.000 C 
ATOM      3  O   UNL     1       7.938   6.400  16.488  0.00  0.00    +0.000 OA
ATOM      4  H   UNL     1       5.500   7.767  17.997  0.00  0.00    +0.000 HD
ENDROOT
BRANCH   1   6
ATOM      5  C   UNL     1       4.836   6.678  15.233  0.00  0.00    +0.000 C 
ATOM      6  C   UNL     1       5.070   6.183  16.653  0.00  0.00    +0.000 C 
BRANCH   6   7
ATOM      7  C   UNL     1       3.836   5.999  17.523  0.00  0.00    +0.000 A 
ATOM      8  C   UNL     1       3.437   6.850  18.560  0.00  0.00    +0.000 A 
ATOM      9  C   UNL     1       2.540   6.390  19.538  0.00  0.00    +0.000 A 
ATOM     10  C   UNL     1       2.084   5.060  19.532  0.00  0.00    +0.000 A 
ATOM     11  C   UNL     1       2.420   4.245  18.451  0.00  0.00    +0.000 A 
ATOM     12  C   UNL     1       3.216   4.751  17.421  0.00  0.00    +0.000 A 
ATOM     13  C   UNL     1       2.014   2.809  18.356  0.00  0.00    +0.000 C 
ATOM     14  C   UNL     1       1.746   2.144  19.691  0.00  0.00    +0.000 C 
ATOM     15  C   UNL     1       1.087   3.006  20.760  0.00  0.00    +0.000 C 
ATOM     16  C   UNL     1       1.274   4.527  20.682  0.00  0.00    +0.000 C 
ENDBRANCH   6   7
ENDBRANCH   1   6
BRANCH   2  17
ATOM     17  C   UNL     1       8.001   8.163  18.148  0.00  0.00    +0.000 C 
BRANCH  17  18
ATOM     18  C   UNL     1       7.857   9.572  17.584  0.00  0.00    +0.000 C 
BRANCH  18  19
ATOM     19  N   UNL     1       8.627  10.585  18.309  0.00  0.00    +0.000 N 
ATOM     20  N   UNL     1       9.403  10.122  19.336  0.00  0.00    +0.000 NA
ATOM     21  N   UNL     1      10.207  10.868  19.937  0.00  0.00    +0.000 NA
ATOM     22  C   UNL     1      10.398  12.185  19.508  0.00  0.00    +0.000 A 
ATOM     23  C   UNL     1      11.422  12.942  20.089  0.00  0.00    +0.000 A 
ATOM     24  C   UNL     1      11.653  14.259  19.673  0.00  0.00    +0.000 A 
ATOM     25  C   UNL     1      10.861  14.837  18.691  0.00  0.00    +0.000 A 
ATOM     26  C   UNL     1       9.831  14.095  18.109  0.00  0.00    +0.000 A 
ATOM     27  C   UNL     1       9.619  12.770  18.523  0.00  0.00    +0.000 A 
ATOM     28  C   UNL     1       8.612  11.909  17.900  0.00  0.00    +0.000 A 
ATOM     29  O   UNL     1       7.858  12.363  17.045  0.00  0.00    +0.000 OA
ENDBRANCH  18  19
ENDBRANCH  17  18
ENDBRANCH   2  17
TORSDOF 5
ENDMDL
MODEL 5
REMARK VINA RESULT:      -8.8      1.148      1.639
REMARK  Name = 
REMARK  6 active torsions:
REMARK  status: ('A' for Active; 'I' for Inactive)
REMARK    1  A    between atoms: C_1  and  C_2
REMARK    2  A    between atoms: C_2  and  N_3
REMARK    3  A    between atoms: C_2  and  C_19
REMARK    4  A    between atoms: C_4  and  C_6
REMARK    5  A    between atoms: C_6  and  C_7
REMARK    6  A    between atoms: C_7  and  N_8
REMARK                            x       y       z     vdW  Elec       q    Type
REMARK                         _______ _______ _______ _____ _____    ______ ____
ROOT
ATOM      1  N   UNL     1       6.840   7.186  16.907  0.00  0.00    +0.000 N 
ATOM      2  C   UNL     1       7.692   7.734  17.834  0.00  0.00    +0.000 C 
ATOM      3  O   UNL     1       8.299   7.066  18.665  0.00  0.00    +0.000 OA
ATOM      4  H   UNL     1       6.383   7.791  16.238  0.00  0.00    +0.000 HD
ENDROOT
BRANCH   1   6
ATOM      5  C   UNL     1       7.082   5.209  15.472  0.00  0.00    +0.000 C 
ATOM      6  C   UNL     1       6.551   5.750  16.792  0.00  0.00    +0.000 C 
BRANCH   6   7
ATOM      7  C   UNL     1       5.059   5.591  17.043  0.00  0.00    +0.000 A 
ATOM      8  C   UNL     1       4.217   6.566  17.590  0.00  0.00    +0.000 A 
ATOM      9  C   UNL     1       2.981   6.193  18.143  0.00  0.00    +0.000 A 
ATOM     10  C   UNL     1       2.599   4.842  18.217  0.00  0.00    +0.000 A 
ATOM     11  C   UNL     1       3.405   3.887  17.595  0.00  0.00    +0.000 A 
ATOM     12  C   UNL     1       4.574   4.283  16.943  0.00  0.00    +0.000 A 
ATOM     13  C   UNL     1       3.110   2.422  17.636  0.00  0.00    +0.000 C 
ATOM     14  C   UNL     1       2.273   1.983  18.821  0.00  0.00    +0.000 C 
ATOM     15  C   UNL     1       1.186   2.947  19.279  0.00  0.00    +0.000 C 
ATOM     16  C   UNL     1       1.363   4.440  18.973  0.00  0.00    +0.000 C 
ENDBRANCH   6   7
ENDBRANCH   1   6
BRANCH   2  17
ATOM     17  C   UNL     1       7.766   9.256  17.778  0.00  0.00    +0.000 C 
BRANCH  17  18
ATOM     18  C   UNL     1       9.144   9.742  18.213  0.00  0.00    +0.000 C 
BRANCH  18  19
ATOM     19  N   UNL     1       9.111  10.905  19.103  0.00  0.00    +0.000 N 
ATOM     20  N   UNL     1       9.162  10.633  20.443  0.00  0.00    +0.000 NA
ATOM     21  N   UNL     1       9.279  11.543  21.291  0.00  0.00    +0.000 NA
ATOM     22  C   UNL     1       9.453  12.868  20.881  0.00  0.00    +0.000 A 
ATOM     23  C   UNL     1       9.750  13.840  21.845  0.00  0.00    +0.000 A 
ATOM     24  C   UNL     1       9.946  15.174  21.468  0.00  0.00    +0.000 A 
ATOM     25  C   UNL     1       9.835  15.555  20.139  0.00  0.00    +0.000 A 
ATOM     26  C   UNL     1       9.532  14.597  19.169  0.00  0.00    +0.000 A 
ATOM     27  C   UNL     1       9.352  13.259  19.556  0.00  0.00    +0.000 A 
ATOM     28  C   UNL     1       9.113  12.190  18.585  0.00  0.00    +0.000 A 
ATOM     29  O   UNL     1       8.975  12.459  17.395  0.00  0.00    +0.000 OA
ENDBRANCH  18  19
ENDBRANCH  17  18
ENDBRANCH   2  17
TORSDOF 5
ENDMDL
MODEL 6
REMARK VINA RESULT:      -8.8      5.415      8.022
REMARK  Name = 
REMARK  6 active torsions:
REMARK  status: ('A' for Active; 'I' for Inactive)
REMARK    1  A    between atoms: C_1  and  C_2
REMARK    2  A    between atoms: C_2  and  N_3
REMARK    3  A    between atoms: C_2  and  C_19
REMARK    4  A    between atoms: C_4  and  C_6
REMARK    5  A    between atoms: C_6  and  C_7
REMARK    6  A    between atoms: C_7  and  N_8
REMARK                            x       y       z     vdW  Elec       q    Type
REMARK                         _______ _______ _______ _____ _____    ______ ____
ROOT
ATOM      1  N   UNL     1       5.050   4.556  18.767  0.00  0.00    +0.000 N 
ATOM      2  C   UNL     1       6.358   4.927  18.968  0.00  0.00    +0.000 C 
ATOM      3  O   UNL     1       6.761   5.425  20.015  0.00  0.00    +0.000 OA
ATOM      4  H   UNL     1       4.786   4.135  17.886  0.00  0.00    +0.000 HD
ENDROOT
BRANCH   1   6
ATOM      5  C   UNL     1       3.320   3.361  20.032  0.00  0.00    +0.000 C 
ATOM      6  C   UNL     1       3.983   4.706  19.765  0.00  0.00    +0.000 C 
BRANCH   6   7
ATOM      7  C   UNL     1       3.080   5.823  19.264  0.00  0.00    +0.000 A 
ATOM      8  C   UNL     1       3.235   6.516  18.059  0.00  0.00    +0.000 A 
ATOM      9  C   UNL     1       2.615   7.764  17.883  0.00  0.00    +0.000 A 
ATOM     10  C   UNL     1       1.890   8.364  18.928  0.00  0.00    +0.000 A 
ATOM     11  C   UNL     1       1.671   7.631  20.094  0.00  0.00    +0.000 A 
ATOM     12  C   UNL     1       2.193   6.342  20.212  0.00  0.00    +0.000 A 
ATOM     13  C   UNL     1       0.940   8.181  21.277  0.00  0.00    +0.000 C 
ATOM     14  C   UNL     1       0.965   9.693  21.381  0.00  0.00    +0.000 C 
ATOM     15  C   UNL     1       0.893  10.467  20.071  0.00  0.00    +0.000 C 
ATOM     16  C   UNL     1       1.388   9.776  18.792  0.00  0.00    +0.000 C 
ENDBRANCH   6   7
ENDBRANCH   1   6
BRANCH   2  17
ATOM     17  C   UNL     1       7.250   4.722  17.748  0.00  0.00    +0.000 C 
BRANCH  17  18
ATOM     18  C   UNL     1       7.093   5.879  16.769  0.00  0.00    +0.000 C 
BRANCH  18  19
ATOM     19  N   UNL     1       6.957   5.461  15.372  0.00  0.00    +0.000 N 
ATOM     20  N   UNL     1       8.040   5.698  14.570  0.00  0.00    +0.000 NA
ATOM     21  N   UNL     1       8.095   5.263  13.399  0.00  0.00    +0.000 NA
ATOM     22  C   UNL     1       7.078   4.438  12.907  0.00  0.00    +0.000 A 
ATOM     23  C   UNL     1       7.248   3.831  11.657  0.00  0.00    +0.000 A 
ATOM     24  C   UNL     1       6.259   2.986  11.140  0.00  0.00    +0.000 A 
ATOM     25  C   UNL     1       5.090   2.751  11.851  0.00  0.00    +0.000 A 
ATOM     26  C   UNL     1       4.906   3.356  13.096  0.00  0.00    +0.000 A 
ATOM     27  C   UNL     1       5.912   4.190  13.611  0.00  0.00    +0.000 A 
ATOM     28  C   UNL     1       5.822   4.792  14.943  0.00  0.00    +0.000 A 
ATOM     29  O   UNL     1       4.804   4.649  15.615  0.00  0.00    +0.000 OA
ENDBRANCH  18  19
ENDBRANCH  17  18
ENDBRANCH   2  17
TORSDOF 5
ENDMDL
MODEL 7
REMARK VINA RESULT:      -8.7      6.062      8.481
REMARK  Name = 
REMARK  6 active torsions:
REMARK  status: ('A' for Active; 'I' for Inactive)
REMARK    1  A    between atoms: C_1  and  C_2
REMARK    2  A    between atoms: C_2  and  N_3
REMARK    3  A    between atoms: C_2  and  C_19
REMARK    4  A    between atoms: C_4  and  C_6
REMARK    5  A    between atoms: C_6  and  C_7
REMARK    6  A    between atoms: C_7  and  N_8
REMARK                            x       y       z     vdW  Elec       q    Type
REMARK                         _______ _______ _______ _____ _____    ______ ____
ROOT
ATOM      1  N   UNL     1       2.692   5.766  19.731  0.00  0.00    +0.000 N 
ATOM      2  C   UNL     1       2.041   4.562  19.856  0.00  0.00    +0.000 C 
ATOM      3  O   UNL     1       0.982   4.309  19.290  0.00  0.00    +0.000 OA
ATOM      4  H   UNL     1       3.571   5.904  20.211  0.00  0.00    +0.000 HD
ENDROOT
BRANCH   1   6
ATOM      5  C   UNL     1       3.239   7.240  17.847  0.00  0.00    +0.000 C 
ATOM      6  C   UNL     1       2.211   6.887  18.913  0.00  0.00    +0.000 C 
BRANCH   6   7
ATOM      7  C   UNL     1       1.829   7.994  19.884  0.00  0.00    +0.000 A 
ATOM      8  C   UNL     1       1.588   7.828  21.252  0.00  0.00    +0.000 A 
ATOM      9  C   UNL     1       0.866   8.804  21.959  0.00  0.00    +0.000 A 
ATOM     10  C   UNL     1       0.320   9.919  21.300  0.00  0.00    +0.000 A 
ATOM     11  C   UNL     1       0.635  10.118  19.955  0.00  0.00    +0.000 A 
ATOM     12  C   UNL     1       1.453   9.203  19.291  0.00  0.00    +0.000 A 
ATOM     13  C   UNL     1       0.087  11.252  19.150  0.00  0.00    +0.000 C 
ATOM     14  C   UNL     1      -1.227  11.808  19.663  0.00  0.00    +0.000 C 
ATOM     15  C   UNL     1      -1.403  11.852  21.175  0.00  0.00    +0.000 C 
ATOM     16  C   UNL     1      -0.604  10.857  22.028  0.00  0.00    +0.000 C 
ENDBRANCH   6   7
ENDBRANCH   1   6
BRANCH   2  17
ATOM     17  C   UNL     1       2.722   3.591  20.815  0.00  0.00    +0.000 C 
BRANCH  17  18
ATOM     18  C   UNL     1       3.754   2.746  20.079  0.00  0.00    +0.000 C 
BRANCH  18  19
ATOM     19  N   UNL     1       4.508   3.481  19.061  0.00  0.00    +0.000 N 
ATOM     20  N   UNL     1       5.568   4.216  19.518  0.00  0.00    +0.000 NA
ATOM     21  N   UNL     1       6.366   4.772  18.732  0.00  0.00    +0.000 NA
ATOM     22  C   UNL     1       6.244   4.579  17.352  0.00  0.00    +0.000 A 
ATOM     23  C   UNL     1       7.246   5.073  16.510  0.00  0.00    +0.000 A 
ATOM     24  C   UNL     1       7.165   4.885  15.126  0.00  0.00    +0.000 A 
ATOM     25  C   UNL     1       6.084   4.220  14.567  0.00  0.00    +0.000 A 
ATOM     26  C   UNL     1       5.073   3.728  15.395  0.00  0.00    +0.000 A 
ATOM     27  C   UNL     1       5.172   3.910  16.784  0.00  0.00    +0.000 A 
ATOM     28  C   UNL     1       4.192   3.351  17.718  0.00  0.00    +0.000 A 
ATOM     29  O   UNL     1       3.195   2.775  17.292  0.00  0.00    +0.000 OA
ENDBRANCH  18  19
ENDBRANCH  17  18
ENDBRANCH   2  17
TORSDOF 5
ENDMDL
MODEL 8
REMARK VINA RESULT:      -8.7      1.950     10.286
REMARK  Name = 
REMARK  6 active torsions:
REMARK  status: ('A' for Active; 'I' for Inactive)
REMARK    1  A    between atoms: C_1  and  C_2
REMARK    2  A    between atoms: C_2  and  N_3
REMARK    3  A    between atoms: C_2  and  C_19
REMARK    4  A    between atoms: C_4  and  C_6
REMARK    5  A    between atoms: C_6  and  C_7
REMARK    6  A    between atoms: C_7  and  N_8
REMARK                            x       y       z     vdW  Elec       q    Type
REMARK                         _______ _______ _______ _____ _____    ______ ____
ROOT
ATOM      1  N   UNL     1       8.448   9.511  18.104  0.00  0.00    +0.000 N 
ATOM      2  C   UNL     1       8.124   8.185  18.258  0.00  0.00    +0.000 C 
ATOM      3  O   UNL     1       8.697   7.441  19.047  0.00  0.00    +0.000 OA
ATOM      4  H   UNL     1       7.925  10.075  17.448  0.00  0.00    +0.000 HD
ENDROOT
BRANCH   1   6
ATOM      5  C   UNL     1       9.058  10.453  20.287  0.00  0.00    +0.000 C 
ATOM      6  C   UNL     1       9.508  10.198  18.855  0.00  0.00    +0.000 C 
BRANCH   6   7
ATOM      7  C   UNL     1       9.893  11.419  18.034  0.00  0.00    +0.000 A 
ATOM      8  C   UNL     1      11.174  11.700  17.544  0.00  0.00    +0.000 A 
ATOM      9  C   UNL     1      11.506  13.009  17.161  0.00  0.00    +0.000 A 
ATOM     10  C   UNL     1      10.590  14.064  17.323  0.00  0.00    +0.000 A 
ATOM     11  C   UNL     1       9.291  13.762  17.733  0.00  0.00    +0.000 A 
ATOM     12  C   UNL     1       8.937  12.438  17.997  0.00  0.00    +0.000 A 
ATOM     13  C   UNL     1       8.247  14.807  17.965  0.00  0.00    +0.000 C 
ATOM     14  C   UNL     1       8.797  16.180  18.297  0.00  0.00    +0.000 C 
ATOM     15  C   UNL     1      10.077  16.592  17.581  0.00  0.00    +0.000 C 
ATOM     16  C   UNL     1      11.018  15.486  17.083  0.00  0.00    +0.000 C 
ENDBRANCH   6   7
ENDBRANCH   1   6
BRANCH   2  17
ATOM     17  C   UNL     1       7.027   7.706  17.312  0.00  0.00    +0.000 C 
BRANCH  17  18
ATOM     18  C   UNL     1       7.297   6.277  16.858  0.00  0.00    +0.000 C 
BRANCH  18  19
ATOM     19  N   UNL     1       6.397   5.285  17.452  0.00  0.00    +0.000 N 
ATOM     20  N   UNL     1       6.687   4.908  18.735  0.00  0.00    +0.000 NA
ATOM     21  N   UNL     1       5.916   4.176  19.392  0.00  0.00    +0.000 NA
ATOM     22  C   UNL     1       4.682   3.795  18.856  0.00  0.00    +0.000 A 
ATOM     23  C   UNL     1       3.770   3.119  19.675  0.00  0.00    +0.000 A 
ATOM     24  C   UNL     1       2.519   2.736  19.177  0.00  0.00    +0.000 A 
ATOM     25  C   UNL     1       2.171   3.007  17.862  0.00  0.00    +0.000 A 
ATOM     26  C   UNL     1       3.074   3.674  17.032  0.00  0.00    +0.000 A 
ATOM     27  C   UNL     1       4.320   4.067  17.547  0.00  0.00    +0.000 A 
ATOM     28  C   UNL     1       5.283   4.840  16.759  0.00  0.00    +0.000 A 
ATOM     29  O   UNL     1       5.052   5.091  15.580  0.00  0.00    +0.000 OA
ENDBRANCH  18  19
ENDBRANCH  17  18
ENDBRANCH   2  17
TORSDOF 5
ENDMDL
MODEL 9
REMARK VINA RESULT:      -8.7      1.768     10.396
REMARK  Name = 
REMARK  6 active torsions:
REMARK  status: ('A' for Active; 'I' for Inactive)
REMARK    1  A    between atoms: C_1  and  C_2
REMARK    2  A    between atoms: C_2  and  N_3
REMARK    3  A    between atoms: C_2  and  C_19
REMARK    4  A    between atoms: C_4  and  C_6
REMARK    5  A    between atoms: C_6  and  C_7
REMARK    6  A    between atoms: C_7  and  N_8
REMARK                            x       y       z     vdW  Elec       q    Type
REMARK                         _______ _______ _______ _____ _____    ______ ____
ROOT
ATOM      1  N   UNL     1       8.621   9.955  18.133  0.00  0.00    +0.000 N 
ATOM      2  C   UNL     1       8.284   8.631  18.282  0.00  0.00    +0.000 C 
ATOM      3  O   UNL     1       8.843   7.882  19.076  0.00  0.00    +0.000 OA
ATOM      4  H   UNL     1       8.109  10.523  17.471  0.00  0.00    +0.000 HD
ENDROOT
BRANCH   1   6
ATOM      5  C   UNL     1       9.190  10.946  20.304  0.00  0.00    +0.000 C 
ATOM      6  C   UNL     1       9.677  10.633  18.896  0.00  0.00    +0.000 C 
BRANCH   6   7
ATOM      7  C   UNL     1      10.125  11.815  18.051  0.00  0.00    +0.000 A 
ATOM      8  C   UNL     1      11.406  11.993  17.514  0.00  0.00    +0.000 A 
ATOM      9  C   UNL     1      11.823  13.270  17.107  0.00  0.00    +0.000 A 
ATOM     10  C   UNL     1      10.998  14.394  17.291  0.00  0.00    +0.000 A 
ATOM     11  C   UNL     1       9.696  14.196  17.749  0.00  0.00    +0.000 A 
ATOM     12  C   UNL     1       9.250  12.905  18.038  0.00  0.00    +0.000 A 
ATOM     13  C   UNL     1       8.744  15.319  18.008  0.00  0.00    +0.000 C 
ATOM     14  C   UNL     1       9.409  16.648  18.309  0.00  0.00    +0.000 C 
ATOM     15  C   UNL     1      10.691  16.955  17.544  0.00  0.00    +0.000 C 
ATOM     16  C   UNL     1      11.525  15.777  17.024  0.00  0.00    +0.000 C 
ENDBRANCH   6   7
ENDBRANCH   1   6
BRANCH   2  17
ATOM     17  C   UNL     1       7.194   8.162  17.323  0.00  0.00    +0.000 C 
BRANCH  17  18
ATOM     18  C   UNL     1       7.101   6.641  17.321  0.00  0.00    +0.000 C 
BRANCH  18  19
ATOM     19  N   UNL     1       5.779   6.126  17.687  0.00  0.00    +0.000 N 
ATOM     20  N   UNL     1       4.718   6.933  17.380  0.00  0.00    +0.000 NA
ATOM     21  N   UNL     1       3.538   6.543  17.516  0.00  0.00    +0.000 NA
ATOM     22  C   UNL     1       3.273   5.227  17.905  0.00  0.00    +0.000 A 
ATOM     23  C   UNL     1       1.950   4.771  17.886  0.00  0.00    +0.000 A 
ATOM     24  C   UNL     1       1.649   3.454  18.254  0.00  0.00    +0.000 A 
ATOM     25  C   UNL     1       2.655   2.587  18.656  0.00  0.00    +0.000 A 
ATOM     26  C   UNL     1       3.978   3.032  18.686  0.00  0.00    +0.000 A 
ATOM     27  C   UNL     1       4.270   4.350  18.301  0.00  0.00    +0.000 A 
ATOM     28  C   UNL     1       5.641   4.859  18.231  0.00  0.00    +0.000 A 
ATOM     29  O   UNL     1       6.578   4.155  18.598  0.00  0.00    +0.000 OA
ENDBRANCH  18  19
ENDBRANCH  17  18
ENDBRANCH   2  17
TORSDOF 5
ENDMDL
