MODEL 1
REMARK VINA RESULT:      -7.5      0.000      0.000
REMARK  Name = 
REMARK  3 active torsions:
REMARK  status: ('A' for Active; 'I' for Inactive)
REMARK    1  A    between atoms: C_1  and  C_2
REMARK    2  A    between atoms: C_11  and  C_12
REMARK    3  A    between atoms: C_20  and  C_21
REMARK                            x       y       z     vdW  Elec       q    Type
REMARK                         _______ _______ _______ _____ _____    ______ ____
ROOT
ATOM      1  C   UNL     1      -0.762  14.600  23.535  0.00  0.00    +0.000 C 
ATOM      2  C   UNL     1      -2.002  14.548  22.659  0.00  0.00    +0.000 C 
ATOM      3  C   UNL     1      -3.346  14.183  23.309  0.00  0.00    +0.000 C 
ATOM      4  N   UNL     1      -3.484  13.126  22.365  0.00  0.00    +0.000 N 
ATOM      5  C   UNL     1      -4.606  12.882  21.598  0.00  0.00    +0.000 A 
ATOM      6  C   UNL     1      -5.983  13.126  22.152  0.00  0.00    +0.000 A 
ATOM      7  C   UNL     1      -7.054  12.782  21.426  0.00  0.00    +0.000 A 
ATOM      8  C   UNL     1      -6.865  12.195  20.159  0.00  0.00    +0.000 A 
ATOM      9  N   UNL     1      -7.698  11.761  19.243  0.00  0.00    +0.000 NA
ATOM     10  N   UNL     1      -6.947  11.261  18.202  0.00  0.00    +0.000 NA
ATOM     11  C   UNL     1      -5.663  11.376  18.509  0.00  0.00    +0.000 A 
ATOM     12  N   UNL     1      -5.569  12.008  19.741  0.00  0.00    +0.000 N 
ATOM     13  N   UNL     1      -4.435  12.355  20.411  0.00  0.00    +0.000 NA
ATOM     14  C   UNL     1      -2.207  13.331  21.731  0.00  0.00    +0.000 C 
ENDROOT
BRANCH  11  15
ATOM     15  C   UNL     1      -4.531  10.943  17.679  0.00  0.00    +0.000 A 
ATOM     16  C   UNL     1      -4.389  11.450  16.378  0.00  0.00    +0.000 A 
ATOM     17  C   UNL     1      -3.299  11.086  15.581  0.00  0.00    +0.000 A 
ATOM     18  C   UNL     1      -2.340  10.201  16.067  0.00  0.00    +0.000 A 
ATOM     19  C   UNL     1      -2.481   9.662  17.342  0.00  0.00    +0.000 A 
ATOM     20  C   UNL     1      -3.573  10.023  18.135  0.00  0.00    +0.000 A 
ENDBRANCH  11  15
BRANCH  14  21
ATOM     21  C   UNL     1      -1.310  12.024  21.881  0.00  0.00    +0.000 A 
ATOM     22  C   UNL     1      -0.376  11.657  20.892  0.00  0.00    +0.000 A 
ATOM     23  C   UNL     1       0.418  10.512  21.011  0.00  0.00    +0.000 A 
ATOM     24  C   UNL     1       0.302   9.694  22.131  0.00  0.00    +0.000 A 
ATOM     25  C   UNL     1      -0.608  10.019  23.128  0.00  0.00    +0.000 A 
ATOM     26  C   UNL     1      -1.397  11.162  22.998  0.00  0.00    +0.000 A 
ENDBRANCH  14  21
TORSDOF 2
ENDMDL
MODEL 2
REMARK VINA RESULT:      -7.1      2.146      3.569
REMARK  Name = 
REMARK  3 active torsions:
REMARK  status: ('A' for Active; 'I' for Inactive)
REMARK    1  A    between atoms: C_1  and  C_2
REMARK    2  A    between atoms: C_11  and  C_12
REMARK    3  A    between atoms: C_20  and  C_21
REMARK                            x       y       z     vdW  Elec       q    Type
REMARK                         _______ _______ _______ _____ _____    ______ ____
ROOT
ATOM      1  C   UNL     1       0.663  14.113  21.556  0.00  0.00    +0.000 C 
ATOM      2  C   UNL     1      -0.763  14.249  22.061  0.00  0.00    +0.000 C 
ATOM      3  C   UNL     1      -1.162  13.508  23.347  0.00  0.00    +0.000 C 
ATOM      4  N   UNL     1      -2.215  12.879  22.625  0.00  0.00    +0.000 N 
ATOM      5  C   UNL     1      -3.533  12.812  23.032  0.00  0.00    +0.000 A 
ATOM      6  C   UNL     1      -3.880  12.662  24.489  0.00  0.00    +0.000 A 
ATOM      7  C   UNL     1      -5.160  12.495  24.845  0.00  0.00    +0.000 A 
ATOM      8  C   UNL     1      -6.152  12.458  23.846  0.00  0.00    +0.000 A 
ATOM      9  N   UNL     1      -7.455  12.307  23.885  0.00  0.00    +0.000 NA
ATOM     10  N   UNL     1      -7.916  12.331  22.588  0.00  0.00    +0.000 NA
ATOM     11  C   UNL     1      -6.883  12.473  21.770  0.00  0.00    +0.000 A 
ATOM     12  N   UNL     1      -5.737  12.599  22.543  0.00  0.00    +0.000 N 
ATOM     13  N   UNL     1      -4.461  12.798  22.108  0.00  0.00    +0.000 NA
ATOM     14  C   UNL     1      -1.883  13.459  21.349  0.00  0.00    +0.000 C 
ENDROOT
BRANCH  11  15
ATOM     15  C   UNL     1      -6.938  12.525  20.304  0.00  0.00    +0.000 A 
ATOM     16  C   UNL     1      -6.735  11.352  19.560  0.00  0.00    +0.000 A 
ATOM     17  C   UNL     1      -6.821  11.364  18.164  0.00  0.00    +0.000 A 
ATOM     18  C   UNL     1      -7.100  12.550  17.490  0.00  0.00    +0.000 A 
ATOM     19  C   UNL     1      -7.272  13.729  18.207  0.00  0.00    +0.000 A 
ATOM     20  C   UNL     1      -7.180  13.716  19.602  0.00  0.00    +0.000 A 
ENDBRANCH  11  15
BRANCH  14  21
ATOM     21  C   UNL     1      -1.539  12.309  20.303  0.00  0.00    +0.000 A 
ATOM     22  C   UNL     1      -1.889  12.425  18.943  0.00  0.00    +0.000 A 
ATOM     23  C   UNL     1      -1.592  11.423  18.013  0.00  0.00    +0.000 A 
ATOM     24  C   UNL     1      -0.932  10.267  18.419  0.00  0.00    +0.000 A 
ATOM     25  C   UNL     1      -0.572  10.112  19.750  0.00  0.00    +0.000 A 
ATOM     26  C   UNL     1      -0.874  11.116  20.669  0.00  0.00    +0.000 A 
ENDBRANCH  14  21
TORSDOF 2
ENDMDL
MODEL 3
REMARK VINA RESULT:      -7.0      2.070      6.861
REMARK  Name = 
REMARK  3 active torsions:
REMARK  status: ('A' for Active; 'I' for Inactive)
REMARK    1  A    between atoms: C_1  and  C_2
REMARK    2  A    between atoms: C_11  and  C_12
REMARK    3  A    between atoms: C_20  and  C_21
REMARK                            x       y       z     vdW  Elec       q    Type
REMARK                         _______ _______ _______ _____ _____    ______ ____
ROOT
ATOM      1  C   UNL     1      -7.086  12.535  16.991  0.00  0.00    +0.000 C 
ATOM      2  C   UNL     1      -5.622  12.707  17.357  0.00  0.00    +0.000 C 
ATOM      3  C   UNL     1      -4.628  11.610  16.947  0.00  0.00    +0.000 C 
ATOM      4  N   UNL     1      -4.236  11.493  18.311  0.00  0.00    +0.000 N 
ATOM      5  C   UNL     1      -2.934  11.499  18.771  0.00  0.00    +0.000 A 
ATOM      6  C   UNL     1      -1.832  10.866  17.966  0.00  0.00    +0.000 A 
ATOM      7  C   UNL     1      -0.599  10.794  18.484  0.00  0.00    +0.000 A 
ATOM      8  C   UNL     1      -0.364  11.311  19.772  0.00  0.00    +0.000 A 
ATOM      9  N   UNL     1       0.708  11.380  20.526  0.00  0.00    +0.000 NA
ATOM     10  N   UNL     1       0.346  11.976  21.713  0.00  0.00    +0.000 NA
ATOM     11  C   UNL     1      -0.952  12.243  21.677  0.00  0.00    +0.000 A 
ATOM     12  N   UNL     1      -1.435  11.867  20.432  0.00  0.00    +0.000 N 
ATOM     13  N   UNL     1      -2.707  11.998  19.961  0.00  0.00    +0.000 NA
ATOM     14  C   UNL     1      -5.185  12.451  18.816  0.00  0.00    +0.000 C 
ENDROOT
BRANCH  11  15
ATOM     15  C   UNL     1      -1.741  12.860  22.752  0.00  0.00    +0.000 A 
ATOM     16  C   UNL     1      -1.253  14.003  23.402  0.00  0.00    +0.000 A 
ATOM     17  C   UNL     1      -2.001  14.635  24.401  0.00  0.00    +0.000 A 
ATOM     18  C   UNL     1      -3.243  14.126  24.773  0.00  0.00    +0.000 A 
ATOM     19  C   UNL     1      -3.728  12.974  24.163  0.00  0.00    +0.000 A 
ATOM     20  C   UNL     1      -2.977  12.342  23.169  0.00  0.00    +0.000 A 
ENDBRANCH  11  15
BRANCH  14  21
ATOM     21  C   UNL     1      -6.166  11.749  19.856  0.00  0.00    +0.000 A 
ATOM     22  C   UNL     1      -6.604  10.423  19.671  0.00  0.00    +0.000 A 
ATOM     23  C   UNL     1      -7.465   9.794  20.576  0.00  0.00    +0.000 A 
ATOM     24  C   UNL     1      -7.916  10.477  21.701  0.00  0.00    +0.000 A 
ATOM     25  C   UNL     1      -7.510  11.786  21.919  0.00  0.00    +0.000 A 
ATOM     26  C   UNL     1      -6.653  12.405  21.010  0.00  0.00    +0.000 A 
ENDBRANCH  14  21
TORSDOF 2
ENDMDL
MODEL 4
REMARK VINA RESULT:      -7.0      1.488      5.890
REMARK  Name = 
REMARK  3 active torsions:
REMARK  status: ('A' for Active; 'I' for Inactive)
REMARK    1  A    between atoms: C_1  and  C_2
REMARK    2  A    between atoms: C_11  and  C_12
REMARK    3  A    between atoms: C_20  and  C_21
REMARK                            x       y       z     vdW  Elec       q    Type
REMARK                         _______ _______ _______ _____ _____    ______ ____
ROOT
ATOM      1  C   UNL     1      -7.151  11.498  18.026  0.00  0.00    +0.000 C 
ATOM      2  C   UNL     1      -6.417  11.966  19.270  0.00  0.00    +0.000 C 
ATOM      3  C   UNL     1      -6.087  13.460  19.411  0.00  0.00    +0.000 C 
ATOM      4  N   UNL     1      -4.717  13.115  19.577  0.00  0.00    +0.000 N 
ATOM      5  C   UNL     1      -3.894  13.574  20.586  0.00  0.00    +0.000 A 
ATOM      6  C   UNL     1      -4.036  14.974  21.116  0.00  0.00    +0.000 A 
ATOM      7  C   UNL     1      -3.159  15.427  22.021  0.00  0.00    +0.000 A 
ATOM      8  C   UNL     1      -2.119  14.580  22.453  0.00  0.00    +0.000 A 
ATOM      9  N   UNL     1      -1.132  14.739  23.302  0.00  0.00    +0.000 NA
ATOM     10  N   UNL     1      -0.401  13.572  23.315  0.00  0.00    +0.000 NA
ATOM     11  C   UNL     1      -0.940  12.723  22.452  0.00  0.00    +0.000 A 
ATOM     12  N   UNL     1      -2.069  13.319  21.908  0.00  0.00    +0.000 N 
ATOM     13  N   UNL     1      -2.938  12.782  21.006  0.00  0.00    +0.000 NA
ATOM     14  C   UNL     1      -4.899  11.699  19.381  0.00  0.00    +0.000 C 
ENDROOT
BRANCH  11  15
ATOM     15  C   UNL     1      -0.452  11.371  22.145  0.00  0.00    +0.000 A 
ATOM     16  C   UNL     1      -0.753  10.311  23.013  0.00  0.00    +0.000 A 
ATOM     17  C   UNL     1      -0.336   9.007  22.726  0.00  0.00    +0.000 A 
ATOM     18  C   UNL     1       0.398   8.746  21.572  0.00  0.00    +0.000 A 
ATOM     19  C   UNL     1       0.734   9.789  20.715  0.00  0.00    +0.000 A 
ATOM     20  C   UNL     1       0.321  11.091  21.008  0.00  0.00    +0.000 A 
ENDBRANCH  11  15
BRANCH  14  21
ATOM     21  C   UNL     1      -4.057  11.211  18.122  0.00  0.00    +0.000 A 
ATOM     22  C   UNL     1      -2.917  10.396  18.272  0.00  0.00    +0.000 A 
ATOM     23  C   UNL     1      -2.168   9.960  17.174  0.00  0.00    +0.000 A 
ATOM     24  C   UNL     1      -2.538  10.328  15.885  0.00  0.00    +0.000 A 
ATOM     25  C   UNL     1      -3.654  11.132  15.693  0.00  0.00    +0.000 A 
ATOM     26  C   UNL     1      -4.393  11.563  16.795  0.00  0.00    +0.000 A 
ENDBRANCH  14  21
TORSDOF 2
ENDMDL
MODEL 5
REMARK VINA RESULT:      -6.9      2.054      4.040
REMARK  Name = 
REMARK  3 active torsions:
REMARK  status: ('A' for Active; 'I' for Inactive)
REMARK    1  A    between atoms: C_1  and  C_2
REMARK    2  A    between atoms: C_11  and  C_12
REMARK    3  A    between atoms: C_20  and  C_21
REMARK                            x       y       z     vdW  Elec       q    Type
REMARK                         _______ _______ _______ _____ _____    ______ ____
ROOT
ATOM      1  C   UNL     1       0.675  13.384  20.706  0.00  0.00    +0.000 C 
ATOM      2  C   UNL     1      -0.640  13.692  21.401  0.00  0.00    +0.000 C 
ATOM      3  C   UNL     1      -0.984  12.933  22.692  0.00  0.00    +0.000 C 
ATOM      4  N   UNL     1      -2.202  12.511  22.088  0.00  0.00    +0.000 N 
ATOM      5  C   UNL     1      -3.454  12.608  22.662  0.00  0.00    +0.000 A 
ATOM      6  C   UNL     1      -3.637  12.415  24.143  0.00  0.00    +0.000 A 
ATOM      7  C   UNL     1      -4.873  12.411  24.657  0.00  0.00    +0.000 A 
ATOM      8  C   UNL     1      -5.975  12.583  23.797  0.00  0.00    +0.000 A 
ATOM      9  N   UNL     1      -7.271  12.620  24.001  0.00  0.00    +0.000 NA
ATOM     10  N   UNL     1      -7.880  12.796  22.779  0.00  0.00    +0.000 NA
ATOM     11  C   UNL     1      -6.947  12.840  21.840  0.00  0.00    +0.000 A 
ATOM     12  N   UNL     1      -5.708  12.748  22.459  0.00  0.00    +0.000 N 
ATOM     13  N   UNL     1      -4.480  12.789  21.869  0.00  0.00    +0.000 NA
ATOM     14  C   UNL     1      -1.946  13.119  20.807  0.00  0.00    +0.000 C 
ENDROOT
BRANCH  11  15
ATOM     15  C   UNL     1      -7.174  12.995  20.397  0.00  0.00    +0.000 A 
ATOM     16  C   UNL     1      -6.889  11.930  19.530  0.00  0.00    +0.000 A 
ATOM     17  C   UNL     1      -7.133  12.035  18.157  0.00  0.00    +0.000 A 
ATOM     18  C   UNL     1      -7.656  13.212  17.628  0.00  0.00    +0.000 A 
ATOM     19  C   UNL     1      -7.915  14.291  18.466  0.00  0.00    +0.000 A 
ATOM     20  C   UNL     1      -7.665  14.185  19.837  0.00  0.00    +0.000 A 
ENDBRANCH  11  15
BRANCH  14  21
ATOM     21  C   UNL     1      -1.912  12.004  19.672  0.00  0.00    +0.000 A 
ATOM     22  C   UNL     1      -0.874  11.054  19.607  0.00  0.00    +0.000 A 
ATOM     23  C   UNL     1      -0.832  10.068  18.616  0.00  0.00    +0.000 A 
ATOM     24  C   UNL     1      -1.834  10.002  17.653  0.00  0.00    +0.000 A 
ATOM     25  C   UNL     1      -2.874  10.921  17.680  0.00  0.00    +0.000 A 
ATOM     26  C   UNL     1      -2.906  11.901  18.671  0.00  0.00    +0.000 A 
ENDBRANCH  14  21
TORSDOF 2
ENDMDL
MODEL 6
REMARK VINA RESULT:      -6.9      2.069      3.869
REMARK  Name = 
REMARK  3 active torsions:
REMARK  status: ('A' for Active; 'I' for Inactive)
REMARK    1  A    between atoms: C_1  and  C_2
REMARK    2  A    between atoms: C_11  and  C_12
REMARK    3  A    between atoms: C_20  and  C_21
REMARK                            x       y       z     vdW  Elec       q    Type
REMARK                         _______ _______ _______ _____ _____    ______ ____
ROOT
ATOM      1  C   UNL     1       0.754  13.698  20.456  0.00  0.00    +0.000 C 
ATOM      2  C   UNL     1      -0.573  13.957  21.148  0.00  0.00    +0.000 C 
ATOM      3  C   UNL     1      -0.854  13.256  22.486  0.00  0.00    +0.000 C 
ATOM      4  N   UNL     1      -2.045  12.718  21.922  0.00  0.00    +0.000 N 
ATOM      5  C   UNL     1      -3.296  12.764  22.505  0.00  0.00    +0.000 A 
ATOM      6  C   UNL     1      -3.453  12.648  23.997  0.00  0.00    +0.000 A 
ATOM      7  C   UNL     1      -4.682  12.592  24.526  0.00  0.00    +0.000 A 
ATOM      8  C   UNL     1      -5.800  12.638  23.670  0.00  0.00    +0.000 A 
ATOM      9  N   UNL     1      -7.094  12.600  23.888  0.00  0.00    +0.000 NA
ATOM     10  N   UNL     1      -7.724  12.661  22.665  0.00  0.00    +0.000 NA
ATOM     11  C   UNL     1      -6.804  12.712  21.714  0.00  0.00    +0.000 A 
ATOM     12  N   UNL     1      -5.556  12.740  22.321  0.00  0.00    +0.000 N 
ATOM     13  N   UNL     1      -4.339  12.828  21.715  0.00  0.00    +0.000 NA
ATOM     14  C   UNL     1      -1.842  13.264  20.605  0.00  0.00    +0.000 C 
ENDROOT
BRANCH  11  15
ATOM     15  C   UNL     1      -7.053  12.765  20.267  0.00  0.00    +0.000 A 
ATOM     16  C   UNL     1      -7.681  13.890  19.711  0.00  0.00    +0.000 A 
ATOM     17  C   UNL     1      -7.895  13.985  18.333  0.00  0.00    +0.000 A 
ATOM     18  C   UNL     1      -7.495  12.951  17.490  0.00  0.00    +0.000 A 
ATOM     19  C   UNL     1      -6.901  11.813  18.025  0.00  0.00    +0.000 A 
ATOM     20  C   UNL     1      -6.693  11.719  19.403  0.00  0.00    +0.000 A 
ENDBRANCH  11  15
BRANCH  14  21
ATOM     21  C   UNL     1      -1.742  12.087  19.538  0.00  0.00    +0.000 A 
ATOM     22  C   UNL     1      -2.698  11.942  18.513  0.00  0.00    +0.000 A 
ATOM     23  C   UNL     1      -2.622  10.913  17.569  0.00  0.00    +0.000 A 
ATOM     24  C   UNL     1      -1.580   9.992  17.621  0.00  0.00    +0.000 A 
ATOM     25  C   UNL     1      -0.619  10.098  18.617  0.00  0.00    +0.000 A 
ATOM     26  C   UNL     1      -0.705  11.126  19.554  0.00  0.00    +0.000 A 
ENDBRANCH  14  21
TORSDOF 2
ENDMDL
MODEL 7
REMARK VINA RESULT:      -6.7      1.776      2.795
REMARK  Name = 
REMARK  3 active torsions:
REMARK  status: ('A' for Active; 'I' for Inactive)
REMARK    1  A    between atoms: C_1  and  C_2
REMARK    2  A    between atoms: C_11  and  C_12
REMARK    3  A    between atoms: C_20  and  C_21
REMARK                            x       y       z     vdW  Elec       q    Type
REMARK                         _______ _______ _______ _____ _____    ______ ____
ROOT
ATOM      1  C   UNL     1       2.603  13.412  20.898  0.00  0.00    +0.000 C 
ATOM      2  C   UNL     1       1.133  13.702  20.647  0.00  0.00    +0.000 C 
ATOM      3  C   UNL     1       0.155  13.620  21.830  0.00  0.00    +0.000 C 
ATOM      4  N   UNL     1      -0.619  12.682  21.091  0.00  0.00    +0.000 N 
ATOM      5  C   UNL     1      -1.984  12.751  20.896  0.00  0.00    +0.000 A 
ATOM      6  C   UNL     1      -2.889  13.275  21.978  0.00  0.00    +0.000 A 
ATOM      7  C   UNL     1      -4.215  13.233  21.802  0.00  0.00    +0.000 A 
ATOM      8  C   UNL     1      -4.734  12.695  20.608  0.00  0.00    +0.000 A 
ATOM      9  N   UNL     1      -5.956  12.520  20.164  0.00  0.00    +0.000 NA
ATOM     10  N   UNL     1      -5.866  11.922  18.926  0.00  0.00    +0.000 NA
ATOM     11  C   UNL     1      -4.589  11.717  18.643  0.00  0.00    +0.000 A 
ATOM     12  N   UNL     1      -3.828  12.236  19.681  0.00  0.00    +0.000 N 
ATOM     13  N   UNL     1      -2.470  12.270  19.779  0.00  0.00    +0.000 NA
ATOM     14  C   UNL     1       0.270  12.622  19.958  0.00  0.00    +0.000 C 
ENDROOT
BRANCH  11  15
ATOM     15  C   UNL     1      -4.060  11.083  17.428  0.00  0.00    +0.000 A 
ATOM     16  C   UNL     1      -3.167  10.007  17.538  0.00  0.00    +0.000 A 
ATOM     17  C   UNL     1      -2.679   9.358  16.399  0.00  0.00    +0.000 A 
ATOM     18  C   UNL     1      -3.068   9.784  15.132  0.00  0.00    +0.000 A 
ATOM     19  C   UNL     1      -3.926  10.870  15.000  0.00  0.00    +0.000 A 
ATOM     20  C   UNL     1      -4.408  11.519  16.140  0.00  0.00    +0.000 A 
ENDBRANCH  11  15
BRANCH  14  21
ATOM     21  C   UNL     1       0.809  11.136  19.769  0.00  0.00    +0.000 A 
ATOM     22  C   UNL     1       1.357  10.704  18.545  0.00  0.00    +0.000 A 
ATOM     23  C   UNL     1       1.835   9.402  18.366  0.00  0.00    +0.000 A 
ATOM     24  C   UNL     1       1.779   8.486  19.412  0.00  0.00    +0.000 A 
ATOM     25  C   UNL     1       1.245   8.871  20.634  0.00  0.00    +0.000 A 
ATOM     26  C   UNL     1       0.769  10.171  20.802  0.00  0.00    +0.000 A 
ENDBRANCH  14  21
TORSDOF 2
ENDMDL
MODEL 8
REMARK VINA RESULT:      -6.7      2.057      4.605
REMARK  Name = 
REMARK  3 active torsions:
REMARK  status: ('A' for Active; 'I' for Inactive)
REMARK    1  A    between atoms: C_1  and  C_2
REMARK    2  A    between atoms: C_11  and  C_12
REMARK    3  A    between atoms: C_20  and  C_21
REMARK                            x       y       z     vdW  Elec       q    Type
REMARK                         _______ _______ _______ _____ _____    ______ ____
ROOT
ATOM      1  C   UNL     1       0.740  12.592  19.338  0.00  0.00    +0.000 C 
ATOM      2  C   UNL     1      -0.350  13.104  20.263  0.00  0.00    +0.000 C 
ATOM      3  C   UNL     1      -0.580  12.381  21.600  0.00  0.00    +0.000 C 
ATOM      4  N   UNL     1      -1.942  12.193  21.233  0.00  0.00    +0.000 N 
ATOM      5  C   UNL     1      -3.030  12.489  22.030  0.00  0.00    +0.000 A 
ATOM      6  C   UNL     1      -2.970  12.290  23.520  0.00  0.00    +0.000 A 
ATOM      7  C   UNL     1      -4.072  12.486  24.254  0.00  0.00    +0.000 A 
ATOM      8  C   UNL     1      -5.265  12.871  23.613  0.00  0.00    +0.000 A 
ATOM      9  N   UNL     1      -6.475  13.125  24.054  0.00  0.00    +0.000 NA
ATOM     10  N   UNL     1      -7.258  13.437  22.965  0.00  0.00    +0.000 NA
ATOM     11  C   UNL     1      -6.520  13.345  21.868  0.00  0.00    +0.000 A 
ATOM     12  N   UNL     1      -5.224  13.023  22.247  0.00  0.00    +0.000 N 
ATOM     13  N   UNL     1      -4.137  12.867  21.439  0.00  0.00    +0.000 NA
ATOM     14  C   UNL     1      -1.823  12.783  19.925  0.00  0.00    +0.000 C 
ENDROOT
BRANCH  11  15
ATOM     15  C   UNL     1      -6.977  13.577  20.492  0.00  0.00    +0.000 A 
ATOM     16  C   UNL     1      -7.098  12.494  19.609  0.00  0.00    +0.000 A 
ATOM     17  C   UNL     1      -7.569  12.679  18.305  0.00  0.00    +0.000 A 
ATOM     18  C   UNL     1      -7.916  13.952  17.861  0.00  0.00    +0.000 A 
ATOM     19  C   UNL     1      -7.772  15.044  18.711  0.00  0.00    +0.000 A 
ATOM     20  C   UNL     1      -7.296  14.857  20.011  0.00  0.00    +0.000 A 
ENDBRANCH  11  15
BRANCH  14  21
ATOM     21  C   UNL     1      -2.194  11.710  18.809  0.00  0.00    +0.000 A 
ATOM     22  C   UNL     1      -3.481  11.659  18.238  0.00  0.00    +0.000 A 
ATOM     23  C   UNL     1      -3.820  10.721  17.257  0.00  0.00    +0.000 A 
ATOM     24  C   UNL     1      -2.876   9.800  16.815  0.00  0.00    +0.000 A 
ATOM     25  C   UNL     1      -1.597   9.814  17.353  0.00  0.00    +0.000 A 
ATOM     26  C   UNL     1      -1.269  10.752  18.332  0.00  0.00    +0.000 A 
ENDBRANCH  14  21
TORSDOF 2
ENDMDL
MODEL 9
REMARK VINA RESULT:      -6.7      2.156      4.062
REMARK  Name = 
REMARK  3 active torsions:
REMARK  status: ('A' for Active; 'I' for Inactive)
REMARK    1  A    between atoms: C_1  and  C_2
REMARK    2  A    between atoms: C_11  and  C_12
REMARK    3  A    between atoms: C_20  and  C_21
REMARK                            x       y       z     vdW  Elec       q    Type
REMARK                         _______ _______ _______ _____ _____    ______ ____
ROOT
ATOM      1  C   UNL     1       1.139  13.757  19.709  0.00  0.00    +0.000 C 
ATOM      2  C   UNL     1      -0.121  13.993  20.523  0.00  0.00    +0.000 C 
ATOM      3  C   UNL     1      -0.238  13.331  21.905  0.00  0.00    +0.000 C 
ATOM      4  N   UNL     1      -1.458  12.730  21.483  0.00  0.00    +0.000 N 
ATOM      5  C   UNL     1      -2.644  12.753  22.189  0.00  0.00    +0.000 A 
ATOM      6  C   UNL     1      -2.646  12.685  23.691  0.00  0.00    +0.000 A 
ATOM      7  C   UNL     1      -3.812  12.603  24.344  0.00  0.00    +0.000 A 
ATOM      8  C   UNL     1      -5.012  12.578  23.606  0.00  0.00    +0.000 A 
ATOM      9  N   UNL     1      -6.274  12.501  23.956  0.00  0.00    +0.000 NA
ATOM     10  N   UNL     1      -7.026  12.495  22.802  0.00  0.00    +0.000 NA
ATOM     11  C   UNL     1      -6.209  12.545  21.760  0.00  0.00    +0.000 A 
ATOM     12  N   UNL     1      -4.909  12.640  22.237  0.00  0.00    +0.000 N 
ATOM     13  N   UNL     1      -3.763  12.750  21.507  0.00  0.00    +0.000 NA
ATOM     14  C   UNL     1      -1.409  13.236  20.135  0.00  0.00    +0.000 C 
ENDROOT
BRANCH  11  15
ATOM     15  C   UNL     1      -6.604  12.536  20.345  0.00  0.00    +0.000 A 
ATOM     16  C   UNL     1      -6.345  11.404  19.559  0.00  0.00    +0.000 A 
ATOM     17  C   UNL     1      -6.746  11.353  18.220  0.00  0.00    +0.000 A 
ATOM     18  C   UNL     1      -7.402  12.437  17.644  0.00  0.00    +0.000 A 
ATOM     19  C   UNL     1      -7.639  13.582  18.398  0.00  0.00    +0.000 A 
ATOM     20  C   UNL     1      -7.232  13.633  19.734  0.00  0.00    +0.000 A 
ENDBRANCH  11  15
BRANCH  14  21
ATOM     21  C   UNL     1      -1.371  12.026  19.102  0.00  0.00    +0.000 A 
ATOM     22  C   UNL     1      -2.322  11.911  18.068  0.00  0.00    +0.000 A 
ATOM     23  C   UNL     1      -2.299  10.853  17.154  0.00  0.00    +0.000 A 
ATOM     24  C   UNL     1      -1.318   9.871  17.246  0.00  0.00    +0.000 A 
ATOM     25  C   UNL     1      -0.363   9.945  18.251  0.00  0.00    +0.000 A 
ATOM     26  C   UNL     1      -0.396  11.003  19.159  0.00  0.00    +0.000 A 
ENDBRANCH  14  21
TORSDOF 2
ENDMDL
