MODEL 1
REMARK VINA RESULT:      -8.9      0.000      0.000
REMARK  Name = 
REMARK  5 active torsions:
REMARK  status: ('A' for Active; 'I' for Inactive)
REMARK    1  A    between atoms: C_1  and  C_2
REMARK    2  A    between atoms: C_4  and  C_5
REMARK    3  A    between atoms: N_6  and  C_7
REMARK    4  A    between atoms: C_11  and  N_12
REMARK    5  A    between atoms: C_13  and  C_15
REMARK                            x       y       z     vdW  Elec       q    Type
REMARK                         _______ _______ _______ _____ _____    ______ ____
ROOT
ATOM      1  N   UNL     1       4.140   5.260  17.481  0.00  0.00    +0.000 N 
ATOM      2  C   UNL     1       5.547   5.566  17.292  0.00  0.00    +0.000 C 
ATOM      3  O   UNL     1       6.247   6.104  18.150  0.00  0.00    +0.000 OA
ATOM      4  H   UNL     1       3.677   4.707  16.763  0.00  0.00    +0.000 HD
ENDROOT
BRANCH   2   5
ATOM      5  C   UNL     1       6.146   5.341  15.937  0.00  0.00    +0.000 A 
ATOM      6  N   UNL     1       7.346   5.993  15.758  0.00  0.00    +0.000 NA
ATOM      7  N   UNL     1       7.821   5.463  14.628  0.00  0.00    +0.000 N 
ATOM      8  C   UNL     1       6.921   4.762  14.030  0.00  0.00    +0.000 A 
ATOM      9  N   UNL     1       6.946   4.260  12.874  0.00  0.00    +0.000 NA
ATOM     10  C   UNL     1       6.984   3.793  11.781  0.00  0.00    +0.000 A 
ATOM     11  C   UNL     1       5.801   3.352  12.256  0.00  0.00    +0.000 A 
ATOM     12  C   UNL     1       5.072   3.619  13.850  0.00  0.00    +0.000 A 
ATOM     13  C   UNL     1       5.813   4.502  14.753  0.00  0.00    +0.000 A 
ATOM     14  H   UNL     1       8.628   5.754  14.118  0.00  0.00    +0.000 HD
ENDBRANCH   2   5
BRANCH   1  19
ATOM     15  C   UNL     1       1.997   7.009  20.101  0.00  0.00    +0.000 A 
ATOM     16  C   UNL     1       1.502   5.910  20.807  0.00  0.00    +0.000 A 
ATOM     17  C   UNL     1       1.971   4.647  20.485  0.00  0.00    +0.000 A 
ATOM     18  C   UNL     1       2.925   4.485  19.479  0.00  0.00    +0.000 A 
ATOM     19  C   UNL     1       3.375   5.536  18.681  0.00  0.00    +0.000 A 
ATOM     20  C   UNL     1       2.965   6.835  19.067  0.00  0.00    +0.000 A 
BRANCH  15  26
ATOM     21  C   UNL     1      -0.301  10.589  22.483  0.00  0.00    +0.000 C 
ATOM     22  C   UNL     1       0.328   9.824  21.376  0.00  0.00    +0.000 A 
ATOM     23  C   UNL     1       0.496  10.277  20.057  0.00  0.00    +0.000 A 
ATOM     24  C   UNL     1       1.165   9.269  19.405  0.00  0.00    +0.000 A 
ATOM     25  C   UNL     1       1.531   9.177  17.975  0.00  0.00    +0.000 C 
ATOM     26  N   UNL     1       1.384   8.271  20.341  0.00  0.00    +0.000 N 
ATOM     27  N   UNL     1       0.788   8.573  21.531  0.00  0.00    +0.000 NA
ENDBRANCH  15  26
ENDBRANCH   1  19
TORSDOF 3
ENDMDL
MODEL 2
REMARK VINA RESULT:      -8.6      3.765      6.333
REMARK  Name = 
REMARK  5 active torsions:
REMARK  status: ('A' for Active; 'I' for Inactive)
REMARK    1  A    between atoms: C_1  and  C_2
REMARK    2  A    between atoms: C_4  and  C_5
REMARK    3  A    between atoms: N_6  and  C_7
REMARK    4  A    between atoms: C_11  and  N_12
REMARK    5  A    between atoms: C_13  and  C_15
REMARK                            x       y       z     vdW  Elec       q    Type
REMARK                         _______ _______ _______ _____ _____    ______ ____
ROOT
ATOM      1  N   UNL     1       1.168   9.176  19.217  0.00  0.00    +0.000 N 
ATOM      2  C   UNL     1       2.080   8.378  18.418  0.00  0.00    +0.000 C 
ATOM      3  O   UNL     1       2.376   8.643  17.253  0.00  0.00    +0.000 OA
ATOM      4  H   UNL     1       1.080   8.947  20.204  0.00  0.00    +0.000 HD
ENDROOT
BRANCH   2   5
ATOM      5  C   UNL     1       2.584   7.088  18.994  0.00  0.00    +0.000 A 
ATOM      6  N   UNL     1       2.284   6.934  20.329  0.00  0.00    +0.000 NA
ATOM      7  N   UNL     1       2.575   5.653  20.565  0.00  0.00    +0.000 N 
ATOM      8  C   UNL     1       3.222   5.134  19.580  0.00  0.00    +0.000 A 
ATOM      9  N   UNL     1       3.805   4.018  19.514  0.00  0.00    +0.000 NA
ATOM     10  C   UNL     1       4.351   2.962  19.468  0.00  0.00    +0.000 A 
ATOM     11  C   UNL     1       4.523   3.445  18.220  0.00  0.00    +0.000 A 
ATOM     12  C   UNL     1       3.946   4.973  17.529  0.00  0.00    +0.000 A 
ATOM     13  C   UNL     1       3.253   5.874  18.453  0.00  0.00    +0.000 A 
ATOM     14  H   UNL     1       2.583   5.189  21.449  0.00  0.00    +0.000 HD
ENDBRANCH   2   5
BRANCH   1  19
ATOM     15  C   UNL     1      -1.537  11.630  18.131  0.00  0.00    +0.000 A 
ATOM     16  C   UNL     1      -0.881  12.847  18.336  0.00  0.00    +0.000 A 
ATOM     17  C   UNL     1       0.453  12.828  18.706  0.00  0.00    +0.000 A 
ATOM     18  C   UNL     1       1.124  11.614  18.862  0.00  0.00    +0.000 A 
ATOM     19  C   UNL     1       0.489  10.376  18.766  0.00  0.00    +0.000 A 
ATOM     20  C   UNL     1      -0.848  10.393  18.302  0.00  0.00    +0.000 A 
BRANCH  15  26
ATOM     21  C   UNL     1      -6.291  12.192  19.056  0.00  0.00    +0.000 C 
ATOM     22  C   UNL     1      -5.035  11.871  18.331  0.00  0.00    +0.000 A 
ATOM     23  C   UNL     1      -4.943  11.467  16.989  0.00  0.00    +0.000 A 
ATOM     24  C   UNL     1      -3.599  11.335  16.736  0.00  0.00    +0.000 A 
ATOM     25  C   UNL     1      -2.932  10.855  15.506  0.00  0.00    +0.000 C 
ATOM     26  N   UNL     1      -2.942  11.674  17.908  0.00  0.00    +0.000 N 
ATOM     27  N   UNL     1      -3.829  11.915  18.917  0.00  0.00    +0.000 NA
ENDBRANCH  15  26
ENDBRANCH   1  19
TORSDOF 3
ENDMDL
MODEL 3
REMARK VINA RESULT:      -8.6      4.170      6.512
REMARK  Name = 
REMARK  5 active torsions:
REMARK  status: ('A' for Active; 'I' for Inactive)
REMARK    1  A    between atoms: C_1  and  C_2
REMARK    2  A    between atoms: C_4  and  C_5
REMARK    3  A    between atoms: N_6  and  C_7
REMARK    4  A    between atoms: C_11  and  N_12
REMARK    5  A    between atoms: C_13  and  C_15
REMARK                            x       y       z     vdW  Elec       q    Type
REMARK                         _______ _______ _______ _____ _____    ______ ____
ROOT
ATOM      1  N   UNL     1       1.247   8.865  19.048  0.00  0.00    +0.000 N 
ATOM      2  C   UNL     1       2.241   8.173  18.249  0.00  0.00    +0.000 C 
ATOM      3  O   UNL     1       2.648   8.584  17.163  0.00  0.00    +0.000 OA
ATOM      4  H   UNL     1       1.064   8.512  19.984  0.00  0.00    +0.000 HD
ENDROOT
BRANCH   2   5
ATOM      5  C   UNL     1       2.696   6.818  18.700  0.00  0.00    +0.000 A 
ATOM      6  N   UNL     1       3.907   6.443  18.161  0.00  0.00    +0.000 NA
ATOM      7  N   UNL     1       4.243   5.366  18.875  0.00  0.00    +0.000 N 
ATOM      8  C   UNL     1       3.254   4.956  19.591  0.00  0.00    +0.000 A 
ATOM      9  N   UNL     1       3.142   3.888  20.251  0.00  0.00    +0.000 NA
ATOM     10  C   UNL     1       3.051   2.875  20.868  0.00  0.00    +0.000 A 
ATOM     11  C   UNL     1       1.897   3.509  21.158  0.00  0.00    +0.000 A 
ATOM     12  C   UNL     1       1.338   5.104  20.622  0.00  0.00    +0.000 A 
ATOM     13  C   UNL     1       2.207   5.802  19.673  0.00  0.00    +0.000 A 
ATOM     14  H   UNL     1       5.012   4.751  18.712  0.00  0.00    +0.000 HD
ENDBRANCH   2   5
BRANCH   1  19
ATOM     15  C   UNL     1      -1.381  11.479  18.163  0.00  0.00    +0.000 A 
ATOM     16  C   UNL     1      -0.683  12.655  18.450  0.00  0.00    +0.000 A 
ATOM     17  C   UNL     1       0.651  12.566  18.808  0.00  0.00    +0.000 A 
ATOM     18  C   UNL     1       1.283  11.323  18.871  0.00  0.00    +0.000 A 
ATOM     19  C   UNL     1       0.607  10.117  18.691  0.00  0.00    +0.000 A 
ATOM     20  C   UNL     1      -0.732  10.210  18.240  0.00  0.00    +0.000 A 
BRANCH  15  26
ATOM     21  C   UNL     1      -6.098  12.220  19.144  0.00  0.00    +0.000 C 
ATOM     22  C   UNL     1      -4.864  11.860  18.401  0.00  0.00    +0.000 A 
ATOM     23  C   UNL     1      -4.801  11.477  17.051  0.00  0.00    +0.000 A 
ATOM     24  C   UNL     1      -3.465  11.295  16.783  0.00  0.00    +0.000 A 
ATOM     25  C   UNL     1      -2.830  10.810  15.539  0.00  0.00    +0.000 C 
ATOM     26  N   UNL     1      -2.785  11.585  17.955  0.00  0.00    +0.000 N 
ATOM     27  N   UNL     1      -3.652  11.844  18.977  0.00  0.00    +0.000 NA
ENDBRANCH  15  26
ENDBRANCH   1  19
TORSDOF 3
ENDMDL
MODEL 4
REMARK VINA RESULT:      -8.5      1.836      8.751
REMARK  Name = 
REMARK  5 active torsions:
REMARK  status: ('A' for Active; 'I' for Inactive)
REMARK    1  A    between atoms: C_1  and  C_2
REMARK    2  A    between atoms: C_4  and  C_5
REMARK    3  A    between atoms: N_6  and  C_7
REMARK    4  A    between atoms: C_11  and  N_12
REMARK    5  A    between atoms: C_13  and  C_15
REMARK                            x       y       z     vdW  Elec       q    Type
REMARK                         _______ _______ _______ _____ _____    ______ ____
ROOT
ATOM      1  N   UNL     1       2.137   6.903  19.765  0.00  0.00    +0.000 N 
ATOM      2  C   UNL     1       1.892   8.119  19.010  0.00  0.00    +0.000 C 
ATOM      3  O   UNL     1       2.285   8.295  17.857  0.00  0.00    +0.000 OA
ATOM      4  H   UNL     1       1.671   6.803  20.663  0.00  0.00    +0.000 HD
ENDROOT
BRANCH   2   5
ATOM      5  C   UNL     1       1.247   9.274  19.715  0.00  0.00    +0.000 A 
ATOM      6  N   UNL     1       1.300  10.448  18.997  0.00  0.00    +0.000 NA
ATOM      7  N   UNL     1       0.466  11.253  19.658  0.00  0.00    +0.000 N 
ATOM      8  C   UNL     1       0.133  10.745  20.794  0.00  0.00    +0.000 A 
ATOM      9  N   UNL     1      -0.491  11.281  21.750  0.00  0.00    +0.000 NA
ATOM     10  C   UNL     1      -1.079  11.801  22.643  0.00  0.00    +0.000 A 
ATOM     11  C   UNL     1      -0.908  10.539  23.088  0.00  0.00    +0.000 A 
ATOM     12  C   UNL     1      -0.136   9.166  22.274  0.00  0.00    +0.000 A 
ATOM     13  C   UNL     1       0.469   9.452  20.972  0.00  0.00    +0.000 A 
ATOM     14  H   UNL     1       0.314  12.227  19.498  0.00  0.00    +0.000 HD
ENDBRANCH   2   5
BRANCH   1  19
ATOM     15  C   UNL     1       4.460   4.655  17.748  0.00  0.00    +0.000 A 
ATOM     16  C   UNL     1       4.618   3.585  18.634  0.00  0.00    +0.000 A 
ATOM     17  C   UNL     1       3.876   3.574  19.802  0.00  0.00    +0.000 A 
ATOM     18  C   UNL     1       2.982   4.611  20.079  0.00  0.00    +0.000 A 
ATOM     19  C   UNL     1       2.862   5.745  19.278  0.00  0.00    +0.000 A 
ATOM     20  C   UNL     1       3.553   5.716  18.043  0.00  0.00    +0.000 A 
BRANCH  15  26
ATOM     21  C   UNL     1       6.269   3.843  13.295  0.00  0.00    +0.000 C 
ATOM     22  C   UNL     1       6.166   4.321  14.697  0.00  0.00    +0.000 A 
ATOM     23  C   UNL     1       7.113   5.115  15.364  0.00  0.00    +0.000 A 
ATOM     24  C   UNL     1       6.580   5.356  16.608  0.00  0.00    +0.000 A 
ATOM     25  C   UNL     1       7.187   6.069  17.752  0.00  0.00    +0.000 C 
ATOM     26  N   UNL     1       5.348   4.722  16.638  0.00  0.00    +0.000 N 
ATOM     27  N   UNL     1       5.133   4.009  15.494  0.00  0.00    +0.000 NA
ENDBRANCH  15  26
ENDBRANCH   1  19
TORSDOF 3
ENDMDL
MODEL 5
REMARK VINA RESULT:      -8.4      0.910      1.556
REMARK  Name = 
REMARK  5 active torsions:
REMARK  status: ('A' for Active; 'I' for Inactive)
REMARK    1  A    between atoms: C_1  and  C_2
REMARK    2  A    between atoms: C_4  and  C_5
REMARK    3  A    between atoms: N_6  and  C_7
REMARK    4  A    between atoms: C_11  and  N_12
REMARK    5  A    between atoms: C_13  and  C_15
REMARK                            x       y       z     vdW  Elec       q    Type
REMARK                         _______ _______ _______ _____ _____    ______ ____
ROOT
ATOM      1  N   UNL     1       3.976   5.894  17.351  0.00  0.00    +0.000 N 
ATOM      2  C   UNL     1       5.362   5.465  17.323  0.00  0.00    +0.000 C 
ATOM      3  O   UNL     1       6.061   5.352  18.330  0.00  0.00    +0.000 OA
ATOM      4  H   UNL     1       3.448   5.841  16.484  0.00  0.00    +0.000 HD
ENDROOT
BRANCH   2   5
ATOM      5  C   UNL     1       6.021   5.281  15.989  0.00  0.00    +0.000 A 
ATOM      6  N   UNL     1       7.221   5.949  15.877  0.00  0.00    +0.000 NA
ATOM      7  N   UNL     1       7.748   5.452  14.756  0.00  0.00    +0.000 N 
ATOM      8  C   UNL     1       6.883   4.758  14.104  0.00  0.00    +0.000 A 
ATOM      9  N   UNL     1       6.962   4.285  12.938  0.00  0.00    +0.000 NA
ATOM     10  C   UNL     1       7.052   3.846  11.835  0.00  0.00    +0.000 A 
ATOM     11  C   UNL     1       5.855   3.381  12.249  0.00  0.00    +0.000 A 
ATOM     12  C   UNL     1       5.055   3.601  13.816  0.00  0.00    +0.000 A 
ATOM     13  C   UNL     1       5.747   4.469  14.772  0.00  0.00    +0.000 A 
ATOM     14  H   UNL     1       8.573   5.764  14.289  0.00  0.00    +0.000 HD
ENDBRANCH   2   5
BRANCH   1  19
ATOM     15  C   UNL     1       1.782   7.752  19.852  0.00  0.00    +0.000 A 
ATOM     16  C   UNL     1       1.402   6.702  20.692  0.00  0.00    +0.000 A 
ATOM     17  C   UNL     1       1.961   5.452  20.490  0.00  0.00    +0.000 A 
ATOM     18  C   UNL     1       2.893   5.254  19.470  0.00  0.00    +0.000 A 
ATOM     19  C   UNL     1       3.230   6.242  18.545  0.00  0.00    +0.000 A 
ATOM     20  C   UNL     1       2.727   7.540  18.804  0.00  0.00    +0.000 A 
BRANCH  15  26
ATOM     21  C   UNL     1      -0.626  11.788  18.555  0.00  0.00    +0.000 C 
ATOM     22  C   UNL     1       0.063  10.781  19.403  0.00  0.00    +0.000 A 
ATOM     23  C   UNL     1       0.183  10.830  20.801  0.00  0.00    +0.000 A 
ATOM     24  C   UNL     1       0.842   9.677  21.154  0.00  0.00    +0.000 A 
ATOM     25  C   UNL     1       1.306   9.249  22.491  0.00  0.00    +0.000 C 
ATOM     26  N   UNL     1       1.076   8.981  19.979  0.00  0.00    +0.000 N 
ATOM     27  N   UNL     1       0.678   9.704  18.891  0.00  0.00    +0.000 NA
ENDBRANCH  15  26
ENDBRANCH   1  19
TORSDOF 3
ENDMDL
MODEL 6
REMARK VINA RESULT:      -8.3      1.986      8.757
REMARK  Name = 
REMARK  5 active torsions:
REMARK  status: ('A' for Active; 'I' for Inactive)
REMARK    1  A    between atoms: C_1  and  C_2
REMARK    2  A    between atoms: C_4  and  C_5
REMARK    3  A    between atoms: N_6  and  C_7
REMARK    4  A    between atoms: C_11  and  N_12
REMARK    5  A    between atoms: C_13  and  C_15
REMARK                            x       y       z     vdW  Elec       q    Type
REMARK                         _______ _______ _______ _____ _____    ______ ____
ROOT
ATOM      1  N   UNL     1       1.866   6.410  20.630  0.00  0.00    +0.000 N 
ATOM      2  C   UNL     1       1.745   7.720  20.017  0.00  0.00    +0.000 C 
ATOM      3  O   UNL     1       2.228   8.007  18.922  0.00  0.00    +0.000 OA
ATOM      4  H   UNL     1       1.333   6.234  21.477  0.00  0.00    +0.000 HD
ENDROOT
BRANCH   2   5
ATOM      5  C   UNL     1       1.117   8.822  20.816  0.00  0.00    +0.000 A 
ATOM      6  N   UNL     1       0.853   8.466  22.121  0.00  0.00    +0.000 NA
ATOM      7  N   UNL     1       0.557   9.629  22.705  0.00  0.00    +0.000 N 
ATOM      8  C   UNL     1       0.395  10.560  21.831  0.00  0.00    +0.000 A 
ATOM      9  N   UNL     1      -0.051  11.728  21.990  0.00  0.00    +0.000 NA
ATOM     10  C   UNL     1      -0.476  12.827  22.156  0.00  0.00    +0.000 A 
ATOM     11  C   UNL     1      -0.148  12.825  20.848  0.00  0.00    +0.000 A 
ATOM     12  C   UNL     1       0.582  11.528  19.885  0.00  0.00    +0.000 A 
ATOM     13  C   UNL     1       0.789  10.254  20.578  0.00  0.00    +0.000 A 
ATOM     14  H   UNL     1       0.212   9.767  23.631  0.00  0.00    +0.000 HD
ENDBRANCH   2   5
BRANCH   1  19
ATOM     15  C   UNL     1       4.228   4.277  18.534  0.00  0.00    +0.000 A 
ATOM     16  C   UNL     1       4.224   3.088  19.268  0.00  0.00    +0.000 A 
ATOM     17  C   UNL     1       3.367   2.978  20.350  0.00  0.00    +0.000 A 
ATOM     18  C   UNL     1       2.521   4.036  20.689  0.00  0.00    +0.000 A 
ATOM     19  C   UNL     1       2.559   5.275  20.051  0.00  0.00    +0.000 A 
ATOM     20  C   UNL     1       3.368   5.358  18.893  0.00  0.00    +0.000 A 
BRANCH  15  26
ATOM     21  C   UNL     1       6.415   3.951  14.189  0.00  0.00    +0.000 C 
ATOM     22  C   UNL     1       6.206   4.232  15.632  0.00  0.00    +0.000 A 
ATOM     23  C   UNL     1       7.137   4.835  16.494  0.00  0.00    +0.000 A 
ATOM     24  C   UNL     1       6.499   4.942  17.707  0.00  0.00    +0.000 A 
ATOM     25  C   UNL     1       7.038   5.428  18.995  0.00  0.00    +0.000 C 
ATOM     26  N   UNL     1       5.227   4.423  17.530  0.00  0.00    +0.000 N 
ATOM     27  N   UNL     1       5.077   3.902  16.277  0.00  0.00    +0.000 NA
ENDBRANCH  15  26
ENDBRANCH   1  19
TORSDOF 3
ENDMDL
MODEL 7
REMARK VINA RESULT:      -8.3      2.016      9.104
REMARK  Name = 
REMARK  5 active torsions:
REMARK  status: ('A' for Active; 'I' for Inactive)
REMARK    1  A    between atoms: C_1  and  C_2
REMARK    2  A    between atoms: C_4  and  C_5
REMARK    3  A    between atoms: N_6  and  C_7
REMARK    4  A    between atoms: C_11  and  N_12
REMARK    5  A    between atoms: C_13  and  C_15
REMARK                            x       y       z     vdW  Elec       q    Type
REMARK                         _______ _______ _______ _____ _____    ______ ____
ROOT
ATOM      1  N   UNL     1       2.282   7.627  19.117  0.00  0.00    +0.000 N 
ATOM      2  C   UNL     1       1.613   7.897  20.376  0.00  0.00    +0.000 C 
ATOM      3  O   UNL     1       1.526   7.078  21.290  0.00  0.00    +0.000 OA
ATOM      4  H   UNL     1       2.407   8.404  18.472  0.00  0.00    +0.000 HD
ENDROOT
BRANCH   2   5
ATOM      5  C   UNL     1       0.869   9.191  20.521  0.00  0.00    +0.000 A 
ATOM      6  N   UNL     1       0.885   9.959  19.378  0.00  0.00    +0.000 NA
ATOM      7  N   UNL     1      -0.024  10.904  19.628  0.00  0.00    +0.000 N 
ATOM      8  C   UNL     1      -0.377  10.893  20.866  0.00  0.00    +0.000 A 
ATOM      9  N   UNL     1      -1.074  11.732  21.499  0.00  0.00    +0.000 NA
ATOM     10  C   UNL     1      -1.732  12.533  22.083  0.00  0.00    +0.000 A 
ATOM     11  C   UNL     1      -1.507  11.587  23.018  0.00  0.00    +0.000 A 
ATOM     12  C   UNL     1      -0.620  10.060  22.867  0.00  0.00    +0.000 A 
ATOM     13  C   UNL     1       0.026   9.820  21.575  0.00  0.00    +0.000 A 
ATOM     14  H   UNL     1      -0.226  11.709  19.072  0.00  0.00    +0.000 HD
ENDBRANCH   2   5
BRANCH   1  19
ATOM     15  C   UNL     1       4.468   5.035  17.379  0.00  0.00    +0.000 A 
ATOM     16  C   UNL     1       4.547   4.055  18.372  0.00  0.00    +0.000 A 
ATOM     17  C   UNL     1       3.796   4.214  19.524  0.00  0.00    +0.000 A 
ATOM     18  C   UNL     1       2.971   5.330  19.679  0.00  0.00    +0.000 A 
ATOM     19  C   UNL     1       2.933   6.380  18.763  0.00  0.00    +0.000 A 
ATOM     20  C   UNL     1       3.630   6.178  17.549  0.00  0.00    +0.000 A 
BRANCH  15  26
ATOM     21  C   UNL     1       6.237   3.682  13.042  0.00  0.00    +0.000 C 
ATOM     22  C   UNL     1       6.163   4.289  14.395  0.00  0.00    +0.000 A 
ATOM     23  C   UNL     1       7.170   5.056  15.006  0.00  0.00    +0.000 A 
ATOM     24  C   UNL     1       6.649   5.449  16.215  0.00  0.00    +0.000 A 
ATOM     25  C   UNL     1       7.306   6.206  17.303  0.00  0.00    +0.000 C 
ATOM     26  N   UNL     1       5.367   4.928  16.280  0.00  0.00    +0.000 N 
ATOM     27  N   UNL     1       5.101   4.137  15.200  0.00  0.00    +0.000 NA
ENDBRANCH  15  26
ENDBRANCH   1  19
TORSDOF 3
ENDMDL
MODEL 8
REMARK VINA RESULT:      -8.2      1.912      8.869
REMARK  Name = 
REMARK  5 active torsions:
REMARK  status: ('A' for Active; 'I' for Inactive)
REMARK    1  A    between atoms: C_1  and  C_2
REMARK    2  A    between atoms: C_4  and  C_5
REMARK    3  A    between atoms: N_6  and  C_7
REMARK    4  A    between atoms: C_11  and  N_12
REMARK    5  A    between atoms: C_13  and  C_15
REMARK                            x       y       z     vdW  Elec       q    Type
REMARK                         _______ _______ _______ _____ _____    ______ ____
ROOT
ATOM      1  N   UNL     1       4.441   7.172  17.688  0.00  0.00    +0.000 N 
ATOM      2  C   UNL     1       3.056   6.989  18.081  0.00  0.00    +0.000 C 
ATOM      3  O   UNL     1       2.476   5.904  18.048  0.00  0.00    +0.000 OA
ATOM      4  H   UNL     1       4.866   8.078  17.864  0.00  0.00    +0.000 HD
ENDROOT
BRANCH   2   5
ATOM      5  C   UNL     1       2.247   8.206  18.415  0.00  0.00    +0.000 A 
ATOM      6  N   UNL     1       2.115   9.079  17.358  0.00  0.00    +0.000 NA
ATOM      7  N   UNL     1       1.173   9.928  17.774  0.00  0.00    +0.000 N 
ATOM      8  C   UNL     1       0.928   9.773  19.028  0.00  0.00    +0.000 A 
ATOM      9  N   UNL     1       0.236  10.494  19.796  0.00  0.00    +0.000 NA
ATOM     10  C   UNL     1      -0.420  11.186  20.508  0.00  0.00    +0.000 A 
ATOM     11  C   UNL     1      -0.056  10.174  21.322  0.00  0.00    +0.000 A 
ATOM     12  C   UNL     1       0.911   8.736  20.947  0.00  0.00    +0.000 A 
ATOM     13  C   UNL     1       1.458   8.668  19.590  0.00  0.00    +0.000 A 
ATOM     14  H   UNL     1       0.873  10.765  17.320  0.00  0.00    +0.000 HD
ENDBRANCH   2   5
BRANCH   1  19
ATOM     15  C   UNL     1       6.283   4.724  15.422  0.00  0.00    +0.000 A 
ATOM     16  C   UNL     1       7.379   4.401  16.227  0.00  0.00    +0.000 A 
ATOM     17  C   UNL     1       7.424   4.895  17.519  0.00  0.00    +0.000 A 
ATOM     18  C   UNL     1       6.386   5.693  18.005  0.00  0.00    +0.000 A 
ATOM     19  C   UNL     1       5.323   6.123  17.212  0.00  0.00    +0.000 A 
ATOM     20  C   UNL     1       5.231   5.549  15.922  0.00  0.00    +0.000 A 
BRANCH  15  26
ATOM     21  C   UNL     1       5.213   2.348  11.302  0.00  0.00    +0.000 C 
ATOM     22  C   UNL     1       5.902   3.255  12.255  0.00  0.00    +0.000 A 
ATOM     23  C   UNL     1       6.972   4.111  11.946  0.00  0.00    +0.000 A 
ATOM     24  C   UNL     1       7.246   4.790  13.108  0.00  0.00    +0.000 A 
ATOM     25  C   UNL     1       8.331   5.759  13.379  0.00  0.00    +0.000 C 
ATOM     26  N   UNL     1       6.339   4.338  14.053  0.00  0.00    +0.000 N 
ATOM     27  N   UNL     1       5.571   3.327  13.553  0.00  0.00    +0.000 NA
ENDBRANCH  15  26
ENDBRANCH   1  19
TORSDOF 3
ENDMDL
MODEL 9
REMARK VINA RESULT:      -8.2      2.206      8.865
REMARK  Name = 
REMARK  5 active torsions:
REMARK  status: ('A' for Active; 'I' for Inactive)
REMARK    1  A    between atoms: C_1  and  C_2
REMARK    2  A    between atoms: C_4  and  C_5
REMARK    3  A    between atoms: N_6  and  C_7
REMARK    4  A    between atoms: C_11  and  N_12
REMARK    5  A    between atoms: C_13  and  C_15
REMARK                            x       y       z     vdW  Elec       q    Type
REMARK                         _______ _______ _______ _____ _____    ______ ____
ROOT
ATOM      1  N   UNL     1       1.881   8.024  19.967  0.00  0.00    +0.000 N 
ATOM      2  C   UNL     1       1.436   9.032  19.023  0.00  0.00    +0.000 C 
ATOM      3  O   UNL     1       1.422   8.864  17.803  0.00  0.00    +0.000 OA
ATOM      4  H   UNL     1       1.743   8.210  20.957  0.00  0.00    +0.000 HD
ENDROOT
BRANCH   2   5
ATOM      5  C   UNL     1       1.107  10.398  19.546  0.00  0.00    +0.000 A 
ATOM      6  N   UNL     1       1.531  11.415  18.719  0.00  0.00    +0.000 NA
ATOM      7  N   UNL     1       0.924  12.493  19.219  0.00  0.00    +0.000 N 
ATOM      8  C   UNL     1       0.396  12.240  20.366  0.00  0.00    +0.000 A 
ATOM      9  N   UNL     1      -0.103  13.040  21.203  0.00  0.00    +0.000 NA
ATOM     10  C   UNL     1      -0.569  13.807  21.983  0.00  0.00    +0.000 A 
ATOM     11  C   UNL     1      -0.789  12.612  22.568  0.00  0.00    +0.000 A 
ATOM     12  C   UNL     1      -0.393  10.990  21.970  0.00  0.00    +0.000 A 
ATOM     13  C   UNL     1       0.341  10.936  20.704  0.00  0.00    +0.000 A 
ATOM     14  H   UNL     1       1.063  13.444  18.948  0.00  0.00    +0.000 HD
ENDBRANCH   2   5
BRANCH   1  19
ATOM     15  C   UNL     1       3.906   5.177  18.446  0.00  0.00    +0.000 A 
ATOM     16  C   UNL     1       3.573   4.131  19.310  0.00  0.00    +0.000 A 
ATOM     17  C   UNL     1       2.614   4.353  20.284  0.00  0.00    +0.000 A 
ATOM     18  C   UNL     1       1.992   5.599  20.389  0.00  0.00    +0.000 A 
ATOM     19  C   UNL     1       2.360   6.700  19.617  0.00  0.00    +0.000 A 
ATOM     20  C   UNL     1       3.273   6.450  18.565  0.00  0.00    +0.000 A 
BRANCH  15  26
ATOM     21  C   UNL     1       6.344   3.977  14.398  0.00  0.00    +0.000 C 
ATOM     22  C   UNL     1       6.076   4.394  15.798  0.00  0.00    +0.000 A 
ATOM     23  C   UNL     1       7.047   4.760  16.744  0.00  0.00    +0.000 A 
ATOM     24  C   UNL     1       6.346   5.118  17.871  0.00  0.00    +0.000 A 
ATOM     25  C   UNL     1       6.866   5.510  19.199  0.00  0.00    +0.000 C 
ATOM     26  N   UNL     1       5.003   4.971  17.562  0.00  0.00    +0.000 N 
ATOM     27  N   UNL     1       4.839   4.438  16.316  0.00  0.00    +0.000 NA
ENDBRANCH  15  26
ENDBRANCH   1  19
TORSDOF 3
ENDMDL
