MODEL 1
REMARK VINA RESULT:      -9.3      0.000      0.000
REMARK  Name = 
REMARK  5 active torsions:
REMARK  status: ('A' for Active; 'I' for Inactive)
REMARK    1  A    between atoms: C_1  and  C_2
REMARK    2  A    between atoms: C_5  and  C_6
REMARK    3  A    between atoms: C_6  and  C_7
REMARK    4  A    between atoms: C_13  and  C_14
REMARK    5  A    between atoms: C_29  and  C_30
REMARK                            x       y       z     vdW  Elec       q    Type
REMARK                         _______ _______ _______ _____ _____    ______ ____
ROOT
ATOM      1  C   UNL     1       3.097   4.984  18.212  0.00  0.00    +0.000 C 
ATOM      2  O   UNL     1       1.942   4.808  18.600  0.00  0.00    +0.000 OA
ATOM      3  N   UNL     1       3.648   6.247  18.045  0.00  0.00    +0.000 N 
ATOM      4  C   UNL     1       2.914   7.409  18.318  0.00  0.00    +0.000 A 
ATOM      5  C   UNL     1       2.192   7.559  19.485  0.00  0.00    +0.000 A 
ATOM      6  C   UNL     1       1.428   8.709  19.657  0.00  0.00    +0.000 A 
ATOM      7  C   UNL     1       1.374   9.658  18.646  0.00  0.00    +0.000 A 
ATOM      8  N   UNL     1       2.156   9.506  17.549  0.00  0.00    +0.000 NA
ATOM      9  N   UNL     1       2.956   8.390  17.398  0.00  0.00    +0.000 NA
ATOM     10  H   UNL     1       4.315   6.360  17.291  0.00  0.00    +0.000 HD
ENDROOT
BRANCH   7  11
ATOM     11  C   UNL     1       0.502  10.844  18.687  0.00  0.00    +0.000 A 
ATOM     12  C   UNL     1       0.954  12.060  19.234  0.00  0.00    +0.000 A 
ATOM     13  C   UNL     1       0.121  13.192  19.275  0.00  0.00    +0.000 A 
ATOM     14  C   UNL     1      -1.172  13.135  18.769  0.00  0.00    +0.000 A 
ATOM     15  C   UNL     1      -1.638  11.950  18.210  0.00  0.00    +0.000 A 
ATOM     16  C   UNL     1      -0.808  10.833  18.171  0.00  0.00    +0.000 A 
ATOM     17  F   UNL     1      -1.302   9.727  17.591  0.00  0.00    +0.000 F 
ENDBRANCH   7  11
BRANCH   1  18
ATOM     18  C   UNL     1       4.017   3.792  17.803  0.00  0.00    +0.000 C 
ATOM     19  C   UNL     1       4.820   3.329  19.047  0.00  0.00    +0.000 C 
ATOM     20  C   UNL     1       3.931   2.668  20.093  0.00  0.00    +0.000 C 
ATOM     21  O   UNL     1       3.201   1.587  19.527  0.00  0.00    +0.000 OA
ATOM     22  C   UNL     1       2.321   1.992  18.482  0.00  0.00    +0.000 C 
ATOM     23  C   UNL     1       3.100   2.626  17.336  0.00  0.00    +0.000 C 
BRANCH  18  28
ATOM     24  C   UNL     1       7.760   5.344  13.503  0.00  0.00    +0.000 C 
ATOM     25  C   UNL     1       6.801   4.903  14.571  0.00  0.00    +0.000 A 
ATOM     26  C   UNL     1       7.068   5.215  15.908  0.00  0.00    +0.000 A 
ATOM     27  C   UNL     1       6.171   4.859  16.917  0.00  0.00    +0.000 A 
ATOM     28  C   UNL     1       4.985   4.150  16.644  0.00  0.00    +0.000 A 
ATOM     29  C   UNL     1       4.757   3.794  15.304  0.00  0.00    +0.000 A 
ATOM     30  C   UNL     1       5.630   4.184  14.268  0.00  0.00    +0.000 A 
ATOM     31  C   UNL     1       5.282   3.843  12.843  0.00  0.00    +0.000 C 
ENDBRANCH  18  28
ENDBRANCH   1  18
TORSDOF 3
ENDMDL
MODEL 2
REMARK VINA RESULT:      -9.2      0.871      1.220
REMARK  Name = 
REMARK  5 active torsions:
REMARK  status: ('A' for Active; 'I' for Inactive)
REMARK    1  A    between atoms: C_1  and  C_2
REMARK    2  A    between atoms: C_5  and  C_6
REMARK    3  A    between atoms: C_6  and  C_7
REMARK    4  A    between atoms: C_13  and  C_14
REMARK    5  A    between atoms: C_29  and  C_30
REMARK                            x       y       z     vdW  Elec       q    Type
REMARK                         _______ _______ _______ _____ _____    ______ ____
ROOT
ATOM      1  C   UNL     1       3.171   4.969  18.140  0.00  0.00    +0.000 C 
ATOM      2  O   UNL     1       2.002   4.781  18.476  0.00  0.00    +0.000 OA
ATOM      3  N   UNL     1       3.721   6.237  18.013  0.00  0.00    +0.000 N 
ATOM      4  C   UNL     1       2.969   7.391  18.269  0.00  0.00    +0.000 A 
ATOM      5  C   UNL     1       2.197   7.522  19.405  0.00  0.00    +0.000 A 
ATOM      6  C   UNL     1       1.419   8.665  19.560  0.00  0.00    +0.000 A 
ATOM      7  C   UNL     1       1.403   9.627  18.558  0.00  0.00    +0.000 A 
ATOM      8  N   UNL     1       2.231   9.494  17.495  0.00  0.00    +0.000 NA
ATOM      9  N   UNL     1       3.044   8.384  17.364  0.00  0.00    +0.000 NA
ATOM     10  H   UNL     1       4.419   6.363  17.289  0.00  0.00    +0.000 HD
ENDROOT
BRANCH   7  11
ATOM     11  C   UNL     1       0.522  10.808  18.577  0.00  0.00    +0.000 A 
ATOM     12  C   UNL     1      -0.870  10.678  18.419  0.00  0.00    +0.000 A 
ATOM     13  C   UNL     1      -1.711  11.804  18.436  0.00  0.00    +0.000 A 
ATOM     14  C   UNL     1      -1.183  13.077  18.616  0.00  0.00    +0.000 A 
ATOM     15  C   UNL     1       0.189  13.231  18.789  0.00  0.00    +0.000 A 
ATOM     16  C   UNL     1       1.016  12.111  18.773  0.00  0.00    +0.000 A 
ATOM     17  F   UNL     1       2.326  12.320  18.977  0.00  0.00    +0.000 F 
ENDBRANCH   7  11
BRANCH   1  18
ATOM     18  C   UNL     1       4.116   3.788  17.756  0.00  0.00    +0.000 C 
ATOM     19  C   UNL     1       4.931   3.370  19.008  0.00  0.00    +0.000 C 
ATOM     20  C   UNL     1       4.059   2.714  20.072  0.00  0.00    +0.000 C 
ATOM     21  O   UNL     1       3.350   1.606  19.533  0.00  0.00    +0.000 OA
ATOM     22  C   UNL     1       2.459   1.968  18.481  0.00  0.00    +0.000 C 
ATOM     23  C   UNL     1       3.222   2.592  17.318  0.00  0.00    +0.000 C 
BRANCH  18  28
ATOM     24  C   UNL     1       7.818   5.317  13.413  0.00  0.00    +0.000 C 
ATOM     25  C   UNL     1       6.870   4.881  14.493  0.00  0.00    +0.000 A 
ATOM     26  C   UNL     1       7.143   5.212  15.824  0.00  0.00    +0.000 A 
ATOM     27  C   UNL     1       6.255   4.862  16.843  0.00  0.00    +0.000 A 
ATOM     28  C   UNL     1       5.073   4.139  16.587  0.00  0.00    +0.000 A 
ATOM     29  C   UNL     1       4.839   3.765  15.253  0.00  0.00    +0.000 A 
ATOM     30  C   UNL     1       5.702   4.149  14.206  0.00  0.00    +0.000 A 
ATOM     31  C   UNL     1       5.349   3.788  12.788  0.00  0.00    +0.000 C 
ENDBRANCH  18  28
ENDBRANCH   1  18
TORSDOF 3
ENDMDL
MODEL 3
REMARK VINA RESULT:      -9.1      1.535      2.298
REMARK  Name = 
REMARK  5 active torsions:
REMARK  status: ('A' for Active; 'I' for Inactive)
REMARK    1  A    between atoms: C_1  and  C_2
REMARK    2  A    between atoms: C_5  and  C_6
REMARK    3  A    between atoms: C_6  and  C_7
REMARK    4  A    between atoms: C_13  and  C_14
REMARK    5  A    between atoms: C_29  and  C_30
REMARK                            x       y       z     vdW  Elec       q    Type
REMARK                         _______ _______ _______ _____ _____    ______ ____
ROOT
ATOM      1  C   UNL     1       2.116   5.262  19.650  0.00  0.00    +0.000 C 
ATOM      2  O   UNL     1       1.108   5.187  20.352  0.00  0.00    +0.000 OA
ATOM      3  N   UNL     1       2.633   6.471  19.205  0.00  0.00    +0.000 N 
ATOM      4  C   UNL     1       2.031   7.692  19.538  0.00  0.00    +0.000 A 
ATOM      5  C   UNL     1       1.661   7.993  20.833  0.00  0.00    +0.000 A 
ATOM      6  C   UNL     1       1.002   9.194  21.080  0.00  0.00    +0.000 A 
ATOM      7  C   UNL     1       0.698  10.042  20.023  0.00  0.00    +0.000 A 
ATOM      8  N   UNL     1       1.145   9.742  18.780  0.00  0.00    +0.000 NA
ATOM      9  N   UNL     1       1.845   8.574  18.540  0.00  0.00    +0.000 NA
ATOM     10  H   UNL     1       3.070   6.473  18.292  0.00  0.00    +0.000 HD
ENDROOT
BRANCH   7  11
ATOM     11  C   UNL     1      -0.099  11.271  20.170  0.00  0.00    +0.000 A 
ATOM     12  C   UNL     1       0.398  12.380  20.880  0.00  0.00    +0.000 A 
ATOM     13  C   UNL     1      -0.363  13.553  21.022  0.00  0.00    +0.000 A 
ATOM     14  C   UNL     1      -1.629  13.646  20.455  0.00  0.00    +0.000 A 
ATOM     15  C   UNL     1      -2.138  12.570  19.736  0.00  0.00    +0.000 A 
ATOM     16  C   UNL     1      -1.378  11.411  19.598  0.00  0.00    +0.000 A 
ATOM     17  F   UNL     1      -1.910  10.419  18.867  0.00  0.00    +0.000 F 
ENDBRANCH   7  11
BRANCH   1  18
ATOM     18  C   UNL     1       2.859   3.988  19.140  0.00  0.00    +0.000 C 
ATOM     19  C   UNL     1       3.290   3.135  20.362  0.00  0.00    +0.000 C 
ATOM     20  C   UNL     1       2.099   2.512  21.080  0.00  0.00    +0.000 C 
ATOM     21  O   UNL     1       1.309   1.748  20.179  0.00  0.00    +0.000 OA
ATOM     22  C   UNL     1       0.752   2.525  19.123  0.00  0.00    +0.000 C 
ATOM     23  C   UNL     1       1.853   3.165  18.285  0.00  0.00    +0.000 C 
BRANCH  18  28
ATOM     24  C   UNL     1       7.494   5.093  15.646  0.00  0.00    +0.000 C 
ATOM     25  C   UNL     1       6.328   4.855  16.563  0.00  0.00    +0.000 A 
ATOM     26  C   UNL     1       5.112   4.415  16.031  0.00  0.00    +0.000 A 
ATOM     27  C   UNL     1       4.027   4.140  16.864  0.00  0.00    +0.000 A 
ATOM     28  C   UNL     1       4.092   4.322  18.260  0.00  0.00    +0.000 A 
ATOM     29  C   UNL     1       5.302   4.818  18.775  0.00  0.00    +0.000 A 
ATOM     30  C   UNL     1       6.422   5.058  17.953  0.00  0.00    +0.000 A 
ATOM     31  C   UNL     1       7.715   5.508  18.580  0.00  0.00    +0.000 C 
ENDBRANCH  18  28
ENDBRANCH   1  18
TORSDOF 3
ENDMDL
MODEL 4
REMARK VINA RESULT:      -9.1      1.642      1.969
REMARK  Name = 
REMARK  5 active torsions:
REMARK  status: ('A' for Active; 'I' for Inactive)
REMARK    1  A    between atoms: C_1  and  C_2
REMARK    2  A    between atoms: C_5  and  C_6
REMARK    3  A    between atoms: C_6  and  C_7
REMARK    4  A    between atoms: C_13  and  C_14
REMARK    5  A    between atoms: C_29  and  C_30
REMARK                            x       y       z     vdW  Elec       q    Type
REMARK                         _______ _______ _______ _____ _____    ______ ____
ROOT
ATOM      1  C   UNL     1       4.504   6.111  17.317  0.00  0.00    +0.000 C 
ATOM      2  O   UNL     1       4.926   7.194  16.912  0.00  0.00    +0.000 OA
ATOM      3  N   UNL     1       3.340   5.991  18.064  0.00  0.00    +0.000 N 
ATOM      4  C   UNL     1       2.566   7.110  18.398  0.00  0.00    +0.000 A 
ATOM      5  C   UNL     1       2.213   8.059  17.461  0.00  0.00    +0.000 A 
ATOM      6  C   UNL     1       1.504   9.181  17.878  0.00  0.00    +0.000 A 
ATOM      7  C   UNL     1       1.200   9.343  19.223  0.00  0.00    +0.000 A 
ATOM      8  N   UNL     1       1.500   8.352  20.096  0.00  0.00    +0.000 NA
ATOM      9  N   UNL     1       2.159   7.212  19.677  0.00  0.00    +0.000 NA
ATOM     10  H   UNL     1       3.321   5.262  18.768  0.00  0.00    +0.000 HD
ENDROOT
BRANCH   7  11
ATOM     11  C   UNL     1       0.561  10.551  19.774  0.00  0.00    +0.000 A 
ATOM     12  C   UNL     1       1.313  11.521  20.461  0.00  0.00    +0.000 A 
ATOM     13  C   UNL     1       0.704  12.673  20.988  0.00  0.00    +0.000 A 
ATOM     14  C   UNL     1      -0.662  12.882  20.836  0.00  0.00    +0.000 A 
ATOM     15  C   UNL     1      -1.426  11.945  20.147  0.00  0.00    +0.000 A 
ATOM     16  C   UNL     1      -0.816  10.807  19.627  0.00  0.00    +0.000 A 
ATOM     17  F   UNL     1      -1.598   9.955  18.946  0.00  0.00    +0.000 F 
ENDBRANCH   7  11
BRANCH   1  18
ATOM     18  C   UNL     1       5.291   4.783  17.085  0.00  0.00    +0.000 C 
ATOM     19  C   UNL     1       6.480   4.724  18.080  0.00  0.00    +0.000 C 
ATOM     20  C   UNL     1       6.017   4.542  19.521  0.00  0.00    +0.000 C 
ATOM     21  O   UNL     1       5.191   3.392  19.645  0.00  0.00    +0.000 OA
ATOM     22  C   UNL     1       3.997   3.472  18.870  0.00  0.00    +0.000 C 
ATOM     23  C   UNL     1       4.324   3.602  17.388  0.00  0.00    +0.000 C 
BRANCH  18  28
ATOM     24  C   UNL     1       7.362   4.418  11.563  0.00  0.00    +0.000 C 
ATOM     25  C   UNL     1       6.815   4.462  12.961  0.00  0.00    +0.000 A 
ATOM     26  C   UNL     1       7.582   5.028  13.984  0.00  0.00    +0.000 A 
ATOM     27  C   UNL     1       7.080   5.126  15.283  0.00  0.00    +0.000 A 
ATOM     28  C   UNL     1       5.805   4.636  15.628  0.00  0.00    +0.000 A 
ATOM     29  C   UNL     1       5.067   4.020  14.603  0.00  0.00    +0.000 A 
ATOM     30  C   UNL     1       5.541   3.953  13.277  0.00  0.00    +0.000 A 
ATOM     31  C   UNL     1       4.664   3.355  12.209  0.00  0.00    +0.000 C 
ENDBRANCH  18  28
ENDBRANCH   1  18
TORSDOF 3
ENDMDL
MODEL 5
REMARK VINA RESULT:      -9.0      2.500      3.211
REMARK  Name = 
REMARK  5 active torsions:
REMARK  status: ('A' for Active; 'I' for Inactive)
REMARK    1  A    between atoms: C_1  and  C_2
REMARK    2  A    between atoms: C_5  and  C_6
REMARK    3  A    between atoms: C_6  and  C_7
REMARK    4  A    between atoms: C_13  and  C_14
REMARK    5  A    between atoms: C_29  and  C_30
REMARK                            x       y       z     vdW  Elec       q    Type
REMARK                         _______ _______ _______ _____ _____    ______ ____
ROOT
ATOM      1  C   UNL     1       2.027   5.572  20.037  0.00  0.00    +0.000 C 
ATOM      2  O   UNL     1       1.171   5.346  20.892  0.00  0.00    +0.000 OA
ATOM      3  N   UNL     1       2.370   6.856  19.638  0.00  0.00    +0.000 N 
ATOM      4  C   UNL     1       1.756   7.985  20.197  0.00  0.00    +0.000 A 
ATOM      5  C   UNL     1       1.608   8.134  21.561  0.00  0.00    +0.000 A 
ATOM      6  C   UNL     1       0.926   9.246  22.044  0.00  0.00    +0.000 A 
ATOM      7  C   UNL     1       0.376  10.157  21.151  0.00  0.00    +0.000 A 
ATOM      8  N   UNL     1       0.609  10.012  19.825  0.00  0.00    +0.000 NA
ATOM      9  N   UNL     1       1.332   8.936  19.345  0.00  0.00    +0.000 NA
ATOM     10  H   UNL     1       2.632   6.979  18.667  0.00  0.00    +0.000 HD
ENDROOT
BRANCH   7  11
ATOM     11  C   UNL     1      -0.463  11.295  21.563  0.00  0.00    +0.000 A 
ATOM     12  C   UNL     1      -0.507  12.479  20.802  0.00  0.00    +0.000 A 
ATOM     13  C   UNL     1      -1.308  13.566  21.195  0.00  0.00    +0.000 A 
ATOM     14  C   UNL     1      -2.081  13.493  22.348  0.00  0.00    +0.000 A 
ATOM     15  C   UNL     1      -2.066  12.329  23.110  0.00  0.00    +0.000 A 
ATOM     16  C   UNL     1      -1.272  11.255  22.714  0.00  0.00    +0.000 A 
ATOM     17  F   UNL     1      -1.323  10.149  23.472  0.00  0.00    +0.000 F 
ENDBRANCH   7  11
BRANCH   1  18
ATOM     18  C   UNL     1       2.750   4.418  19.274  0.00  0.00    +0.000 C 
ATOM     19  C   UNL     1       3.123   3.303  20.287  0.00  0.00    +0.000 C 
ATOM     20  C   UNL     1       1.895   2.576  20.822  0.00  0.00    +0.000 C 
ATOM     21  O   UNL     1       1.111   2.055  19.758  0.00  0.00    +0.000 OA
ATOM     22  C   UNL     1       0.606   3.064  18.887  0.00  0.00    +0.000 C 
ATOM     23  C   UNL     1       1.747   3.837  18.236  0.00  0.00    +0.000 C 
BRANCH  18  28
ATOM     24  C   UNL     1       7.505   6.123  16.210  0.00  0.00    +0.000 C 
ATOM     25  C   UNL     1       6.311   5.723  17.028  0.00  0.00    +0.000 A 
ATOM     26  C   UNL     1       5.085   5.499  16.393  0.00  0.00    +0.000 A 
ATOM     27  C   UNL     1       3.970   5.081  17.121  0.00  0.00    +0.000 A 
ATOM     28  C   UNL     1       4.016   4.898  18.517  0.00  0.00    +0.000 A 
ATOM     29  C   UNL     1       5.238   5.180  19.150  0.00  0.00    +0.000 A 
ATOM     30  C   UNL     1       6.386   5.560  18.424  0.00  0.00    +0.000 A 
ATOM     31  C   UNL     1       7.686   5.766  19.155  0.00  0.00    +0.000 C 
ENDBRANCH  18  28
ENDBRANCH   1  18
TORSDOF 3
ENDMDL
MODEL 6
REMARK VINA RESULT:      -9.0      3.680      9.774
REMARK  Name = 
REMARK  5 active torsions:
REMARK  status: ('A' for Active; 'I' for Inactive)
REMARK    1  A    between atoms: C_1  and  C_2
REMARK    2  A    between atoms: C_5  and  C_6
REMARK    3  A    between atoms: C_6  and  C_7
REMARK    4  A    between atoms: C_13  and  C_14
REMARK    5  A    between atoms: C_29  and  C_30
REMARK                            x       y       z     vdW  Elec       q    Type
REMARK                         _______ _______ _______ _____ _____    ______ ____
ROOT
ATOM      1  C   UNL     1       0.226  10.712  18.872  0.00  0.00    +0.000 C 
ATOM      2  O   UNL     1      -0.145  10.200  17.816  0.00  0.00    +0.000 OA
ATOM      3  N   UNL     1       1.095  10.079  19.750  0.00  0.00    +0.000 N 
ATOM      4  C   UNL     1       1.611   8.805  19.478  0.00  0.00    +0.000 A 
ATOM      5  C   UNL     1       2.154   8.485  18.250  0.00  0.00    +0.000 A 
ATOM      6  C   UNL     1       2.582   7.180  18.026  0.00  0.00    +0.000 A 
ATOM      7  C   UNL     1       2.421   6.223  19.019  0.00  0.00    +0.000 A 
ATOM      8  N   UNL     1       1.953   6.597  20.234  0.00  0.00    +0.000 NA
ATOM      9  N   UNL     1       1.575   7.905  20.477  0.00  0.00    +0.000 NA
ATOM     10  H   UNL     1       0.957  10.256  20.738  0.00  0.00    +0.000 HD
ENDROOT
BRANCH   7  11
ATOM     11  C   UNL     1       2.732   4.796  18.832  0.00  0.00    +0.000 A 
ATOM     12  C   UNL     1       3.782   4.181  19.541  0.00  0.00    +0.000 A 
ATOM     13  C   UNL     1       4.080   2.819  19.362  0.00  0.00    +0.000 A 
ATOM     14  C   UNL     1       3.336   2.044  18.480  0.00  0.00    +0.000 A 
ATOM     15  C   UNL     1       2.284   2.624  17.778  0.00  0.00    +0.000 A 
ATOM     16  C   UNL     1       1.993   3.973  17.961  0.00  0.00    +0.000 A 
ATOM     17  F   UNL     1       0.947   4.468  17.280  0.00  0.00    +0.000 F 
ENDBRANCH   7  11
BRANCH   1  18
ATOM     18  C   UNL     1      -0.315  12.098  19.347  0.00  0.00    +0.000 C 
ATOM     19  C   UNL     1       0.314  12.435  20.725  0.00  0.00    +0.000 C 
ATOM     20  C   UNL     1       1.807  12.723  20.622  0.00  0.00    +0.000 C 
ATOM     21  O   UNL     1       2.060  13.756  19.680  0.00  0.00    +0.000 OA
ATOM     22  C   UNL     1       1.645  13.423  18.357  0.00  0.00    +0.000 C 
ATOM     23  C   UNL     1       0.144  13.164  18.311  0.00  0.00    +0.000 C 
BRANCH  18  28
ATOM     24  C   UNL     1      -6.193  12.217  19.931  0.00  0.00    +0.000 C 
ATOM     25  C   UNL     1      -4.704  12.201  19.731  0.00  0.00    +0.000 A 
ATOM     26  C   UNL     1      -3.869  12.670  20.750  0.00  0.00    +0.000 A 
ATOM     27  C   UNL     1      -2.480  12.624  20.611  0.00  0.00    +0.000 A 
ATOM     28  C   UNL     1      -1.863  12.139  19.442  0.00  0.00    +0.000 A 
ATOM     29  C   UNL     1      -2.715  11.723  18.404  0.00  0.00    +0.000 A 
ATOM     30  C   UNL     1      -4.118  11.722  18.545  0.00  0.00    +0.000 A 
ATOM     31  C   UNL     1      -4.971  11.183  17.427  0.00  0.00    +0.000 C 
ENDBRANCH  18  28
ENDBRANCH   1  18
TORSDOF 3
ENDMDL
MODEL 7
REMARK VINA RESULT:      -9.0      1.705      2.505
REMARK  Name = 
REMARK  5 active torsions:
REMARK  status: ('A' for Active; 'I' for Inactive)
REMARK    1  A    between atoms: C_1  and  C_2
REMARK    2  A    between atoms: C_5  and  C_6
REMARK    3  A    between atoms: C_6  and  C_7
REMARK    4  A    between atoms: C_13  and  C_14
REMARK    5  A    between atoms: C_29  and  C_30
REMARK                            x       y       z     vdW  Elec       q    Type
REMARK                         _______ _______ _______ _____ _____    ______ ____
ROOT
ATOM      1  C   UNL     1       2.153   5.245  19.520  0.00  0.00    +0.000 C 
ATOM      2  O   UNL     1       1.171   5.192  20.260  0.00  0.00    +0.000 OA
ATOM      3  N   UNL     1       2.651   6.438  19.015  0.00  0.00    +0.000 N 
ATOM      4  C   UNL     1       2.058   7.669  19.328  0.00  0.00    +0.000 A 
ATOM      5  C   UNL     1       1.734   8.014  20.625  0.00  0.00    +0.000 A 
ATOM      6  C   UNL     1       1.083   9.221  20.854  0.00  0.00    +0.000 A 
ATOM      7  C   UNL     1       0.738  10.033  19.781  0.00  0.00    +0.000 A 
ATOM      8  N   UNL     1       1.140   9.691  18.533  0.00  0.00    +0.000 NA
ATOM      9  N   UNL     1       1.834   8.517  18.308  0.00  0.00    +0.000 NA
ATOM     10  H   UNL     1       3.054   6.410  18.087  0.00  0.00    +0.000 HD
ENDROOT
BRANCH   7  11
ATOM     11  C   UNL     1      -0.056  11.266  19.915  0.00  0.00    +0.000 A 
ATOM     12  C   UNL     1      -1.422  11.291  19.573  0.00  0.00    +0.000 A 
ATOM     13  C   UNL     1      -2.180  12.468  19.699  0.00  0.00    +0.000 A 
ATOM     14  C   UNL     1      -1.595  13.638  20.172  0.00  0.00    +0.000 A 
ATOM     15  C   UNL     1      -0.251  13.635  20.530  0.00  0.00    +0.000 A 
ATOM     16  C   UNL     1       0.494  12.466  20.404  0.00  0.00    +0.000 A 
ATOM     17  F   UNL     1       1.777  12.517  20.795  0.00  0.00    +0.000 F 
ENDBRANCH   7  11
BRANCH   1  18
ATOM     18  C   UNL     1       2.880   3.954  19.026  0.00  0.00    +0.000 C 
ATOM     19  C   UNL     1       3.324   3.126  20.261  0.00  0.00    +0.000 C 
ATOM     20  C   UNL     1       2.141   2.527  21.010  0.00  0.00    +0.000 C 
ATOM     21  O   UNL     1       1.332   1.748  20.139  0.00  0.00    +0.000 OA
ATOM     22  C   UNL     1       0.764   2.506  19.073  0.00  0.00    +0.000 C 
ATOM     23  C   UNL     1       1.855   3.120  18.205  0.00  0.00    +0.000 C 
BRANCH  18  28
ATOM     24  C   UNL     1       7.458   4.962  15.430  0.00  0.00    +0.000 C 
ATOM     25  C   UNL     1       6.310   4.748  16.374  0.00  0.00    +0.000 A 
ATOM     26  C   UNL     1       5.060   4.381  15.866  0.00  0.00    +0.000 A 
ATOM     27  C   UNL     1       3.987   4.128  16.722  0.00  0.00    +0.000 A 
ATOM     28  C   UNL     1       4.101   4.261  18.120  0.00  0.00    +0.000 A 
ATOM     29  C   UNL     1       5.347   4.684  18.614  0.00  0.00    +0.000 A 
ATOM     30  C   UNL     1       6.453   4.900  17.766  0.00  0.00    +0.000 A 
ATOM     31  C   UNL     1       7.783   5.270  18.368  0.00  0.00    +0.000 C 
ENDBRANCH  18  28
ENDBRANCH   1  18
TORSDOF 3
ENDMDL
MODEL 8
REMARK VINA RESULT:      -9.0      2.118      2.772
REMARK  Name = 
REMARK  5 active torsions:
REMARK  status: ('A' for Active; 'I' for Inactive)
REMARK    1  A    between atoms: C_1  and  C_2
REMARK    2  A    between atoms: C_5  and  C_6
REMARK    3  A    between atoms: C_6  and  C_7
REMARK    4  A    between atoms: C_13  and  C_14
REMARK    5  A    between atoms: C_29  and  C_30
REMARK                            x       y       z     vdW  Elec       q    Type
REMARK                         _______ _______ _______ _____ _____    ______ ____
ROOT
ATOM      1  C   UNL     1       5.097   6.682  17.489  0.00  0.00    +0.000 C 
ATOM      2  O   UNL     1       5.393   7.831  17.161  0.00  0.00    +0.000 OA
ATOM      3  N   UNL     1       3.896   6.363  18.107  0.00  0.00    +0.000 N 
ATOM      4  C   UNL     1       2.936   7.344  18.393  0.00  0.00    +0.000 A 
ATOM      5  C   UNL     1       2.541   8.274  17.453  0.00  0.00    +0.000 A 
ATOM      6  C   UNL     1       1.637   9.263  17.827  0.00  0.00    +0.000 A 
ATOM      7  C   UNL     1       1.183   9.320  19.138  0.00  0.00    +0.000 A 
ATOM      8  N   UNL     1       1.538   8.344  20.008  0.00  0.00    +0.000 NA
ATOM      9  N   UNL     1       2.396   7.330  19.625  0.00  0.00    +0.000 NA
ATOM     10  H   UNL     1       3.915   5.609  18.783  0.00  0.00    +0.000 HD
ENDROOT
BRANCH   7  11
ATOM     11  C   UNL     1       0.322  10.397  19.656  0.00  0.00    +0.000 A 
ATOM     12  C   UNL     1       0.771  11.260  20.674  0.00  0.00    +0.000 A 
ATOM     13  C   UNL     1      -0.050  12.288  21.169  0.00  0.00    +0.000 A 
ATOM     14  C   UNL     1      -1.329  12.479  20.657  0.00  0.00    +0.000 A 
ATOM     15  C   UNL     1      -1.790  11.649  19.640  0.00  0.00    +0.000 A 
ATOM     16  C   UNL     1      -0.971  10.634  19.153  0.00  0.00    +0.000 A 
ATOM     17  F   UNL     1      -1.460   9.886  18.152  0.00  0.00    +0.000 F 
ENDBRANCH   7  11
BRANCH   1  18
ATOM     18  C   UNL     1       6.089   5.493  17.299  0.00  0.00    +0.000 C 
ATOM     19  C   UNL     1       7.513   5.958  17.705  0.00  0.00    +0.000 C 
ATOM     20  C   UNL     1       7.634   6.204  19.204  0.00  0.00    +0.000 C 
ATOM     21  O   UNL     1       7.246   5.051  19.939  0.00  0.00    +0.000 OA
ATOM     22  C   UNL     1       5.887   4.679  19.723  0.00  0.00    +0.000 C 
ATOM     23  C   UNL     1       5.644   4.349  18.256  0.00  0.00    +0.000 C 
BRANCH  18  28
ATOM     24  C   UNL     1       6.064   3.197  11.855  0.00  0.00    +0.000 C 
ATOM     25  C   UNL     1       6.080   3.829  13.218  0.00  0.00    +0.000 A 
ATOM     26  C   UNL     1       5.162   3.405  14.184  0.00  0.00    +0.000 A 
ATOM     27  C   UNL     1       5.185   3.940  15.473  0.00  0.00    +0.000 A 
ATOM     28  C   UNL     1       6.100   4.943  15.848  0.00  0.00    +0.000 A 
ATOM     29  C   UNL     1       6.980   5.399  14.852  0.00  0.00    +0.000 A 
ATOM     30  C   UNL     1       7.000   4.838  13.559  0.00  0.00    +0.000 A 
ATOM     31  C   UNL     1       8.025   5.314  12.564  0.00  0.00    +0.000 C 
ENDBRANCH  18  28
ENDBRANCH   1  18
TORSDOF 3
ENDMDL
MODEL 9
REMARK VINA RESULT:      -9.0      2.495      3.023
REMARK  Name = 
REMARK  5 active torsions:
REMARK  status: ('A' for Active; 'I' for Inactive)
REMARK    1  A    between atoms: C_1  and  C_2
REMARK    2  A    between atoms: C_5  and  C_6
REMARK    3  A    between atoms: C_6  and  C_7
REMARK    4  A    between atoms: C_13  and  C_14
REMARK    5  A    between atoms: C_29  and  C_30
REMARK                            x       y       z     vdW  Elec       q    Type
REMARK                         _______ _______ _______ _____ _____    ______ ____
ROOT
ATOM      1  C   UNL     1       1.833   5.457  19.965  0.00  0.00    +0.000 C 
ATOM      2  O   UNL     1       0.736   5.184  20.450  0.00  0.00    +0.000 OA
ATOM      3  N   UNL     1       2.308   6.758  19.868  0.00  0.00    +0.000 N 
ATOM      4  C   UNL     1       1.557   7.848  20.327  0.00  0.00    +0.000 A 
ATOM      5  C   UNL     1       0.959   7.850  21.571  0.00  0.00    +0.000 A 
ATOM      6  C   UNL     1       0.168   8.935  21.933  0.00  0.00    +0.000 A 
ATOM      7  C   UNL     1      -0.034   9.971  21.031  0.00  0.00    +0.000 A 
ATOM      8  N   UNL     1       0.631   9.965  19.851  0.00  0.00    +0.000 NA
ATOM      9  N   UNL     1       1.458   8.911  19.509  0.00  0.00    +0.000 NA
ATOM     10  H   UNL     1       2.885   6.976  19.064  0.00  0.00    +0.000 HD
ENDROOT
BRANCH   7  11
ATOM     11  C   UNL     1      -0.948  11.099  21.278  0.00  0.00    +0.000 A 
ATOM     12  C   UNL     1      -1.442  11.880  20.216  0.00  0.00    +0.000 A 
ATOM     13  C   UNL     1      -2.314  12.958  20.452  0.00  0.00    +0.000 A 
ATOM     14  C   UNL     1      -2.712  13.274  21.746  0.00  0.00    +0.000 A 
ATOM     15  C   UNL     1      -2.249  12.509  22.811  0.00  0.00    +0.000 A 
ATOM     16  C   UNL     1      -1.388  11.442  22.571  0.00  0.00    +0.000 A 
ATOM     17  F   UNL     1      -1.000  10.722  23.635  0.00  0.00    +0.000 F 
ENDBRANCH   7  11
BRANCH   1  18
ATOM     18  C   UNL     1       2.756   4.360  19.348  0.00  0.00    +0.000 C 
ATOM     19  C   UNL     1       3.134   3.342  20.457  0.00  0.00    +0.000 C 
ATOM     20  C   UNL     1       1.942   2.506  20.904  0.00  0.00    +0.000 C 
ATOM     21  O   UNL     1       1.340   1.851  19.796  0.00  0.00    +0.000 OA
ATOM     22  C   UNL     1       0.826   2.754  18.821  0.00  0.00    +0.000 C 
ATOM     23  C   UNL     1       1.941   3.621  18.248  0.00  0.00    +0.000 C 
BRANCH  18  28
ATOM     24  C   UNL     1       7.703   6.664  17.085  0.00  0.00    +0.000 C 
ATOM     25  C   UNL     1       6.435   6.057  17.613  0.00  0.00    +0.000 A 
ATOM     26  C   UNL     1       6.417   5.506  18.897  0.00  0.00    +0.000 A 
ATOM     27  C   UNL     1       5.241   4.978  19.432  0.00  0.00    +0.000 A 
ATOM     28  C   UNL     1       4.038   4.946  18.700  0.00  0.00    +0.000 A 
ATOM     29  C   UNL     1       4.083   5.453  17.390  0.00  0.00    +0.000 A 
ATOM     30  C   UNL     1       5.251   6.029  16.851  0.00  0.00    +0.000 A 
ATOM     31  C   UNL     1       5.208   6.631  15.472  0.00  0.00    +0.000 C 
ENDBRANCH  18  28
ENDBRANCH   1  18
TORSDOF 3
ENDMDL
