MODEL 1
REMARK VINA RESULT:      -7.8      0.000      0.000
REMARK  Name = 
REMARK  7 active torsions:
REMARK  status: ('A' for Active; 'I' for Inactive)
REMARK    1  A    between atoms: C_1  and  C_2
REMARK    2  A    between atoms: C_3  and  C_4
REMARK    3  A    between atoms: C_4  and  C_5
REMARK    4  A    between atoms: C_5  and  C_6
REMARK    5  A    between atoms: N_10  and  C_11
REMARK    6  A    between atoms: C_12  and  N_13
REMARK    7  A    between atoms: C_20  and  C_21
REMARK                            x       y       z     vdW  Elec       q    Type
REMARK                         _______ _______ _______ _____ _____    ______ ____
ROOT
ATOM      1  C   UNL     1       4.886   2.371  19.822  0.00  0.00    +0.000 C 
ATOM      2  C   UNL     1       3.561   3.088  19.863  0.00  0.00    +0.000 C 
ATOM      3  C   UNL     1       3.376   4.427  19.718  0.00  0.00    +0.000 C 
ATOM      4  C   UNL     1       2.012   4.979  19.819  0.00  0.00    +0.000 C 
ATOM      5  C   UNL     1       0.942   4.197  20.034  0.00  0.00    +0.000 C 
ATOM      6  C   UNL     1       1.012   2.719  20.217  0.00  0.00    +0.000 C 
ATOM      7  C   UNL     1       2.415   2.123  20.107  0.00  0.00    +0.000 C 
ENDROOT
BRANCH   4   8
ATOM      8  N   UNL     1       1.811   6.334  19.706  0.00  0.00    +0.000 N 
ATOM      9  C   UNL     1       1.314   7.145  20.802  0.00  0.00    +0.000 C 
ATOM     10  C   UNL     1       1.296   8.524  20.217  0.00  0.00    +0.000 A 
ATOM     11  C   UNL     1       1.762   8.478  18.901  0.00  0.00    +0.000 A 
ATOM     12  C   UNL     1       1.869   9.601  18.104  0.00  0.00    +0.000 A 
ATOM     13  C   UNL     1       1.487  10.821  18.659  0.00  0.00    +0.000 A 
ATOM     14  C   UNL     1       1.006  10.885  19.979  0.00  0.00    +0.000 A 
ATOM     15  C   UNL     1       0.899   9.731  20.784  0.00  0.00    +0.000 A 
ATOM     16  C   UNL     1       2.088   7.084  18.564  0.00  0.00    +0.000 C 
ATOM     17  O   UNL     1       2.511   6.727  17.482  0.00  0.00    +0.000 OA
BRANCH  15  18
ATOM     18  C   UNL     1       0.367   9.842  22.189  0.00  0.00    +0.000 C 
ATOM     19  F   UNL     1      -0.034  11.098  22.526  0.00  0.00    +0.000 F 
ATOM     20  F   UNL     1      -0.716   9.042  22.393  0.00  0.00    +0.000 F 
ATOM     21  F   UNL     1       1.284   9.476  23.125  0.00  0.00    +0.000 F 
ENDBRANCH  15  18
ENDBRANCH   4   8
BRANCH   3  22
ATOM     22  C   UNL     1       4.530   5.405  19.493  0.00  0.00    +0.000 C 
BRANCH  22  23
ATOM     23  C   UNL     1       5.350   5.157  18.218  0.00  0.00    +0.000 C 
BRANCH  23  24
ATOM     24  C   UNL     1       6.312   6.270  17.954  0.00  0.00    +0.000 A 
ATOM     25  N   UNL     1       6.159   7.234  17.067  0.00  0.00    +0.000 NA
ATOM     26  N   UNL     1       7.281   8.029  17.098  0.00  0.00    +0.000 NA
ATOM     27  C   UNL     1       8.093   7.537  18.002  0.00  0.00    +0.000 A 
ATOM     28  N   UNL     1       7.523   6.443  18.577  0.00  0.00    +0.000 N 
ATOM     29  C   UNL     1       8.101   5.641  19.620  0.00  0.00    +0.000 C 
ENDBRANCH  23  24
ENDBRANCH  22  23
ENDBRANCH   3  22
TORSDOF 5
ENDMDL
MODEL 2
REMARK VINA RESULT:      -7.7      6.316      9.056
REMARK  Name = 
REMARK  7 active torsions:
REMARK  status: ('A' for Active; 'I' for Inactive)
REMARK    1  A    between atoms: C_1  and  C_2
REMARK    2  A    between atoms: C_3  and  C_4
REMARK    3  A    between atoms: C_4  and  C_5
REMARK    4  A    between atoms: C_5  and  C_6
REMARK    5  A    between atoms: N_10  and  C_11
REMARK    6  A    between atoms: C_12  and  N_13
REMARK    7  A    between atoms: C_20  and  C_21
REMARK                            x       y       z     vdW  Elec       q    Type
REMARK                         _______ _______ _______ _____ _____    ______ ____
ROOT
ATOM      1  C   UNL     1       0.325   9.785  18.829  0.00  0.00    +0.000 C 
ATOM      2  C   UNL     1      -0.035  10.058  20.267  0.00  0.00    +0.000 C 
ATOM      3  C   UNL     1      -0.756  11.118  20.719  0.00  0.00    +0.000 C 
ATOM      4  C   UNL     1      -0.993  11.260  22.167  0.00  0.00    +0.000 C 
ATOM      5  C   UNL     1      -0.533  10.365  23.056  0.00  0.00    +0.000 C 
ATOM      6  C   UNL     1       0.276   9.167  22.689  0.00  0.00    +0.000 C 
ATOM      7  C   UNL     1       0.527   8.993  21.192  0.00  0.00    +0.000 C 
ENDROOT
BRANCH   4   8
ATOM      8  N   UNL     1      -1.695  12.342  22.644  0.00  0.00    +0.000 N 
ATOM      9  C   UNL     1      -3.120  12.293  22.914  0.00  0.00    +0.000 C 
ATOM     10  C   UNL     1      -3.410  13.667  23.434  0.00  0.00    +0.000 A 
ATOM     11  C   UNL     1      -2.230  14.413  23.462  0.00  0.00    +0.000 A 
ATOM     12  C   UNL     1      -2.180  15.722  23.904  0.00  0.00    +0.000 A 
ATOM     13  C   UNL     1      -3.373  16.300  24.334  0.00  0.00    +0.000 A 
ATOM     14  C   UNL     1      -4.573  15.566  24.304  0.00  0.00    +0.000 A 
ATOM     15  C   UNL     1      -4.613  14.232  23.848  0.00  0.00    +0.000 A 
ATOM     16  C   UNL     1      -1.131  13.578  22.954  0.00  0.00    +0.000 C 
ATOM     17  O   UNL     1       0.020  13.957  22.852  0.00  0.00    +0.000 OA
BRANCH  15  18
ATOM     18  C   UNL     1      -5.921  13.486  23.820  0.00  0.00    +0.000 C 
ATOM     19  F   UNL     1      -6.983  14.226  24.242  0.00  0.00    +0.000 F 
ATOM     20  F   UNL     1      -6.244  13.060  22.568  0.00  0.00    +0.000 F 
ATOM     21  F   UNL     1      -5.905  12.373  24.602  0.00  0.00    +0.000 F 
ENDBRANCH  15  18
ENDBRANCH   4   8
BRANCH   3  22
ATOM     22  C   UNL     1      -1.306  12.204  19.792  0.00  0.00    +0.000 C 
BRANCH  22  23
ATOM     23  C   UNL     1      -2.795  12.066  19.445  0.00  0.00    +0.000 C 
BRANCH  23  24
ATOM     24  C   UNL     1      -2.995  11.598  18.040  0.00  0.00    +0.000 A 
ATOM     25  N   UNL     1      -2.055  11.463  17.125  0.00  0.00    +0.000 NA
ATOM     26  N   UNL     1      -2.650  11.056  15.954  0.00  0.00    +0.000 NA
ATOM     27  C   UNL     1      -3.937  10.947  16.177  0.00  0.00    +0.000 A 
ATOM     28  N   UNL     1      -4.200  11.262  17.475  0.00  0.00    +0.000 N 
ATOM     29  C   UNL     1      -5.495  11.247  18.101  0.00  0.00    +0.000 C 
ENDBRANCH  23  24
ENDBRANCH  22  23
ENDBRANCH   3  22
TORSDOF 5
ENDMDL
MODEL 3
REMARK VINA RESULT:      -7.6      2.607      4.692
REMARK  Name = 
REMARK  7 active torsions:
REMARK  status: ('A' for Active; 'I' for Inactive)
REMARK    1  A    between atoms: C_1  and  C_2
REMARK    2  A    between atoms: C_3  and  C_4
REMARK    3  A    between atoms: C_4  and  C_5
REMARK    4  A    between atoms: C_5  and  C_6
REMARK    5  A    between atoms: N_10  and  C_11
REMARK    6  A    between atoms: C_12  and  N_13
REMARK    7  A    between atoms: C_20  and  C_21
REMARK                            x       y       z     vdW  Elec       q    Type
REMARK                         _______ _______ _______ _____ _____    ______ ____
ROOT
ATOM      1  C   UNL     1       3.611   3.120  16.199  0.00  0.00    +0.000 C 
ATOM      2  C   UNL     1       3.899   4.469  16.806  0.00  0.00    +0.000 C 
ATOM      3  C   UNL     1       3.057   5.179  17.602  0.00  0.00    +0.000 C 
ATOM      4  C   UNL     1       3.476   6.506  18.090  0.00  0.00    +0.000 C 
ATOM      5  C   UNL     1       4.674   7.031  17.785  0.00  0.00    +0.000 C 
ATOM      6  C   UNL     1       5.682   6.358  16.916  0.00  0.00    +0.000 C 
ATOM      7  C   UNL     1       5.273   4.976  16.406  0.00  0.00    +0.000 C 
ENDROOT
BRANCH   4   8
ATOM      8  N   UNL     1       2.624   7.250  18.871  0.00  0.00    +0.000 N 
ATOM      9  C   UNL     1       1.968   8.451  18.388  0.00  0.00    +0.000 C 
ATOM     10  C   UNL     1       1.140   8.876  19.561  0.00  0.00    +0.000 A 
ATOM     11  C   UNL     1       1.315   7.968  20.608  0.00  0.00    +0.000 A 
ATOM     12  C   UNL     1       0.669   8.091  21.823  0.00  0.00    +0.000 A 
ATOM     13  C   UNL     1      -0.187   9.179  21.988  0.00  0.00    +0.000 A 
ATOM     14  C   UNL     1      -0.368  10.109  20.948  0.00  0.00    +0.000 A 
ATOM     15  C   UNL     1       0.299   9.974  19.712  0.00  0.00    +0.000 A 
ATOM     16  C   UNL     1       2.264   6.931  20.179  0.00  0.00    +0.000 C 
ATOM     17  O   UNL     1       2.622   6.004  20.880  0.00  0.00    +0.000 OA
BRANCH  15  18
ATOM     18  C   UNL     1       0.087  10.999  18.629  0.00  0.00    +0.000 C 
ATOM     19  F   UNL     1       1.236  11.589  18.199  0.00  0.00    +0.000 F 
ATOM     20  F   UNL     1      -0.488  10.462  17.517  0.00  0.00    +0.000 F 
ATOM     21  F   UNL     1      -0.732  12.013  19.021  0.00  0.00    +0.000 F 
ENDBRANCH  15  18
ENDBRANCH   4   8
BRANCH   3  22
ATOM     22  C   UNL     1       1.663   4.680  17.990  0.00  0.00    +0.000 C 
BRANCH  22  23
ATOM     23  C   UNL     1       1.579   3.183  18.320  0.00  0.00    +0.000 C 
BRANCH  23  24
ATOM     24  C   UNL     1       1.787   2.925  19.776  0.00  0.00    +0.000 A 
ATOM     25  N   UNL     1       0.867   3.002  20.718  0.00  0.00    +0.000 NA
ATOM     26  N   UNL     1       1.466   2.740  21.928  0.00  0.00    +0.000 NA
ATOM     27  C   UNL     1       2.736   2.503  21.701  0.00  0.00    +0.000 A 
ATOM     28  N   UNL     1       2.982   2.592  20.365  0.00  0.00    +0.000 N 
ATOM     29  C   UNL     1       4.253   2.386  19.727  0.00  0.00    +0.000 C 
ENDBRANCH  23  24
ENDBRANCH  22  23
ENDBRANCH   3  22
TORSDOF 5
ENDMDL
MODEL 4
REMARK VINA RESULT:      -7.5      0.578      1.101
REMARK  Name = 
REMARK  7 active torsions:
REMARK  status: ('A' for Active; 'I' for Inactive)
REMARK    1  A    between atoms: C_1  and  C_2
REMARK    2  A    between atoms: C_3  and  C_4
REMARK    3  A    between atoms: C_4  and  C_5
REMARK    4  A    between atoms: C_5  and  C_6
REMARK    5  A    between atoms: N_10  and  C_11
REMARK    6  A    between atoms: C_12  and  N_13
REMARK    7  A    between atoms: C_20  and  C_21
REMARK                            x       y       z     vdW  Elec       q    Type
REMARK                         _______ _______ _______ _____ _____    ______ ____
ROOT
ATOM      1  C   UNL     1       4.848   2.144  20.021  0.00  0.00    +0.000 C 
ATOM      2  C   UNL     1       3.533   2.878  19.948  0.00  0.00    +0.000 C 
ATOM      3  C   UNL     1       3.379   4.220  19.800  0.00  0.00    +0.000 C 
ATOM      4  C   UNL     1       2.020   4.789  19.781  0.00  0.00    +0.000 C 
ATOM      5  C   UNL     1       0.924   4.021  19.890  0.00  0.00    +0.000 C 
ATOM      6  C   UNL     1       0.959   2.541  20.065  0.00  0.00    +0.000 C 
ATOM      7  C   UNL     1       2.358   1.926  20.078  0.00  0.00    +0.000 C 
ENDROOT
BRANCH   4   8
ATOM      8  N   UNL     1       1.847   6.148  19.663  0.00  0.00    +0.000 N 
ATOM      9  C   UNL     1       1.349   6.971  20.750  0.00  0.00    +0.000 C 
ATOM     10  C   UNL     1       1.367   8.349  20.163  0.00  0.00    +0.000 A 
ATOM     11  C   UNL     1       1.852   8.291  18.854  0.00  0.00    +0.000 A 
ATOM     12  C   UNL     1       1.994   9.411  18.057  0.00  0.00    +0.000 A 
ATOM     13  C   UNL     1       1.627  10.639  18.604  0.00  0.00    +0.000 A 
ATOM     14  C   UNL     1       1.127  10.715  19.917  0.00  0.00    +0.000 A 
ATOM     15  C   UNL     1       0.985   9.565  20.721  0.00  0.00    +0.000 A 
ATOM     16  C   UNL     1       2.156   6.891  18.525  0.00  0.00    +0.000 C 
ATOM     17  O   UNL     1       2.589   6.524  17.449  0.00  0.00    +0.000 OA
BRANCH  15  18
ATOM     18  C   UNL     1       0.433   9.688  22.118  0.00  0.00    +0.000 C 
ATOM     19  F   UNL     1       0.030  10.948  22.439  0.00  0.00    +0.000 F 
ATOM     20  F   UNL     1      -0.654   8.892  22.313  0.00  0.00    +0.000 F 
ATOM     21  F   UNL     1       1.336   9.329  23.070  0.00  0.00    +0.000 F 
ENDBRANCH  15  18
ENDBRANCH   4   8
BRANCH   3  22
ATOM     22  C   UNL     1       4.562   5.184  19.689  0.00  0.00    +0.000 C 
BRANCH  22  23
ATOM     23  C   UNL     1       5.695   4.717  18.764  0.00  0.00    +0.000 C 
BRANCH  23  24
ATOM     24  C   UNL     1       6.642   5.828  18.445  0.00  0.00    +0.000 A 
ATOM     25  N   UNL     1       7.703   6.171  19.149  0.00  0.00    +0.000 NA
ATOM     26  N   UNL     1       8.280   7.267  18.551  0.00  0.00    +0.000 NA
ATOM     27  C   UNL     1       7.565   7.567  17.494  0.00  0.00    +0.000 A 
ATOM     28  N   UNL     1       6.536   6.684  17.377  0.00  0.00    +0.000 N 
ATOM     29  C   UNL     1       5.544   6.679  16.337  0.00  0.00    +0.000 C 
ENDBRANCH  23  24
ENDBRANCH  22  23
ENDBRANCH   3  22
TORSDOF 5
ENDMDL
MODEL 5
REMARK VINA RESULT:      -7.5      0.954      1.480
REMARK  Name = 
REMARK  7 active torsions:
REMARK  status: ('A' for Active; 'I' for Inactive)
REMARK    1  A    between atoms: C_1  and  C_2
REMARK    2  A    between atoms: C_3  and  C_4
REMARK    3  A    between atoms: C_4  and  C_5
REMARK    4  A    between atoms: C_5  and  C_6
REMARK    5  A    between atoms: N_10  and  C_11
REMARK    6  A    between atoms: C_12  and  N_13
REMARK    7  A    between atoms: C_20  and  C_21
REMARK                            x       y       z     vdW  Elec       q    Type
REMARK                         _______ _______ _______ _____ _____    ______ ____
ROOT
ATOM      1  C   UNL     1       4.829   2.295  20.079  0.00  0.00    +0.000 C 
ATOM      2  C   UNL     1       3.505   3.009  19.983  0.00  0.00    +0.000 C 
ATOM      3  C   UNL     1       3.332   4.351  19.859  0.00  0.00    +0.000 C 
ATOM      4  C   UNL     1       1.963   4.897  19.813  0.00  0.00    +0.000 C 
ATOM      5  C   UNL     1       0.878   4.108  19.873  0.00  0.00    +0.000 C 
ATOM      6  C   UNL     1       0.934   2.625  20.018  0.00  0.00    +0.000 C 
ATOM      7  C   UNL     1       2.343   2.034  20.059  0.00  0.00    +0.000 C 
ENDROOT
BRANCH   4   8
ATOM      8  N   UNL     1       1.770   6.255  19.718  0.00  0.00    +0.000 N 
ATOM      9  C   UNL     1       1.281   7.055  20.826  0.00  0.00    +0.000 C 
ATOM     10  C   UNL     1       1.270   8.441  20.260  0.00  0.00    +0.000 A 
ATOM     11  C   UNL     1       1.732   8.410  18.942  0.00  0.00    +0.000 A 
ATOM     12  C   UNL     1       1.844   9.543  18.159  0.00  0.00    +0.000 A 
ATOM     13  C   UNL     1       1.470  10.758  18.732  0.00  0.00    +0.000 A 
ATOM     14  C   UNL     1       0.993  10.808  20.055  0.00  0.00    +0.000 A 
ATOM     15  C   UNL     1       0.882   9.644  20.844  0.00  0.00    +0.000 A 
ATOM     16  C   UNL     1       2.048   7.019  18.586  0.00  0.00    +0.000 C 
ATOM     17  O   UNL     1       2.466   6.674  17.497  0.00  0.00    +0.000 OA
BRANCH  15  18
ATOM     18  C   UNL     1       0.355   9.738  22.251  0.00  0.00    +0.000 C 
ATOM     19  F   UNL     1      -0.066  10.986  22.597  0.00  0.00    +0.000 F 
ATOM     20  F   UNL     1      -0.714   8.920  22.457  0.00  0.00    +0.000 F 
ATOM     21  F   UNL     1       1.282   9.384  23.182  0.00  0.00    +0.000 F 
ENDBRANCH  15  18
ENDBRANCH   4   8
BRANCH   3  22
ATOM     22  C   UNL     1       4.500   5.337  19.803  0.00  0.00    +0.000 C 
BRANCH  22  23
ATOM     23  C   UNL     1       5.697   4.878  18.959  0.00  0.00    +0.000 C 
BRANCH  23  24
ATOM     24  C   UNL     1       5.684   5.495  17.598  0.00  0.00    +0.000 A 
ATOM     25  N   UNL     1       6.106   6.706  17.291  0.00  0.00    +0.000 NA
ATOM     26  N   UNL     1       5.880   6.913  15.950  0.00  0.00    +0.000 NA
ATOM     27  C   UNL     1       5.330   5.825  15.466  0.00  0.00    +0.000 A 
ATOM     28  N   UNL     1       5.201   4.902  16.458  0.00  0.00    +0.000 N 
ATOM     29  C   UNL     1       4.653   3.581  16.314  0.00  0.00    +0.000 C 
ENDBRANCH  23  24
ENDBRANCH  22  23
ENDBRANCH   3  22
TORSDOF 5
ENDMDL
MODEL 6
REMARK VINA RESULT:      -7.5      2.537      4.955
REMARK  Name = 
REMARK  7 active torsions:
REMARK  status: ('A' for Active; 'I' for Inactive)
REMARK    1  A    between atoms: C_1  and  C_2
REMARK    2  A    between atoms: C_3  and  C_4
REMARK    3  A    between atoms: C_4  and  C_5
REMARK    4  A    between atoms: C_5  and  C_6
REMARK    5  A    between atoms: N_10  and  C_11
REMARK    6  A    between atoms: C_12  and  N_13
REMARK    7  A    between atoms: C_20  and  C_21
REMARK                            x       y       z     vdW  Elec       q    Type
REMARK                         _______ _______ _______ _____ _____    ______ ____
ROOT
ATOM      1  C   UNL     1       5.553   3.357  15.085  0.00  0.00    +0.000 C 
ATOM      2  C   UNL     1       5.622   4.593  15.945  0.00  0.00    +0.000 C 
ATOM      3  C   UNL     1       4.625   5.065  16.740  0.00  0.00    +0.000 C 
ATOM      4  C   UNL     1       4.839   6.313  17.495  0.00  0.00    +0.000 C 
ATOM      5  C   UNL     1       5.996   6.992  17.438  0.00  0.00    +0.000 C 
ATOM      6  C   UNL     1       7.160   6.584  16.600  0.00  0.00    +0.000 C 
ATOM      7  C   UNL     1       6.965   5.287  15.814  0.00  0.00    +0.000 C 
ENDROOT
BRANCH   4   8
ATOM      8  N   UNL     1       3.830   6.821  18.280  0.00  0.00    +0.000 N 
ATOM      9  C   UNL     1       3.033   7.967  17.883  0.00  0.00    +0.000 C 
ATOM     10  C   UNL     1       2.069   8.115  19.020  0.00  0.00    +0.000 A 
ATOM     11  C   UNL     1       2.308   7.115  19.965  0.00  0.00    +0.000 A 
ATOM     12  C   UNL     1       1.567   6.987  21.125  0.00  0.00    +0.000 A 
ATOM     13  C   UNL     1       0.545   7.911  21.339  0.00  0.00    +0.000 A 
ATOM     14  C   UNL     1       0.297   8.931  20.402  0.00  0.00    +0.000 A 
ATOM     15  C   UNL     1       1.061   9.052  19.223  0.00  0.00    +0.000 A 
ATOM     16  C   UNL     1       3.432   6.288  19.505  0.00  0.00    +0.000 C 
ATOM     17  O   UNL     1       3.878   5.340  20.122  0.00  0.00    +0.000 OA
BRANCH  15  18
ATOM     18  C   UNL     1       0.771  10.166  18.251  0.00  0.00    +0.000 C 
ATOM     19  F   UNL     1       0.058  11.193  18.791  0.00  0.00    +0.000 F 
ATOM     20  F   UNL     1       1.909  10.729  17.758  0.00  0.00    +0.000 F 
ATOM     21  F   UNL     1       0.062   9.745  17.169  0.00  0.00    +0.000 F 
ENDBRANCH  15  18
ENDBRANCH   4   8
BRANCH   3  22
ATOM     22  C   UNL     1       3.262   4.379  16.858  0.00  0.00    +0.000 C 
BRANCH  22  23
ATOM     23  C   UNL     1       3.296   2.972  17.470  0.00  0.00    +0.000 C 
BRANCH  23  24
ATOM     24  C   UNL     1       2.426   2.873  18.680  0.00  0.00    +0.000 A 
ATOM     25  N   UNL     1       1.150   3.198  18.748  0.00  0.00    +0.000 NA
ATOM     26  N   UNL     1       0.725   3.009  20.042  0.00  0.00    +0.000 NA
ATOM     27  C   UNL     1       1.747   2.568  20.736  0.00  0.00    +0.000 A 
ATOM     28  N   UNL     1       2.832   2.451  19.922  0.00  0.00    +0.000 N 
ATOM     29  C   UNL     1       4.134   1.988  20.315  0.00  0.00    +0.000 C 
ENDBRANCH  23  24
ENDBRANCH  22  23
ENDBRANCH   3  22
TORSDOF 5
ENDMDL
MODEL 7
REMARK VINA RESULT:      -7.5      1.137      1.664
REMARK  Name = 
REMARK  7 active torsions:
REMARK  status: ('A' for Active; 'I' for Inactive)
REMARK    1  A    between atoms: C_1  and  C_2
REMARK    2  A    between atoms: C_3  and  C_4
REMARK    3  A    between atoms: C_4  and  C_5
REMARK    4  A    between atoms: C_5  and  C_6
REMARK    5  A    between atoms: N_10  and  C_11
REMARK    6  A    between atoms: C_12  and  N_13
REMARK    7  A    between atoms: C_20  and  C_21
REMARK                            x       y       z     vdW  Elec       q    Type
REMARK                         _______ _______ _______ _____ _____    ______ ____
ROOT
ATOM      1  C   UNL     1       4.837   2.161  20.078  0.00  0.00    +0.000 C 
ATOM      2  C   UNL     1       3.528   2.904  20.003  0.00  0.00    +0.000 C 
ATOM      3  C   UNL     1       3.382   4.244  19.827  0.00  0.00    +0.000 C 
ATOM      4  C   UNL     1       2.027   4.823  19.810  0.00  0.00    +0.000 C 
ATOM      5  C   UNL     1       0.926   4.066  19.948  0.00  0.00    +0.000 C 
ATOM      6  C   UNL     1       0.952   2.589  20.155  0.00  0.00    +0.000 C 
ATOM      7  C   UNL     1       2.346   1.964  20.167  0.00  0.00    +0.000 C 
ENDROOT
BRANCH   4   8
ATOM      8  N   UNL     1       1.863   6.180  19.664  0.00  0.00    +0.000 N 
ATOM      9  C   UNL     1       1.351   7.026  20.727  0.00  0.00    +0.000 C 
ATOM     10  C   UNL     1       1.386   8.392  20.115  0.00  0.00    +0.000 A 
ATOM     11  C   UNL     1       1.893   8.308  18.816  0.00  0.00    +0.000 A 
ATOM     12  C   UNL     1       2.054   9.412  18.000  0.00  0.00    +0.000 A 
ATOM     13  C   UNL     1       1.684  10.652  18.519  0.00  0.00    +0.000 A 
ATOM     14  C   UNL     1       1.163  10.755  19.821  0.00  0.00    +0.000 A 
ATOM     15  C   UNL     1       1.001   9.620  20.644  0.00  0.00    +0.000 A 
ATOM     16  C   UNL     1       2.195   6.900  18.517  0.00  0.00    +0.000 C 
ATOM     17  O   UNL     1       2.644   6.511  17.456  0.00  0.00    +0.000 OA
BRANCH  15  18
ATOM     18  C   UNL     1       0.427   9.772  22.028  0.00  0.00    +0.000 C 
ATOM     19  F   UNL     1       1.282   9.399  23.020  0.00  0.00    +0.000 F 
ATOM     20  F   UNL     1       0.083  11.060  22.304  0.00  0.00    +0.000 F 
ATOM     21  F   UNL     1      -0.703   9.036  22.210  0.00  0.00    +0.000 F 
ENDBRANCH  15  18
ENDBRANCH   4   8
BRANCH   3  22
ATOM     22  C   UNL     1       4.571   5.196  19.683  0.00  0.00    +0.000 C 
BRANCH  22  23
ATOM     23  C   UNL     1       5.789   4.607  18.957  0.00  0.00    +0.000 C 
BRANCH  23  24
ATOM     24  C   UNL     1       5.683   4.770  17.476  0.00  0.00    +0.000 A 
ATOM     25  N   UNL     1       5.003   3.992  16.656  0.00  0.00    +0.000 NA
ATOM     26  N   UNL     1       5.196   4.447  15.372  0.00  0.00    +0.000 NA
ATOM     27  C   UNL     1       5.985   5.492  15.434  0.00  0.00    +0.000 A 
ATOM     28  N   UNL     1       6.305   5.743  16.733  0.00  0.00    +0.000 N 
ATOM     29  C   UNL     1       7.139   6.814  17.205  0.00  0.00    +0.000 C 
ENDBRANCH  23  24
ENDBRANCH  22  23
ENDBRANCH   3  22
TORSDOF 5
ENDMDL
MODEL 8
REMARK VINA RESULT:      -7.5      4.103      7.972
REMARK  Name = 
REMARK  7 active torsions:
REMARK  status: ('A' for Active; 'I' for Inactive)
REMARK    1  A    between atoms: C_1  and  C_2
REMARK    2  A    between atoms: C_3  and  C_4
REMARK    3  A    between atoms: C_4  and  C_5
REMARK    4  A    between atoms: C_5  and  C_6
REMARK    5  A    between atoms: N_10  and  C_11
REMARK    6  A    between atoms: C_12  and  N_13
REMARK    7  A    between atoms: C_20  and  C_21
REMARK                            x       y       z     vdW  Elec       q    Type
REMARK                         _______ _______ _______ _____ _____    ______ ____
ROOT
ATOM      1  C   UNL     1      -2.776  12.330  19.471  0.00  0.00    +0.000 C 
ATOM      2  C   UNL     1      -1.581  11.674  20.115  0.00  0.00    +0.000 C 
ATOM      3  C   UNL     1      -0.802  10.713  19.553  0.00  0.00    +0.000 C 
ATOM      4  C   UNL     1       0.315  10.147  20.332  0.00  0.00    +0.000 C 
ATOM      5  C   UNL     1       0.599  10.563  21.576  0.00  0.00    +0.000 C 
ATOM      6  C   UNL     1      -0.183  11.603  22.306  0.00  0.00    +0.000 C 
ATOM      7  C   UNL     1      -1.340  12.211  21.515  0.00  0.00    +0.000 C 
ENDROOT
BRANCH   4   8
ATOM      8  N   UNL     1       1.094   9.152  19.789  0.00  0.00    +0.000 N 
ATOM      9  C   UNL     1       1.092   7.792  20.299  0.00  0.00    +0.000 C 
ATOM     10  C   UNL     1       2.050   7.091  19.385  0.00  0.00    +0.000 A 
ATOM     11  C   UNL     1       2.532   7.994  18.434  0.00  0.00    +0.000 A 
ATOM     12  C   UNL     1       3.429   7.635  17.446  0.00  0.00    +0.000 A 
ATOM     13  C   UNL     1       3.858   6.309  17.420  0.00  0.00    +0.000 A 
ATOM     14  C   UNL     1       3.391   5.388  18.377  0.00  0.00    +0.000 A 
ATOM     15  C   UNL     1       2.477   5.767  19.382  0.00  0.00    +0.000 A 
ATOM     16  C   UNL     1       1.932   9.312  18.687  0.00  0.00    +0.000 C 
ATOM     17  O   UNL     1       2.166  10.305  18.025  0.00  0.00    +0.000 OA
BRANCH  15  18
ATOM     18  C   UNL     1       2.011   4.753  20.394  0.00  0.00    +0.000 C 
ATOM     19  F   UNL     1       2.511   3.504  20.189  0.00  0.00    +0.000 F 
ATOM     20  F   UNL     1       2.372   5.090  21.663  0.00  0.00    +0.000 F 
ATOM     21  F   UNL     1       0.658   4.618  20.413  0.00  0.00    +0.000 F 
ENDBRANCH  15  18
ENDBRANCH   4   8
BRANCH   3  22
ATOM     22  C   UNL     1      -1.054  10.155  18.151  0.00  0.00    +0.000 C 
BRANCH  22  23
ATOM     23  C   UNL     1      -2.495   9.695  17.886  0.00  0.00    +0.000 C 
BRANCH  23  24
ATOM     24  C   UNL     1      -2.913   9.967  16.478  0.00  0.00    +0.000 A 
ATOM     25  N   UNL     1      -2.307   9.533  15.390  0.00  0.00    +0.000 NA
ATOM     26  N   UNL     1      -2.971  10.040  14.297  0.00  0.00    +0.000 NA
ATOM     27  C   UNL     1      -3.969  10.767  14.738  0.00  0.00    +0.000 A 
ATOM     28  N   UNL     1      -3.983  10.740  16.099  0.00  0.00    +0.000 N 
ATOM     29  C   UNL     1      -4.935  11.406  16.946  0.00  0.00    +0.000 C 
ENDBRANCH  23  24
ENDBRANCH  22  23
ENDBRANCH   3  22
TORSDOF 5
ENDMDL
MODEL 9
REMARK VINA RESULT:      -7.4      3.302      6.618
REMARK  Name = 
REMARK  7 active torsions:
REMARK  status: ('A' for Active; 'I' for Inactive)
REMARK    1  A    between atoms: C_1  and  C_2
REMARK    2  A    between atoms: C_3  and  C_4
REMARK    3  A    between atoms: C_4  and  C_5
REMARK    4  A    between atoms: C_5  and  C_6
REMARK    5  A    between atoms: N_10  and  C_11
REMARK    6  A    between atoms: C_12  and  N_13
REMARK    7  A    between atoms: C_20  and  C_21
REMARK                            x       y       z     vdW  Elec       q    Type
REMARK                         _______ _______ _______ _____ _____    ______ ____
ROOT
ATOM      1  C   UNL     1       0.075   8.345  22.199  0.00  0.00    +0.000 C 
ATOM      2  C   UNL     1       0.748   8.425  20.853  0.00  0.00    +0.000 C 
ATOM      3  C   UNL     1       1.582   7.491  20.324  0.00  0.00    +0.000 C 
ATOM      4  C   UNL     1       2.189   7.735  19.003  0.00  0.00    +0.000 C 
ATOM      5  C   UNL     1       1.931   8.847  18.295  0.00  0.00    +0.000 C 
ATOM      6  C   UNL     1       1.042   9.947  18.766  0.00  0.00    +0.000 C 
ATOM      7  C   UNL     1       0.393   9.712  20.130  0.00  0.00    +0.000 C 
ENDROOT
BRANCH   4   8
ATOM      8  N   UNL     1       3.059   6.815  18.468  0.00  0.00    +0.000 N 
ATOM      9  C   UNL     1       4.477   6.807  18.779  0.00  0.00    +0.000 C 
ATOM     10  C   UNL     1       4.984   5.632  18.001  0.00  0.00    +0.000 A 
ATOM     11  C   UNL     1       3.921   5.029  17.323  0.00  0.00    +0.000 A 
ATOM     12  C   UNL     1       4.078   3.910  16.527  0.00  0.00    +0.000 A 
ATOM     13  C   UNL     1       5.362   3.381  16.408  0.00  0.00    +0.000 A 
ATOM     14  C   UNL     1       6.446   3.981  17.076  0.00  0.00    +0.000 A 
ATOM     15  C   UNL     1       6.274   5.124  17.885  0.00  0.00    +0.000 A 
ATOM     16  C   UNL     1       2.691   5.780  17.611  0.00  0.00    +0.000 C 
ATOM     17  O   UNL     1       1.599   5.498  17.155  0.00  0.00    +0.000 OA
BRANCH  15  18
ATOM     18  C   UNL     1       7.463   5.743  18.572  0.00  0.00    +0.000 C 
ATOM     19  F   UNL     1       8.604   5.008  18.463  0.00  0.00    +0.000 F 
ATOM     20  F   UNL     1       7.767   6.971  18.069  0.00  0.00    +0.000 F 
ATOM     21  F   UNL     1       7.260   5.924  19.905  0.00  0.00    +0.000 F 
ENDBRANCH  15  18
ENDBRANCH   4   8
BRANCH   3  22
ATOM     22  C   UNL     1       1.958   6.202  21.059  0.00  0.00    +0.000 C 
BRANCH  22  23
ATOM     23  C   UNL     1       1.212   4.946  20.586  0.00  0.00    +0.000 C 
BRANCH  23  24
ATOM     24  C   UNL     1       2.154   3.833  20.261  0.00  0.00    +0.000 A 
ATOM     25  N   UNL     1       3.404   3.728  20.670  0.00  0.00    +0.000 NA
ATOM     26  N   UNL     1       3.943   2.590  20.118  0.00  0.00    +0.000 NA
ATOM     27  C   UNL     1       3.013   2.021  19.389  0.00  0.00    +0.000 A 
ATOM     28  N   UNL     1       1.869   2.755  19.460  0.00  0.00    +0.000 N 
ATOM     29  C   UNL     1       0.627   2.445  18.807  0.00  0.00    +0.000 C 
ENDBRANCH  23  24
ENDBRANCH  22  23
ENDBRANCH   3  22
TORSDOF 5
ENDMDL
