MODEL 1
REMARK VINA RESULT:      -7.9      0.000      0.000
REMARK  Name = 
REMARK  2 active torsions:
REMARK  status: ('A' for Active; 'I' for Inactive)
REMARK    1  A    between atoms: C_5  and  C_7
REMARK    2  A    between atoms: C_7  and  C_8
REMARK                            x       y       z     vdW  Elec       q    Type
REMARK                         _______ _______ _______ _____ _____    ______ ____
ROOT
ATOM      1  O   UNL     1       1.817   3.246  22.148  0.00  0.00    +0.000 OA
ATOM      2  C   UNL     1       2.139   3.856  21.134  0.00  0.00    +0.000 C 
ATOM      3  C   UNL     1       1.446   5.135  20.699  0.00  0.00    +0.000 C 
ATOM      4  N   UNL     1       2.221   6.020  19.828  0.00  0.00    +0.000 N 
ATOM      5  C   UNL     1       2.014   7.406  19.859  0.00  0.00    +0.000 C 
ATOM      6  O   UNL     1       2.699   8.227  19.244  0.00  0.00    +0.000 OA
ATOM      7  C   UNL     1       3.113   5.368  18.896  0.00  0.00    +0.000 A 
ATOM      8  C   UNL     1       3.659   6.007  17.773  0.00  0.00    +0.000 A 
ATOM      9  C   UNL     1       4.532   5.328  16.918  0.00  0.00    +0.000 A 
ATOM     10 BR   UNL     1       5.287   6.221  15.427  0.00  0.00    +0.000 Br
ATOM     11  C   UNL     1       4.871   3.999  17.146  0.00  0.00    +0.000 A 
ATOM     12  C   UNL     1       4.341   3.343  18.249  0.00  0.00    +0.000 A 
ATOM     13  C   UNL     1       3.469   4.026  19.121  0.00  0.00    +0.000 A 
ATOM     14  N   UNL     1       3.028   3.335  20.250  0.00  0.00    +0.000 N 
ATOM     15  H   UNL     1       3.415   2.428  20.470  0.00  0.00    +0.000 HD
ENDROOT
BRANCH   5  16
ATOM     16  C   UNL     1       0.893   7.936  20.748  0.00  0.00    +0.000 C 
BRANCH  16  17
ATOM     17  C   UNL     1       0.679   9.427  20.653  0.00  0.00    +0.000 A 
ATOM     18  N   UNL     1       1.097  10.150  21.646  0.00  0.00    +0.000 NA
ATOM     19  N   UNL     1       0.467  11.345  21.854  0.00  0.00    +0.000 N 
ATOM     20  C   UNL     1      -0.809  11.572  21.374  0.00  0.00    +0.000 A 
ATOM     21  O   UNL     1      -1.637  12.264  21.952  0.00  0.00    +0.000 OA
ATOM     22  C   UNL     1      -1.080  10.980  20.049  0.00  0.00    +0.000 A 
ATOM     23  C   UNL     1      -2.079  11.483  19.229  0.00  0.00    +0.000 A 
ATOM     24  C   UNL     1      -2.158  11.045  17.909  0.00  0.00    +0.000 A 
ATOM     25  C   UNL     1      -1.236  10.109  17.425  0.00  0.00    +0.000 A 
ATOM     26  C   UNL     1      -0.277   9.545  18.282  0.00  0.00    +0.000 A 
ATOM     27  C   UNL     1      -0.225   9.966  19.611  0.00  0.00    +0.000 A 
ATOM     28  H   UNL     1       0.672  11.766  22.755  0.00  0.00    +0.000 HD
ENDBRANCH  16  17
ENDBRANCH   5  16
TORSDOF 2
ENDMDL
MODEL 2
REMARK VINA RESULT:      -7.7      2.045      2.447
REMARK  Name = 
REMARK  2 active torsions:
REMARK  status: ('A' for Active; 'I' for Inactive)
REMARK    1  A    between atoms: C_5  and  C_7
REMARK    2  A    between atoms: C_7  and  C_8
REMARK                            x       y       z     vdW  Elec       q    Type
REMARK                         _______ _______ _______ _____ _____    ______ ____
ROOT
ATOM      1  O   UNL     1       1.420   2.865  22.144  0.00  0.00    +0.000 OA
ATOM      2  C   UNL     1       1.844   3.332  21.092  0.00  0.00    +0.000 C 
ATOM      3  C   UNL     1       1.489   4.730  20.620  0.00  0.00    +0.000 C 
ATOM      4  N   UNL     1       2.429   5.348  19.683  0.00  0.00    +0.000 N 
ATOM      5  C   UNL     1       2.592   6.740  19.654  0.00  0.00    +0.000 C 
ATOM      6  O   UNL     1       3.439   7.330  18.978  0.00  0.00    +0.000 OA
ATOM      7  C   UNL     1       3.078   4.451  18.752  0.00  0.00    +0.000 A 
ATOM      8  C   UNL     1       3.721   4.882  17.583  0.00  0.00    +0.000 A 
ATOM      9  C   UNL     1       4.347   3.967  16.732  0.00  0.00    +0.000 A 
ATOM     10 BR   UNL     1       5.240   4.574  15.176  0.00  0.00    +0.000 Br
ATOM     11  C   UNL     1       4.338   2.605  17.012  0.00  0.00    +0.000 A 
ATOM     12  C   UNL     1       3.705   2.152  18.162  0.00  0.00    +0.000 A 
ATOM     13  C   UNL     1       3.081   3.071  19.030  0.00  0.00    +0.000 A 
ATOM     14  N   UNL     1       2.526   2.563  20.204  0.00  0.00    +0.000 N 
ATOM     15  H   UNL     1       2.673   1.595  20.454  0.00  0.00    +0.000 HD
ENDROOT
BRANCH   5  16
ATOM     16  C   UNL     1       1.689   7.578  20.554  0.00  0.00    +0.000 C 
BRANCH  16  17
ATOM     17  C   UNL     1       1.058   8.765  19.867  0.00  0.00    +0.000 A 
ATOM     18  N   UNL     1       1.299   8.915  18.601  0.00  0.00    +0.000 NA
ATOM     19  N   UNL     1       1.227  10.185  18.101  0.00  0.00    +0.000 N 
ATOM     20  C   UNL     1       1.360  11.285  18.925  0.00  0.00    +0.000 A 
ATOM     21  O   UNL     1       1.885  12.334  18.573  0.00  0.00    +0.000 OA
ATOM     22  C   UNL     1       0.738  11.135  20.255  0.00  0.00    +0.000 A 
ATOM     23  C   UNL     1       0.360  12.243  21.000  0.00  0.00    +0.000 A 
ATOM     24  C   UNL     1      -0.416  12.060  22.141  0.00  0.00    +0.000 A 
ATOM     25  C   UNL     1      -0.806  10.771  22.524  0.00  0.00    +0.000 A 
ATOM     26  C   UNL     1      -0.354   9.648  21.811  0.00  0.00    +0.000 A 
ATOM     27  C   UNL     1       0.449   9.839  20.687  0.00  0.00    +0.000 A 
ATOM     28  H   UNL     1       1.632  10.285  17.175  0.00  0.00    +0.000 HD
ENDBRANCH  16  17
ENDBRANCH   5  16
TORSDOF 2
ENDMDL
MODEL 3
REMARK VINA RESULT:      -7.5      2.640      3.804
REMARK  Name = 
REMARK  2 active torsions:
REMARK  status: ('A' for Active; 'I' for Inactive)
REMARK    1  A    between atoms: C_5  and  C_7
REMARK    2  A    between atoms: C_7  and  C_8
REMARK                            x       y       z     vdW  Elec       q    Type
REMARK                         _______ _______ _______ _____ _____    ______ ____
ROOT
ATOM      1  O   UNL     1       5.119   6.883  15.591  0.00  0.00    +0.000 OA
ATOM      2  C   UNL     1       4.661   6.426  16.633  0.00  0.00    +0.000 C 
ATOM      3  C   UNL     1       4.103   7.311  17.733  0.00  0.00    +0.000 C 
ATOM      4  N   UNL     1       3.142   6.679  18.639  0.00  0.00    +0.000 N 
ATOM      5  C   UNL     1       2.132   7.438  19.245  0.00  0.00    +0.000 C 
ATOM      6  O   UNL     1       1.219   6.966  19.928  0.00  0.00    +0.000 OA
ATOM      7  C   UNL     1       3.370   5.281  18.928  0.00  0.00    +0.000 A 
ATOM      8  C   UNL     1       2.787   4.611  20.014  0.00  0.00    +0.000 A 
ATOM      9  C   UNL     1       3.032   3.252  20.230  0.00  0.00    +0.000 A 
ATOM     10 BR   UNL     1       2.206   2.358  21.682  0.00  0.00    +0.000 Br
ATOM     11  C   UNL     1       3.869   2.531  19.387  0.00  0.00    +0.000 A 
ATOM     12  C   UNL     1       4.462   3.171  18.307  0.00  0.00    +0.000 A 
ATOM     13  C   UNL     1       4.209   4.539  18.077  0.00  0.00    +0.000 A 
ATOM     14  N   UNL     1       4.775   5.107  16.935  0.00  0.00    +0.000 N 
ATOM     15  H   UNL     1       5.248   4.522  16.261  0.00  0.00    +0.000 HD
ENDROOT
BRANCH   5  16
ATOM     16  C   UNL     1       2.138   8.946  19.007  0.00  0.00    +0.000 C 
BRANCH  16  17
ATOM     17  C   UNL     1       0.766   9.574  18.980  0.00  0.00    +0.000 A 
ATOM     18  N   UNL     1       0.227   9.772  17.816  0.00  0.00    +0.000 NA
ATOM     19  N   UNL     1      -0.692  10.779  17.720  0.00  0.00    +0.000 N 
ATOM     20  C   UNL     1      -0.713  11.815  18.634  0.00  0.00    +0.000 A 
ATOM     21  O   UNL     1      -1.023  12.965  18.347  0.00  0.00    +0.000 OA
ATOM     22  C   UNL     1      -0.414  11.415  20.023  0.00  0.00    +0.000 A 
ATOM     23  C   UNL     1      -0.845  12.178  21.098  0.00  0.00    +0.000 A 
ATOM     24  C   UNL     1      -0.735  11.659  22.386  0.00  0.00    +0.000 A 
ATOM     25  C   UNL     1      -0.197  10.382  22.582  0.00  0.00    +0.000 A 
ATOM     26  C   UNL     1       0.310   9.647  21.498  0.00  0.00    +0.000 A 
ATOM     27  C   UNL     1       0.225  10.189  20.215  0.00  0.00    +0.000 A 
ATOM     28  H   UNL     1      -0.919  11.039  16.765  0.00  0.00    +0.000 HD
ENDBRANCH  16  17
ENDBRANCH   5  16
TORSDOF 2
ENDMDL
MODEL 4
REMARK VINA RESULT:      -7.4      5.237      7.882
REMARK  Name = 
REMARK  2 active torsions:
REMARK  status: ('A' for Active; 'I' for Inactive)
REMARK    1  A    between atoms: C_5  and  C_7
REMARK    2  A    between atoms: C_7  and  C_8
REMARK                            x       y       z     vdW  Elec       q    Type
REMARK                         _______ _______ _______ _____ _____    ______ ____
ROOT
ATOM      1  O   UNL     1       1.628  10.373  21.833  0.00  0.00    +0.000 OA
ATOM      2  C   UNL     1       0.562  10.597  21.270  0.00  0.00    +0.000 C 
ATOM      3  C   UNL     1      -0.647  11.147  22.005  0.00  0.00    +0.000 C 
ATOM      4  N   UNL     1      -1.634  11.849  21.181  0.00  0.00    +0.000 N 
ATOM      5  C   UNL     1      -2.405  12.884  21.725  0.00  0.00    +0.000 C 
ATOM      6  O   UNL     1      -3.173  13.598  21.074  0.00  0.00    +0.000 OA
ATOM      7  C   UNL     1      -1.815  11.340  19.840  0.00  0.00    +0.000 A 
ATOM      8  C   UNL     1      -2.929  11.642  19.042  0.00  0.00    +0.000 A 
ATOM      9  C   UNL     1      -3.038  11.135  17.745  0.00  0.00    +0.000 A 
ATOM     10 BR   UNL     1      -4.533  11.584  16.672  0.00  0.00    +0.000 Br
ATOM     11  C   UNL     1      -2.055  10.306  17.214  0.00  0.00    +0.000 A 
ATOM     12  C   UNL     1      -0.945   9.989  17.984  0.00  0.00    +0.000 A 
ATOM     13  C   UNL     1      -0.824  10.507  19.289  0.00  0.00    +0.000 A 
ATOM     14  N   UNL     1       0.349  10.212  19.985  0.00  0.00    +0.000 N 
ATOM     15  H   UNL     1       1.109   9.740  19.516  0.00  0.00    +0.000 HD
ENDROOT
BRANCH   5  16
ATOM     16  C   UNL     1      -2.250  13.178  23.215  0.00  0.00    +0.000 C 
BRANCH  16  17
ATOM     17  C   UNL     1      -3.546  13.167  23.987  0.00  0.00    +0.000 A 
ATOM     18  N   UNL     1      -4.030  12.009  24.319  0.00  0.00    +0.000 NA
ATOM     19  N   UNL     1      -5.382  11.930  24.504  0.00  0.00    +0.000 N 
ATOM     20  C   UNL     1      -6.235  12.854  23.933  0.00  0.00    +0.000 A 
ATOM     21  O   UNL     1      -7.361  12.581  23.535  0.00  0.00    +0.000 OA
ATOM     22  C   UNL     1      -5.719  14.236  23.914  0.00  0.00    +0.000 A 
ATOM     23  C   UNL     1      -6.578  15.323  23.835  0.00  0.00    +0.000 A 
ATOM     24  C   UNL     1      -6.072  16.604  24.039  0.00  0.00    +0.000 A 
ATOM     25  C   UNL     1      -4.713  16.784  24.322  0.00  0.00    +0.000 A 
ATOM     26  C   UNL     1      -3.834  15.688  24.321  0.00  0.00    +0.000 A 
ATOM     27  C   UNL     1      -4.344  14.412  24.084  0.00  0.00    +0.000 A 
ATOM     28  H   UNL     1      -5.736  10.979  24.542  0.00  0.00    +0.000 HD
ENDBRANCH  16  17
ENDBRANCH   5  16
TORSDOF 2
ENDMDL
MODEL 5
REMARK VINA RESULT:      -7.3      2.978      7.433
REMARK  Name = 
REMARK  2 active torsions:
REMARK  status: ('A' for Active; 'I' for Inactive)
REMARK    1  A    between atoms: C_5  and  C_7
REMARK    2  A    between atoms: C_7  and  C_8
REMARK                            x       y       z     vdW  Elec       q    Type
REMARK                         _______ _______ _______ _____ _____    ______ ____
ROOT
ATOM      1  O   UNL     1      -0.847   8.236  22.111  0.00  0.00    +0.000 OA
ATOM      2  C   UNL     1      -0.129   8.965  21.434  0.00  0.00    +0.000 C 
ATOM      3  C   UNL     1       0.901   8.418  20.461  0.00  0.00    +0.000 C 
ATOM      4  N   UNL     1       1.295   9.315  19.374  0.00  0.00    +0.000 N 
ATOM      5  C   UNL     1       1.697   8.796  18.136  0.00  0.00    +0.000 C 
ATOM      6  O   UNL     1       1.936   9.480  17.136  0.00  0.00    +0.000 OA
ATOM      7  C   UNL     1       1.332  10.724  19.697  0.00  0.00    +0.000 A 
ATOM      8  C   UNL     1       2.005  11.678  18.919  0.00  0.00    +0.000 A 
ATOM      9  C   UNL     1       1.989  13.030  19.274  0.00  0.00    +0.000 A 
ATOM     10 BR   UNL     1       2.874  14.306  18.190  0.00  0.00    +0.000 Br
ATOM     11  C   UNL     1       1.320  13.464  20.414  0.00  0.00    +0.000 A 
ATOM     12  C   UNL     1       0.650  12.539  21.202  0.00  0.00    +0.000 A 
ATOM     13  C   UNL     1       0.653  11.176  20.843  0.00  0.00    +0.000 A 
ATOM     14  N   UNL     1      -0.098  10.307  21.635  0.00  0.00    +0.000 N 
ATOM     15  H   UNL     1      -0.697  10.676  22.360  0.00  0.00    +0.000 HD
ENDROOT
BRANCH   5  16
ATOM     16  C   UNL     1       1.804   7.279  18.003  0.00  0.00    +0.000 C 
BRANCH  16  17
ATOM     17  C   UNL     1       3.168   6.722  18.332  0.00  0.00    +0.000 A 
ATOM     18  N   UNL     1       4.184   7.234  17.707  0.00  0.00    +0.000 NA
ATOM     19  N   UNL     1       5.286   6.440  17.557  0.00  0.00    +0.000 N 
ATOM     20  C   UNL     1       5.188   5.064  17.626  0.00  0.00    +0.000 A 
ATOM     21  O   UNL     1       5.884   4.303  16.965  0.00  0.00    +0.000 OA
ATOM     22  C   UNL     1       4.231   4.566  18.632  0.00  0.00    +0.000 A 
ATOM     23  C   UNL     1       4.346   3.289  19.163  0.00  0.00    +0.000 A 
ATOM     24  C   UNL     1       3.563   2.937  20.259  0.00  0.00    +0.000 A 
ATOM     25  C   UNL     1       2.675   3.867  20.814  0.00  0.00    +0.000 A 
ATOM     26  C   UNL     1       2.506   5.130  20.223  0.00  0.00    +0.000 A 
ATOM     27  C   UNL     1       3.271   5.463  19.106  0.00  0.00    +0.000 A 
ATOM     28  H   UNL     1       5.959   6.794  16.883  0.00  0.00    +0.000 HD
ENDBRANCH  16  17
ENDBRANCH   5  16
TORSDOF 2
ENDMDL
MODEL 6
REMARK VINA RESULT:      -7.3      4.376      7.379
REMARK  Name = 
REMARK  2 active torsions:
REMARK  status: ('A' for Active; 'I' for Inactive)
REMARK    1  A    between atoms: C_5  and  C_7
REMARK    2  A    between atoms: C_7  and  C_8
REMARK                            x       y       z     vdW  Elec       q    Type
REMARK                         _______ _______ _______ _____ _____    ______ ____
ROOT
ATOM      1  O   UNL     1       3.508   1.584  17.521  0.00  0.00    +0.000 OA
ATOM      2  C   UNL     1       3.401   2.716  17.982  0.00  0.00    +0.000 C 
ATOM      3  C   UNL     1       4.390   3.822  17.661  0.00  0.00    +0.000 C 
ATOM      4  N   UNL     1       3.894   5.191  17.814  0.00  0.00    +0.000 N 
ATOM      5  C   UNL     1       4.402   6.224  17.017  0.00  0.00    +0.000 C 
ATOM      6  O   UNL     1       3.962   7.377  17.003  0.00  0.00    +0.000 OA
ATOM      7  C   UNL     1       2.945   5.404  18.885  0.00  0.00    +0.000 A 
ATOM      8  C   UNL     1       2.634   6.670  19.401  0.00  0.00    +0.000 A 
ATOM      9  C   UNL     1       1.692   6.813  20.425  0.00  0.00    +0.000 A 
ATOM     10 BR   UNL     1       1.260   8.536  21.084  0.00  0.00    +0.000 Br
ATOM     11  C   UNL     1       1.051   5.706  20.969  0.00  0.00    +0.000 A 
ATOM     12  C   UNL     1       1.344   4.441  20.478  0.00  0.00    +0.000 A 
ATOM     13  C   UNL     1       2.284   4.292  19.438  0.00  0.00    +0.000 A 
ATOM     14  N   UNL     1       2.481   3.004  18.938  0.00  0.00    +0.000 N 
ATOM     15  H   UNL     1       1.887   2.247  19.246  0.00  0.00    +0.000 HD
ENDROOT
BRANCH   5  16
ATOM     16  C   UNL     1       5.550   5.889  16.067  0.00  0.00    +0.000 C 
BRANCH  16  17
ATOM     17  C   UNL     1       6.894   5.762  16.740  0.00  0.00    +0.000 A 
ATOM     18  N   UNL     1       7.333   4.562  16.967  0.00  0.00    +0.000 NA
ATOM     19  N   UNL     1       8.209   4.406  18.004  0.00  0.00    +0.000 N 
ATOM     20  C   UNL     1       8.270   5.327  19.032  0.00  0.00    +0.000 A 
ATOM     21  O   UNL     1       8.519   5.030  20.193  0.00  0.00    +0.000 OA
ATOM     22  C   UNL     1       8.094   6.730  18.609  0.00  0.00    +0.000 A 
ATOM     23  C   UNL     1       8.584   7.778  19.376  0.00  0.00    +0.000 A 
ATOM     24  C   UNL     1       8.593   9.064  18.841  0.00  0.00    +0.000 A 
ATOM     25  C   UNL     1       8.113   9.286  17.545  0.00  0.00    +0.000 A 
ATOM     26  C   UNL     1       7.545   8.237  16.805  0.00  0.00    +0.000 A 
ATOM     27  C   UNL     1       7.512   6.958  17.361  0.00  0.00    +0.000 A 
ATOM     28  H   UNL     1       8.351   3.439  18.280  0.00  0.00    +0.000 HD
ENDBRANCH  16  17
ENDBRANCH   5  16
TORSDOF 2
ENDMDL
MODEL 7
REMARK VINA RESULT:      -7.3      3.352      7.930
REMARK  Name = 
REMARK  2 active torsions:
REMARK  status: ('A' for Active; 'I' for Inactive)
REMARK    1  A    between atoms: C_5  and  C_7
REMARK    2  A    between atoms: C_7  and  C_8
REMARK                            x       y       z     vdW  Elec       q    Type
REMARK                         _______ _______ _______ _____ _____    ______ ____
ROOT
ATOM      1  O   UNL     1      -2.960  10.750  18.150  0.00  0.00    +0.000 OA
ATOM      2  C   UNL     1      -1.822  11.160  18.355  0.00  0.00    +0.000 C 
ATOM      3  C   UNL     1      -0.663  10.227  18.658  0.00  0.00    +0.000 C 
ATOM      4  N   UNL     1       0.673  10.748  18.362  0.00  0.00    +0.000 N 
ATOM      5  C   UNL     1       1.709   9.878  17.997  0.00  0.00    +0.000 C 
ATOM      6  O   UNL     1       2.828  10.243  17.625  0.00  0.00    +0.000 OA
ATOM      7  C   UNL     1       0.859  12.167  18.568  0.00  0.00    +0.000 A 
ATOM      8  C   UNL     1       2.119  12.774  18.677  0.00  0.00    +0.000 A 
ATOM      9  C   UNL     1       2.234  14.155  18.857  0.00  0.00    +0.000 A 
ATOM     10 BR   UNL     1       3.945  14.959  18.966  0.00  0.00    +0.000 Br
ATOM     11  C   UNL     1       1.105  14.963  18.947  0.00  0.00    +0.000 A 
ATOM     12  C   UNL     1      -0.153  14.387  18.846  0.00  0.00    +0.000 A 
ATOM     13  C   UNL     1      -0.275  12.996  18.653  0.00  0.00    +0.000 A 
ATOM     14  N   UNL     1      -1.564  12.487  18.486  0.00  0.00    +0.000 N 
ATOM     15  H   UNL     1      -2.348  13.117  18.400  0.00  0.00    +0.000 HD
ENDROOT
BRANCH   5  16
ATOM     16  C   UNL     1       1.419   8.380  18.019  0.00  0.00    +0.000 C 
BRANCH  16  17
ATOM     17  C   UNL     1       2.644   7.514  18.182  0.00  0.00    +0.000 A 
ATOM     18  N   UNL     1       3.633   7.727  17.369  0.00  0.00    +0.000 NA
ATOM     19  N   UNL     1       4.471   6.676  17.121  0.00  0.00    +0.000 N 
ATOM     20  C   UNL     1       4.058   5.372  17.319  0.00  0.00    +0.000 A 
ATOM     21  O   UNL     1       4.429   4.433  16.626  0.00  0.00    +0.000 OA
ATOM     22  C   UNL     1       3.192   5.175  18.496  0.00  0.00    +0.000 A 
ATOM     23  C   UNL     1       3.083   3.934  19.108  0.00  0.00    +0.000 A 
ATOM     24  C   UNL     1       2.435   3.838  20.337  0.00  0.00    +0.000 A 
ATOM     25  C   UNL     1       1.903   4.984  20.940  0.00  0.00    +0.000 A 
ATOM     26  C   UNL     1       1.946   6.222  20.279  0.00  0.00    +0.000 A 
ATOM     27  C   UNL     1       2.570   6.303  19.034  0.00  0.00    +0.000 A 
ATOM     28  H   UNL     1       5.086   6.820  16.326  0.00  0.00    +0.000 HD
ENDBRANCH  16  17
ENDBRANCH   5  16
TORSDOF 2
ENDMDL
MODEL 8
REMARK VINA RESULT:      -7.3      5.335      7.827
REMARK  Name = 
REMARK  2 active torsions:
REMARK  status: ('A' for Active; 'I' for Inactive)
REMARK    1  A    between atoms: C_5  and  C_7
REMARK    2  A    between atoms: C_7  and  C_8
REMARK                            x       y       z     vdW  Elec       q    Type
REMARK                         _______ _______ _______ _____ _____    ______ ____
ROOT
ATOM      1  O   UNL     1       1.386   9.780  18.760  0.00  0.00    +0.000 OA
ATOM      2  C   UNL     1       0.226  10.178  18.728  0.00  0.00    +0.000 C 
ATOM      3  C   UNL     1      -0.496  10.682  19.964  0.00  0.00    +0.000 C 
ATOM      4  N   UNL     1      -1.621  11.587  19.726  0.00  0.00    +0.000 N 
ATOM      5  C   UNL     1      -1.956  12.568  20.669  0.00  0.00    +0.000 C 
ATOM      6  O   UNL     1      -2.813  13.439  20.496  0.00  0.00    +0.000 OA
ATOM      7  C   UNL     1      -2.395  11.334  18.531  0.00  0.00    +0.000 A 
ATOM      8  C   UNL     1      -3.681  11.852  18.318  0.00  0.00    +0.000 A 
ATOM      9  C   UNL     1      -4.372  11.586  17.132  0.00  0.00    +0.000 A 
ATOM     10 BR   UNL     1      -6.093  12.326  16.851  0.00  0.00    +0.000 Br
ATOM     11  C   UNL     1      -3.812  10.791  16.139  0.00  0.00    +0.000 A 
ATOM     12  C   UNL     1      -2.542  10.263  16.326  0.00  0.00    +0.000 A 
ATOM     13  C   UNL     1      -1.836  10.537  17.515  0.00  0.00    +0.000 A 
ATOM     14  N   UNL     1      -0.536  10.038  17.613  0.00  0.00    +0.000 N 
ATOM     15  H   UNL     1      -0.103   9.599  16.813  0.00  0.00    +0.000 HD
ENDROOT
BRANCH   5  16
ATOM     16  C   UNL     1      -1.176  12.586  21.981  0.00  0.00    +0.000 C 
BRANCH  16  17
ATOM     17  C   UNL     1      -2.039  12.699  23.213  0.00  0.00    +0.000 A 
ATOM     18  N   UNL     1      -2.826  11.702  23.480  0.00  0.00    +0.000 NA
ATOM     19  N   UNL     1      -3.952  11.975  24.205  0.00  0.00    +0.000 N 
ATOM     20  C   UNL     1      -4.478  13.252  24.252  0.00  0.00    +0.000 A 
ATOM     21  O   UNL     1      -5.677  13.487  24.328  0.00  0.00    +0.000 OA
ATOM     22  C   UNL     1      -3.471  14.330  24.291  0.00  0.00    +0.000 A 
ATOM     23  C   UNL     1      -3.777  15.581  24.807  0.00  0.00    +0.000 A 
ATOM     24  C   UNL     1      -2.750  16.494  25.028  0.00  0.00    +0.000 A 
ATOM     25  C   UNL     1      -1.427  16.145  24.732  0.00  0.00    +0.000 A 
ATOM     26  C   UNL     1      -1.132  14.908  24.136  0.00  0.00    +0.000 A 
ATOM     27  C   UNL     1      -2.172  14.011  23.889  0.00  0.00    +0.000 A 
ATOM     28  H   UNL     1      -4.636  11.225  24.200  0.00  0.00    +0.000 HD
ENDBRANCH  16  17
ENDBRANCH   5  16
TORSDOF 2
ENDMDL
MODEL 9
REMARK VINA RESULT:      -7.2      6.019      8.846
REMARK  Name = 
REMARK  2 active torsions:
REMARK  status: ('A' for Active; 'I' for Inactive)
REMARK    1  A    between atoms: C_5  and  C_7
REMARK    2  A    between atoms: C_7  and  C_8
REMARK                            x       y       z     vdW  Elec       q    Type
REMARK                         _______ _______ _______ _____ _____    ______ ____
ROOT
ATOM      1  O   UNL     1      -6.195  13.704  19.615  0.00  0.00    +0.000 OA
ATOM      2  C   UNL     1      -5.041  13.296  19.702  0.00  0.00    +0.000 C 
ATOM      3  C   UNL     1      -4.049  13.863  20.702  0.00  0.00    +0.000 C 
ATOM      4  N   UNL     1      -2.938  12.985  21.071  0.00  0.00    +0.000 N 
ATOM      5  C   UNL     1      -2.352  13.076  22.341  0.00  0.00    +0.000 C 
ATOM      6  O   UNL     1      -1.491  12.302  22.769  0.00  0.00    +0.000 OA
ATOM      7  C   UNL     1      -2.442  12.117  20.025  0.00  0.00    +0.000 A 
ATOM      8  C   UNL     1      -1.194  11.479  20.077  0.00  0.00    +0.000 A 
ATOM      9  C   UNL     1      -0.779  10.636  19.042  0.00  0.00    +0.000 A 
ATOM     10 BR   UNL     1       0.895   9.756  19.148  0.00  0.00    +0.000 Br
ATOM     11  C   UNL     1      -1.582  10.419  17.928  0.00  0.00    +0.000 A 
ATOM     12  C   UNL     1      -2.820  11.042  17.851  0.00  0.00    +0.000 A 
ATOM     13  C   UNL     1      -3.250  11.883  18.897  0.00  0.00    +0.000 A 
ATOM     14  N   UNL     1      -4.533  12.422  18.795  0.00  0.00    +0.000 N 
ATOM     15  H   UNL     1      -5.149  12.121  18.053  0.00  0.00    +0.000 HD
ENDROOT
BRANCH   5  16
ATOM     16  C   UNL     1      -2.845  14.179  23.272  0.00  0.00    +0.000 C 
BRANCH  16  17
ATOM     17  C   UNL     1      -4.071  13.814  24.072  0.00  0.00    +0.000 A 
ATOM     18  N   UNL     1      -4.052  12.679  24.702  0.00  0.00    +0.000 NA
ATOM     19  N   UNL     1      -5.258  12.087  24.953  0.00  0.00    +0.000 N 
ATOM     20  C   UNL     1      -6.375  12.397  24.203  0.00  0.00    +0.000 A 
ATOM     21  O   UNL     1      -7.254  11.589  23.931  0.00  0.00    +0.000 OA
ATOM     22  C   UNL     1      -6.481  13.818  23.817  0.00  0.00    +0.000 A 
ATOM     23  C   UNL     1      -7.706  14.387  23.502  0.00  0.00    +0.000 A 
ATOM     24  C   UNL     1      -7.795  15.770  23.359  0.00  0.00    +0.000 A 
ATOM     25  C   UNL     1      -6.657  16.567  23.534  0.00  0.00    +0.000 A 
ATOM     26  C   UNL     1      -5.405  15.978  23.774  0.00  0.00    +0.000 A 
ATOM     27  C   UNL     1      -5.319  14.590  23.884  0.00  0.00    +0.000 A 
ATOM     28  H   UNL     1      -5.186  11.116  25.243  0.00  0.00    +0.000 HD
ENDBRANCH  16  17
ENDBRANCH   5  16
TORSDOF 2
ENDMDL
