MODEL 1
REMARK VINA RESULT:     -10.0      0.000      0.000
REMARK  Name = 
REMARK  4 active torsions:
REMARK  status: ('A' for Active; 'I' for Inactive)
REMARK    1  A    between atoms: C_1  and  C_2
REMARK    2  A    between atoms: C_2  and  C_3
REMARK    3  A    between atoms: C_7  and  N_8
REMARK    4  A    between atoms: C_9  and  C_11
REMARK                            x       y       z     vdW  Elec       q    Type
REMARK                         _______ _______ _______ _____ _____    ______ ____
ROOT
ATOM      1  C   UNL     1       5.076   5.540  17.225  0.00  0.00    +0.000 A 
ATOM      2  C   UNL     1       4.474   4.282  17.052  0.00  0.00    +0.000 A 
ATOM      3  C   UNL     1       3.151   4.072  17.410  0.00  0.00    +0.000 A 
ATOM      4  C   UNL     1       2.419   5.104  17.989  0.00  0.00    +0.000 A 
ATOM      5  C   UNL     1       2.991   6.353  18.247  0.00  0.00    +0.000 A 
ATOM      6  C   UNL     1       4.317   6.573  17.828  0.00  0.00    +0.000 A 
ENDROOT
BRANCH   1   8
ATOM      7  C   UNL     1       6.899   4.895  15.606  0.00  0.00    +0.000 C 
ATOM      8  C   UNL     1       6.543   5.734  16.830  0.00  0.00    +0.000 C 
ATOM      9  N   UNL     1       6.858   7.139  16.619  0.00  0.00    +0.000 N 
ATOM     10  C   UNL     1       7.568   7.681  17.657  0.00  0.00    +0.000 C 
ATOM     11  O   UNL     1       7.815   8.863  17.791  0.00  0.00    +0.000 OA
ATOM     12  N   UNL     1       7.961   6.681  18.478  0.00  0.00    +0.000 N 
ATOM     13  C   UNL     1       7.512   5.481  18.012  0.00  0.00    +0.000 C 
ATOM     14  O   UNL     1       7.811   4.399  18.502  0.00  0.00    +0.000 OA
ATOM     15  H   UNL     1       6.427   7.746  15.936  0.00  0.00    +0.000 HD
ATOM     16  H   UNL     1       8.560   6.809  19.270  0.00  0.00    +0.000 HD
ENDBRANCH   1   8
BRANCH   5  17
ATOM     17  N   UNL     1       2.296   7.391  18.935  0.00  0.00    +0.000 N 
ATOM     18  C   UNL     1       1.897   8.570  18.323  0.00  0.00    +0.000 C 
ATOM     19  O   UNL     1       2.084   8.842  17.130  0.00  0.00    +0.000 OA
ATOM     20  H   UNL     1       1.922   7.171  19.846  0.00  0.00    +0.000 HD
BRANCH  18  21
ATOM     21  C   UNL     1       1.148   9.595  19.098  0.00  0.00    +0.000 A 
ATOM     22  C   UNL     1       0.360  10.602  18.538  0.00  0.00    +0.000 A 
ATOM     23  C   UNL     1      -0.478  11.362  19.375  0.00  0.00    +0.000 A 
ATOM     24  C   UNL     1      -0.531  11.120  20.756  0.00  0.00    +0.000 A 
ATOM     25  C   UNL     1       0.318  10.178  21.316  0.00  0.00    +0.000 A 
ATOM     26  C   UNL     1       1.151   9.425  20.497  0.00  0.00    +0.000 A 
ATOM     27  O   UNL     1       0.399   9.932  22.655  0.00  0.00    +0.000 OA
ATOM     28  C   UNL     1      -0.815  10.250  23.325  0.00  0.00    +0.000 C 
ATOM     29  C   UNL     1      -1.431  11.572  22.883  0.00  0.00    +0.000 C 
ATOM     30  O   UNL     1      -1.464  11.811  21.473  0.00  0.00    +0.000 OA
ENDBRANCH  18  21
ENDBRANCH   5  17
TORSDOF 3
ENDMDL
MODEL 2
REMARK VINA RESULT:      -9.7      0.934      1.612
REMARK  Name = 
REMARK  4 active torsions:
REMARK  status: ('A' for Active; 'I' for Inactive)
REMARK    1  A    between atoms: C_1  and  C_2
REMARK    2  A    between atoms: C_2  and  C_3
REMARK    3  A    between atoms: C_7  and  N_8
REMARK    4  A    between atoms: C_9  and  C_11
REMARK                            x       y       z     vdW  Elec       q    Type
REMARK                         _______ _______ _______ _____ _____    ______ ____
ROOT
ATOM      1  C   UNL     1       5.162   5.304  17.145  0.00  0.00    +0.000 A 
ATOM      2  C   UNL     1       4.566   4.113  16.698  0.00  0.00    +0.000 A 
ATOM      3  C   UNL     1       3.255   3.805  17.032  0.00  0.00    +0.000 A 
ATOM      4  C   UNL     1       2.532   4.662  17.856  0.00  0.00    +0.000 A 
ATOM      5  C   UNL     1       3.102   5.825  18.384  0.00  0.00    +0.000 A 
ATOM      6  C   UNL     1       4.413   6.156  17.993  0.00  0.00    +0.000 A 
ENDROOT
BRANCH   1   8
ATOM      7  C   UNL     1       7.051   4.786  15.557  0.00  0.00    +0.000 C 
ATOM      8  C   UNL     1       6.615   5.606  16.767  0.00  0.00    +0.000 C 
ATOM      9  N   UNL     1       6.824   7.030  16.545  0.00  0.00    +0.000 N 
ATOM     10  C   UNL     1       7.476   7.635  17.587  0.00  0.00    +0.000 C 
ATOM     11  O   UNL     1       7.630   8.833  17.712  0.00  0.00    +0.000 OA
ATOM     12  N   UNL     1       7.933   6.675  18.423  0.00  0.00    +0.000 N 
ATOM     13  C   UNL     1       7.584   5.440  17.964  0.00  0.00    +0.000 C 
ATOM     14  O   UNL     1       7.958   4.389  18.469  0.00  0.00    +0.000 OA
ATOM     15  H   UNL     1       6.357   7.595  15.851  0.00  0.00    +0.000 HD
ATOM     16  H   UNL     1       8.510   6.856  19.222  0.00  0.00    +0.000 HD
ENDBRANCH   1   8
BRANCH   5  17
ATOM     17  N   UNL     1       2.419   6.663  19.314  0.00  0.00    +0.000 N 
ATOM     18  C   UNL     1       1.958   7.931  18.995  0.00  0.00    +0.000 C 
ATOM     19  O   UNL     1       2.073   8.462  17.882  0.00  0.00    +0.000 OA
ATOM     20  H   UNL     1       2.100   6.237  20.171  0.00  0.00    +0.000 HD
BRANCH  18  21
ATOM     21  C   UNL     1       1.227   8.737  20.009  0.00  0.00    +0.000 A 
ATOM     22  C   UNL     1       1.100   8.400  21.357  0.00  0.00    +0.000 A 
ATOM     23  C   UNL     1       0.587   9.354  22.257  0.00  0.00    +0.000 A 
ATOM     24  C   UNL     1       0.206  10.630  21.816  0.00  0.00    +0.000 A 
ATOM     25  C   UNL     1       0.254  10.926  20.463  0.00  0.00    +0.000 A 
ATOM     26  C   UNL     1       0.756   9.990  19.568  0.00  0.00    +0.000 A 
ATOM     27  O   UNL     1      -0.174  12.108  19.930  0.00  0.00    +0.000 OA
ATOM     28  C   UNL     1      -0.094  13.170  20.873  0.00  0.00    +0.000 C 
ATOM     29  C   UNL     1      -0.595  12.797  22.263  0.00  0.00    +0.000 C 
ATOM     30  O   UNL     1      -0.157  11.534  22.772  0.00  0.00    +0.000 OA
ENDBRANCH  18  21
ENDBRANCH   5  17
TORSDOF 3
ENDMDL
MODEL 3
REMARK VINA RESULT:      -9.3      2.817      4.220
REMARK  Name = 
REMARK  4 active torsions:
REMARK  status: ('A' for Active; 'I' for Inactive)
REMARK    1  A    between atoms: C_1  and  C_2
REMARK    2  A    between atoms: C_2  and  C_3
REMARK    3  A    between atoms: C_7  and  N_8
REMARK    4  A    between atoms: C_9  and  C_11
REMARK                            x       y       z     vdW  Elec       q    Type
REMARK                         _______ _______ _______ _____ _____    ______ ____
ROOT
ATOM      1  C   UNL     1       3.269   4.266  18.436  0.00  0.00    +0.000 A 
ATOM      2  C   UNL     1       4.381   4.335  17.581  0.00  0.00    +0.000 A 
ATOM      3  C   UNL     1       4.809   5.550  17.067  0.00  0.00    +0.000 A 
ATOM      4  C   UNL     1       4.105   6.713  17.364  0.00  0.00    +0.000 A 
ATOM      5  C   UNL     1       2.950   6.689  18.153  0.00  0.00    +0.000 A 
ATOM      6  C   UNL     1       2.558   5.460  18.715  0.00  0.00    +0.000 A 
ENDROOT
BRANCH   1   8
ATOM      7  C   UNL     1       3.420   1.764  18.165  0.00  0.00    +0.000 C 
ATOM      8  C   UNL     1       2.816   2.906  18.976  0.00  0.00    +0.000 C 
ATOM      9  N   UNL     1       3.117   2.766  20.393  0.00  0.00    +0.000 N 
ATOM     10  C   UNL     1       2.008   2.908  21.183  0.00  0.00    +0.000 C 
ATOM     11  O   UNL     1       2.021   2.988  22.395  0.00  0.00    +0.000 OA
ATOM     12  N   UNL     1       0.913   2.914  20.390  0.00  0.00    +0.000 N 
ATOM     13  C   UNL     1       1.275   2.795  19.081  0.00  0.00    +0.000 C 
ATOM     14  O   UNL     1       0.480   2.667  18.158  0.00  0.00    +0.000 OA
ATOM     15  H   UNL     1       4.037   2.806  20.809  0.00  0.00    +0.000 HD
ATOM     16  H   UNL     1      -0.028   2.928  20.733  0.00  0.00    +0.000 HD
ENDBRANCH   1   8
BRANCH   5  17
ATOM     17  N   UNL     1       2.152   7.848  18.384  0.00  0.00    +0.000 N 
ATOM     18  C   UNL     1       1.680   8.205  19.638  0.00  0.00    +0.000 C 
ATOM     19  O   UNL     1       1.907   7.577  20.680  0.00  0.00    +0.000 OA
ATOM     20  H   UNL     1       2.092   8.523  17.637  0.00  0.00    +0.000 HD
BRANCH  18  21
ATOM     21  C   UNL     1       0.876   9.445  19.807  0.00  0.00    +0.000 A 
ATOM     22  C   UNL     1       0.180  10.092  18.785  0.00  0.00    +0.000 A 
ATOM     23  C   UNL     1      -0.726  11.118  19.116  0.00  0.00    +0.000 A 
ATOM     24  C   UNL     1      -0.937  11.492  20.451  0.00  0.00    +0.000 A 
ATOM     25  C   UNL     1      -0.178  10.905  21.452  0.00  0.00    +0.000 A 
ATOM     26  C   UNL     1       0.721   9.895  21.134  0.00  0.00    +0.000 A 
ATOM     27  O   UNL     1      -0.251  11.262  22.767  0.00  0.00    +0.000 OA
ATOM     28  C   UNL     1      -1.523  11.807  23.095  0.00  0.00    +0.000 C 
ATOM     29  C   UNL     1      -2.054  12.794  22.063  0.00  0.00    +0.000 C 
ATOM     30  O   UNL     1      -1.925  12.402  20.693  0.00  0.00    +0.000 OA
ENDBRANCH  18  21
ENDBRANCH   5  17
TORSDOF 3
ENDMDL
MODEL 4
REMARK VINA RESULT:      -9.3      1.484      2.181
REMARK  Name = 
REMARK  4 active torsions:
REMARK  status: ('A' for Active; 'I' for Inactive)
REMARK    1  A    between atoms: C_1  and  C_2
REMARK    2  A    between atoms: C_2  and  C_3
REMARK    3  A    between atoms: C_7  and  N_8
REMARK    4  A    between atoms: C_9  and  C_11
REMARK                            x       y       z     vdW  Elec       q    Type
REMARK                         _______ _______ _______ _____ _____    ______ ____
ROOT
ATOM      1  C   UNL     1       4.522   4.863  17.347  0.00  0.00    +0.000 A 
ATOM      2  C   UNL     1       3.700   3.738  17.165  0.00  0.00    +0.000 A 
ATOM      3  C   UNL     1       2.359   3.775  17.516  0.00  0.00    +0.000 A 
ATOM      4  C   UNL     1       1.826   4.922  18.096  0.00  0.00    +0.000 A 
ATOM      5  C   UNL     1       2.618   6.044  18.363  0.00  0.00    +0.000 A 
ATOM      6  C   UNL     1       3.964   6.016  17.951  0.00  0.00    +0.000 A 
ENDROOT
BRANCH   1   8
ATOM      7  C   UNL     1       6.881   4.569  18.187  0.00  0.00    +0.000 C 
ATOM      8  C   UNL     1       6.002   4.783  16.960  0.00  0.00    +0.000 C 
ATOM      9  N   UNL     1       6.237   3.758  15.954  0.00  0.00    +0.000 N 
ATOM     10  C   UNL     1       6.435   4.281  14.704  0.00  0.00    +0.000 C 
ATOM     11  O   UNL     1       6.497   3.634  13.678  0.00  0.00    +0.000 OA
ATOM     12  N   UNL     1       6.576   5.622  14.817  0.00  0.00    +0.000 N 
ATOM     13  C   UNL     1       6.459   6.003  16.121  0.00  0.00    +0.000 C 
ATOM     14  O   UNL     1       6.649   7.144  16.522  0.00  0.00    +0.000 OA
ATOM     15  H   UNL     1       6.046   2.771  16.059  0.00  0.00    +0.000 HD
ATOM     16  H   UNL     1       6.808   6.227  14.053  0.00  0.00    +0.000 HD
ENDBRANCH   1   8
BRANCH   5  17
ATOM     17  N   UNL     1       2.123   7.189  19.052  0.00  0.00    +0.000 N 
ATOM     18  C   UNL     1       1.962   8.426  18.446  0.00  0.00    +0.000 C 
ATOM     19  O   UNL     1       2.212   8.666  17.258  0.00  0.00    +0.000 OA
ATOM     20  H   UNL     1       1.702   7.038  19.956  0.00  0.00    +0.000 HD
BRANCH  18  21
ATOM     21  C   UNL     1       1.410   9.570  19.221  0.00  0.00    +0.000 A 
ATOM     22  C   UNL     1       1.023  10.794  18.673  0.00  0.00    +0.000 A 
ATOM     23  C   UNL     1       0.304  11.705  19.471  0.00  0.00    +0.000 A 
ATOM     24  C   UNL     1      -0.025  11.398  20.799  0.00  0.00    +0.000 A 
ATOM     25  C   UNL     1       0.438  10.219  21.362  0.00  0.00    +0.000 A 
ATOM     26  C   UNL     1       1.151   9.316  20.583  0.00  0.00    +0.000 A 
ATOM     27  O   UNL     1       0.242   9.873  22.667  0.00  0.00    +0.000 OA
ATOM     28  C   UNL     1      -0.929  10.480  23.203  0.00  0.00    +0.000 C 
ATOM     29  C   UNL     1      -1.085  11.948  22.827  0.00  0.00    +0.000 C 
ATOM     30  O   UNL     1      -0.833  12.278  21.458  0.00  0.00    +0.000 OA
ENDBRANCH  18  21
ENDBRANCH   5  17
TORSDOF 3
ENDMDL
MODEL 5
REMARK VINA RESULT:      -9.2      1.136      1.229
REMARK  Name = 
REMARK  4 active torsions:
REMARK  status: ('A' for Active; 'I' for Inactive)
REMARK    1  A    between atoms: C_1  and  C_2
REMARK    2  A    between atoms: C_2  and  C_3
REMARK    3  A    between atoms: C_7  and  N_8
REMARK    4  A    between atoms: C_9  and  C_11
REMARK                            x       y       z     vdW  Elec       q    Type
REMARK                         _______ _______ _______ _____ _____    ______ ____
ROOT
ATOM      1  C   UNL     1       5.100   5.847  17.334  0.00  0.00    +0.000 A 
ATOM      2  C   UNL     1       4.588   4.595  17.716  0.00  0.00    +0.000 A 
ATOM      3  C   UNL     1       3.265   4.458  18.109  0.00  0.00    +0.000 A 
ATOM      4  C   UNL     1       2.442   5.579  18.169  0.00  0.00    +0.000 A 
ATOM      5  C   UNL     1       2.921   6.858  17.867  0.00  0.00    +0.000 A 
ATOM      6  C   UNL     1       4.249   6.976  17.416  0.00  0.00    +0.000 A 
ENDROOT
BRANCH   1   8
ATOM      7  C   UNL     1       6.855   5.135  15.670  0.00  0.00    +0.000 C 
ATOM      8  C   UNL     1       6.569   5.964  16.917  0.00  0.00    +0.000 C 
ATOM      9  N   UNL     1       6.963   7.353  16.732  0.00  0.00    +0.000 N 
ATOM     10  C   UNL     1       7.720   7.828  17.769  0.00  0.00    +0.000 C 
ATOM     11  O   UNL     1       8.039   8.990  17.925  0.00  0.00    +0.000 OA
ATOM     12  N   UNL     1       8.067   6.788  18.561  0.00  0.00    +0.000 N 
ATOM     13  C   UNL     1       7.541   5.627  18.076  0.00  0.00    +0.000 C 
ATOM     14  O   UNL     1       7.783   4.519  18.536  0.00  0.00    +0.000 OA
ATOM     15  H   UNL     1       6.557   8.000  16.071  0.00  0.00    +0.000 HD
ATOM     16  H   UNL     1       8.686   6.862  19.345  0.00  0.00    +0.000 HD
ENDBRANCH   1   8
BRANCH   5  17
ATOM     17  N   UNL     1       2.129   8.033  18.024  0.00  0.00    +0.000 N 
ATOM     18  C   UNL     1       1.610   8.438  19.244  0.00  0.00    +0.000 C 
ATOM     19  O   UNL     1       1.784   7.844  20.316  0.00  0.00    +0.000 OA
ATOM     20  H   UNL     1       2.110   8.683  17.253  0.00  0.00    +0.000 HD
BRANCH  18  21
ATOM     21  C   UNL     1       0.817   9.693  19.337  0.00  0.00    +0.000 A 
ATOM     22  C   UNL     1      -0.070  10.152  18.362  0.00  0.00    +0.000 A 
ATOM     23  C   UNL     1      -0.930  11.225  18.668  0.00  0.00    +0.000 A 
ATOM     24  C   UNL     1      -0.906  11.831  19.932  0.00  0.00    +0.000 A 
ATOM     25  C   UNL     1       0.037  11.427  20.865  0.00  0.00    +0.000 A 
ATOM     26  C   UNL     1       0.891  10.371  20.570  0.00  0.00    +0.000 A 
ATOM     27  O   UNL     1       0.193  12.012  22.087  0.00  0.00    +0.000 OA
ATOM     28  C   UNL     1      -1.014  12.613  22.542  0.00  0.00    +0.000 C 
ATOM     29  C   UNL     1      -1.749  13.404  21.467  0.00  0.00    +0.000 C 
ATOM     30  O   UNL     1      -1.859  12.774  20.187  0.00  0.00    +0.000 OA
ENDBRANCH  18  21
ENDBRANCH   5  17
TORSDOF 3
ENDMDL
MODEL 6
REMARK VINA RESULT:      -9.1      2.458      3.703
REMARK  Name = 
REMARK  4 active torsions:
REMARK  status: ('A' for Active; 'I' for Inactive)
REMARK    1  A    between atoms: C_1  and  C_2
REMARK    2  A    between atoms: C_2  and  C_3
REMARK    3  A    between atoms: C_7  and  N_8
REMARK    4  A    between atoms: C_9  and  C_11
REMARK                            x       y       z     vdW  Elec       q    Type
REMARK                         _______ _______ _______ _____ _____    ______ ____
ROOT
ATOM      1  C   UNL     1       3.397   4.476  18.344  0.00  0.00    +0.000 A 
ATOM      2  C   UNL     1       4.345   4.800  17.359  0.00  0.00    +0.000 A 
ATOM      3  C   UNL     1       4.598   6.122  17.024  0.00  0.00    +0.000 A 
ATOM      4  C   UNL     1       3.876   7.141  17.637  0.00  0.00    +0.000 A 
ATOM      5  C   UNL     1       2.873   6.869  18.573  0.00  0.00    +0.000 A 
ATOM      6  C   UNL     1       2.664   5.528  18.946  0.00  0.00    +0.000 A 
ENDROOT
BRANCH   1   8
ATOM      7  C   UNL     1       2.506   2.274  17.499  0.00  0.00    +0.000 C 
ATOM      8  C   UNL     1       3.134   3.005  18.681  0.00  0.00    +0.000 C 
ATOM      9  N   UNL     1       4.345   2.336  19.136  0.00  0.00    +0.000 N 
ATOM     10  C   UNL     1       4.363   2.143  20.491  0.00  0.00    +0.000 C 
ATOM     11  O   UNL     1       5.320   1.751  21.128  0.00  0.00    +0.000 OA
ATOM     12  N   UNL     1       3.137   2.435  20.983  0.00  0.00    +0.000 N 
ATOM     13  C   UNL     1       2.306   2.835  19.979  0.00  0.00    +0.000 C 
ATOM     14  O   UNL     1       1.111   3.058  20.125  0.00  0.00    +0.000 OA
ATOM     15  H   UNL     1       5.197   2.229  18.604  0.00  0.00    +0.000 HD
ATOM     16  H   UNL     1       2.870   2.300  21.939  0.00  0.00    +0.000 HD
ENDBRANCH   1   8
BRANCH   5  17
ATOM     17  N   UNL     1       2.048   7.886  19.135  0.00  0.00    +0.000 N 
ATOM     18  C   UNL     1       1.653   9.015  18.432  0.00  0.00    +0.000 C 
ATOM     19  O   UNL     1       1.956   9.253  17.256  0.00  0.00    +0.000 OA
ATOM     20  H   UNL     1       1.588   7.678  20.008  0.00  0.00    +0.000 HD
BRANCH  18  21
ATOM     21  C   UNL     1       0.766  10.022  19.074  0.00  0.00    +0.000 A 
ATOM     22  C   UNL     1      -0.167  10.811  18.400  0.00  0.00    +0.000 A 
ATOM     23  C   UNL     1      -1.102  11.553  19.145  0.00  0.00    +0.000 A 
ATOM     24  C   UNL     1      -1.109  11.507  20.546  0.00  0.00    +0.000 A 
ATOM     25  C   UNL     1      -0.125  10.790  21.210  0.00  0.00    +0.000 A 
ATOM     26  C   UNL     1       0.804  10.057  20.483  0.00  0.00    +0.000 A 
ATOM     27  O   UNL     1       0.001  10.754  22.568  0.00  0.00    +0.000 OA
ATOM     28  C   UNL     1      -1.243  10.985  23.220  0.00  0.00    +0.000 C 
ATOM     29  C   UNL     1      -2.051  12.126  22.613  0.00  0.00    +0.000 C 
ATOM     30  O   UNL     1      -2.129  12.152  21.185  0.00  0.00    +0.000 OA
ENDBRANCH  18  21
ENDBRANCH   5  17
TORSDOF 3
ENDMDL
MODEL 7
REMARK VINA RESULT:      -9.0      2.031      2.945
REMARK  Name = 
REMARK  4 active torsions:
REMARK  status: ('A' for Active; 'I' for Inactive)
REMARK    1  A    between atoms: C_1  and  C_2
REMARK    2  A    between atoms: C_2  and  C_3
REMARK    3  A    between atoms: C_7  and  N_8
REMARK    4  A    between atoms: C_9  and  C_11
REMARK                            x       y       z     vdW  Elec       q    Type
REMARK                         _______ _______ _______ _____ _____    ______ ____
ROOT
ATOM      1  C   UNL     1       4.551   4.836  17.330  0.00  0.00    +0.000 A 
ATOM      2  C   UNL     1       3.739   3.706  17.134  0.00  0.00    +0.000 A 
ATOM      3  C   UNL     1       2.400   3.722  17.493  0.00  0.00    +0.000 A 
ATOM      4  C   UNL     1       1.859   4.854  18.094  0.00  0.00    +0.000 A 
ATOM      5  C   UNL     1       2.640   5.980  18.375  0.00  0.00    +0.000 A 
ATOM      6  C   UNL     1       3.983   5.973  17.956  0.00  0.00    +0.000 A 
ENDROOT
BRANCH   1   8
ATOM      7  C   UNL     1       6.919   4.577  18.155  0.00  0.00    +0.000 C 
ATOM      8  C   UNL     1       6.030   4.779  16.933  0.00  0.00    +0.000 C 
ATOM      9  N   UNL     1       6.273   3.758  15.925  0.00  0.00    +0.000 N 
ATOM     10  C   UNL     1       6.456   4.286  14.674  0.00  0.00    +0.000 C 
ATOM     11  O   UNL     1       6.521   3.641  13.647  0.00  0.00    +0.000 OA
ATOM     12  N   UNL     1       6.577   5.628  14.787  0.00  0.00    +0.000 N 
ATOM     13  C   UNL     1       6.463   6.006  16.092  0.00  0.00    +0.000 C 
ATOM     14  O   UNL     1       6.638   7.150  16.494  0.00  0.00    +0.000 OA
ATOM     15  H   UNL     1       6.097   2.769  16.029  0.00  0.00    +0.000 HD
ATOM     16  H   UNL     1       6.796   6.238  14.023  0.00  0.00    +0.000 HD
ENDBRANCH   1   8
BRANCH   5  17
ATOM     17  N   UNL     1       2.136   7.108  19.086  0.00  0.00    +0.000 N 
ATOM     18  C   UNL     1       1.947   8.350  18.498  0.00  0.00    +0.000 C 
ATOM     19  O   UNL     1       2.176   8.609  17.309  0.00  0.00    +0.000 OA
ATOM     20  H   UNL     1       1.731   6.939  19.994  0.00  0.00    +0.000 HD
BRANCH  18  21
ATOM     21  C   UNL     1       1.389   9.475  19.295  0.00  0.00    +0.000 A 
ATOM     22  C   UNL     1       0.865   9.359  20.584  0.00  0.00    +0.000 A 
ATOM     23  C   UNL     1       0.584  10.528  21.317  0.00  0.00    +0.000 A 
ATOM     24  C   UNL     1       0.824  11.797  20.772  0.00  0.00    +0.000 A 
ATOM     25  C   UNL     1       1.262  11.905  19.461  0.00  0.00    +0.000 A 
ATOM     26  C   UNL     1       1.539  10.757  18.729  0.00  0.00    +0.000 A 
ATOM     27  O   UNL     1       1.443  13.094  18.817  0.00  0.00    +0.000 OA
ATOM     28  C   UNL     1       1.728  14.149  19.728  0.00  0.00    +0.000 C 
ATOM     29  C   UNL     1       0.845  14.143  20.970  0.00  0.00    +0.000 C 
ATOM     30  O   UNL     1       0.647  12.871  21.595  0.00  0.00    +0.000 OA
ENDBRANCH  18  21
ENDBRANCH   5  17
TORSDOF 3
ENDMDL
MODEL 8
REMARK VINA RESULT:      -8.9      1.500      2.183
REMARK  Name = 
REMARK  4 active torsions:
REMARK  status: ('A' for Active; 'I' for Inactive)
REMARK    1  A    between atoms: C_1  and  C_2
REMARK    2  A    between atoms: C_2  and  C_3
REMARK    3  A    between atoms: C_7  and  N_8
REMARK    4  A    between atoms: C_9  and  C_11
REMARK                            x       y       z     vdW  Elec       q    Type
REMARK                         _______ _______ _______ _____ _____    ______ ____
ROOT
ATOM      1  C   UNL     1       5.209   5.032  18.493  0.00  0.00    +0.000 A 
ATOM      2  C   UNL     1       4.835   3.768  18.980  0.00  0.00    +0.000 A 
ATOM      3  C   UNL     1       3.643   3.596  19.668  0.00  0.00    +0.000 A 
ATOM      4  C   UNL     1       2.824   4.693  19.919  0.00  0.00    +0.000 A 
ATOM      5  C   UNL     1       3.184   5.983  19.517  0.00  0.00    +0.000 A 
ATOM      6  C   UNL     1       4.368   6.137  18.771  0.00  0.00    +0.000 A 
ENDROOT
BRANCH   1   8
ATOM      7  C   UNL     1       7.705   5.299  18.723  0.00  0.00    +0.000 C 
ATOM      8  C   UNL     1       6.538   5.189  17.748  0.00  0.00    +0.000 C 
ATOM      9  N   UNL     1       6.745   4.110  16.793  0.00  0.00    +0.000 N 
ATOM     10  C   UNL     1       6.527   4.503  15.499  0.00  0.00    +0.000 C 
ATOM     11  O   UNL     1       6.484   3.757  14.541  0.00  0.00    +0.000 OA
ATOM     12  N   UNL     1       6.398   5.849  15.474  0.00  0.00    +0.000 N 
ATOM     13  C   UNL     1       6.512   6.359  16.733  0.00  0.00    +0.000 C 
ATOM     14  O   UNL     1       6.540   7.556  16.989  0.00  0.00    +0.000 OA
ATOM     15  H   UNL     1       6.801   3.126  17.014  0.00  0.00    +0.000 HD
ATOM     16  H   UNL     1       6.309   6.388  14.635  0.00  0.00    +0.000 HD
ENDBRANCH   1   8
BRANCH   5  17
ATOM     17  N   UNL     1       2.417   7.136  19.856  0.00  0.00    +0.000 N 
ATOM     18  C   UNL     1       2.014   8.078  18.921  0.00  0.00    +0.000 C 
ATOM     19  O   UNL     1       2.258   8.017  17.709  0.00  0.00    +0.000 OA
ATOM     20  H   UNL     1       2.000   7.160  20.774  0.00  0.00    +0.000 HD
BRANCH  18  21
ATOM     21  C   UNL     1       1.189   9.242  19.343  0.00  0.00    +0.000 A 
ATOM     22  C   UNL     1       0.441  10.046  18.482  0.00  0.00    +0.000 A 
ATOM     23  C   UNL     1      -0.475  10.966  19.026  0.00  0.00    +0.000 A 
ATOM     24  C   UNL     1      -0.646  11.081  20.413  0.00  0.00    +0.000 A 
ATOM     25  C   UNL     1       0.162  10.341  21.263  0.00  0.00    +0.000 A 
ATOM     26  C   UNL     1       1.072   9.434  20.735  0.00  0.00    +0.000 A 
ATOM     27  O   UNL     1       0.129  10.447  22.623  0.00  0.00    +0.000 OA
ATOM     28  C   UNL     1      -1.143  10.885  23.087  0.00  0.00    +0.000 C 
ATOM     29  C   UNL     1      -1.733  12.030  22.273  0.00  0.00    +0.000 C 
ATOM     30  O   UNL     1      -1.645  11.901  20.850  0.00  0.00    +0.000 OA
ENDBRANCH  18  21
ENDBRANCH   5  17
TORSDOF 3
ENDMDL
MODEL 9
REMARK VINA RESULT:      -8.9      2.957      4.648
REMARK  Name = 
REMARK  4 active torsions:
REMARK  status: ('A' for Active; 'I' for Inactive)
REMARK    1  A    between atoms: C_1  and  C_2
REMARK    2  A    between atoms: C_2  and  C_3
REMARK    3  A    between atoms: C_7  and  N_8
REMARK    4  A    between atoms: C_9  and  C_11
REMARK                            x       y       z     vdW  Elec       q    Type
REMARK                         _______ _______ _______ _____ _____    ______ ____
ROOT
ATOM      1  C   UNL     1       3.259   4.376  18.399  0.00  0.00    +0.000 A 
ATOM      2  C   UNL     1       4.446   4.447  17.652  0.00  0.00    +0.000 A 
ATOM      3  C   UNL     1       4.909   5.661  17.167  0.00  0.00    +0.000 A 
ATOM      4  C   UNL     1       4.170   6.820  17.385  0.00  0.00    +0.000 A 
ATOM      5  C   UNL     1       2.946   6.792  18.062  0.00  0.00    +0.000 A 
ATOM      6  C   UNL     1       2.515   5.565  18.597  0.00  0.00    +0.000 A 
ENDROOT
BRANCH   1   8
ATOM      7  C   UNL     1       3.329   1.878  18.061  0.00  0.00    +0.000 C 
ATOM      8  C   UNL     1       2.770   3.016  18.909  0.00  0.00    +0.000 C 
ATOM      9  N   UNL     1       3.082   2.830  20.318  0.00  0.00    +0.000 N 
ATOM     10  C   UNL     1       1.987   2.985  21.125  0.00  0.00    +0.000 C 
ATOM     11  O   UNL     1       2.015   3.033  22.339  0.00  0.00    +0.000 OA
ATOM     12  N   UNL     1       0.883   3.046  20.346  0.00  0.00    +0.000 N 
ATOM     13  C   UNL     1       1.227   2.950  19.030  0.00  0.00    +0.000 C 
ATOM     14  O   UNL     1       0.419   2.872  18.113  0.00  0.00    +0.000 OA
ATOM     15  H   UNL     1       4.007   2.831  20.725  0.00  0.00    +0.000 HD
ATOM     16  H   UNL     1      -0.053   3.081  20.700  0.00  0.00    +0.000 HD
ENDBRANCH   1   8
BRANCH   5  17
ATOM     17  N   UNL     1       2.119   7.945  18.204  0.00  0.00    +0.000 N 
ATOM     18  C   UNL     1       1.685   8.419  19.433  0.00  0.00    +0.000 C 
ATOM     19  O   UNL     1       1.973   7.911  20.524  0.00  0.00    +0.000 OA
ATOM     20  H   UNL     1       2.008   8.536  17.394  0.00  0.00    +0.000 HD
BRANCH  18  21
ATOM     21  C   UNL     1       0.848   9.646  19.506  0.00  0.00    +0.000 A 
ATOM     22  C   UNL     1      -0.266   9.806  20.332  0.00  0.00    +0.000 A 
ATOM     23  C   UNL     1      -0.830  11.088  20.480  0.00  0.00    +0.000 A 
ATOM     24  C   UNL     1      -0.290  12.196  19.813  0.00  0.00    +0.000 A 
ATOM     25  C   UNL     1       0.762  12.014  18.928  0.00  0.00    +0.000 A 
ATOM     26  C   UNL     1       1.323  10.753  18.773  0.00  0.00    +0.000 A 
ATOM     27  O   UNL     1       1.298  13.015  18.172  0.00  0.00    +0.000 OA
ATOM     28  C   UNL     1       1.123  14.289  18.782  0.00  0.00    +0.000 C 
ATOM     29  C   UNL     1      -0.270  14.506  19.360  0.00  0.00    +0.000 C 
ATOM     30  O   UNL     1      -0.815  13.419  20.114  0.00  0.00    +0.000 OA
ENDBRANCH  18  21
ENDBRANCH   5  17
TORSDOF 3
ENDMDL
