MODEL 1
REMARK VINA RESULT:      -8.6      0.000      0.000
REMARK  Name = 
REMARK  4 active torsions:
REMARK  status: ('A' for Active; 'I' for Inactive)
REMARK    1  A    between atoms: C_1  and  C_2
REMARK    2  A    between atoms: C_4  and  N_5
REMARK    3  A    between atoms: N_5  and  C_6
REMARK    4  A    between atoms: C_6  and  C_7
REMARK                            x       y       z     vdW  Elec       q    Type
REMARK                         _______ _______ _______ _____ _____    ______ ____
ROOT
ATOM      1  C   UNL     1       3.722   3.613  18.384  0.00  0.00    +0.000 C 
ENDROOT
BRANCH   1   2
ATOM      2  C   UNL     1       3.020   4.838  18.914  0.00  0.00    +0.000 A 
ATOM      3  C   UNL     1       2.578   4.899  20.245  0.00  0.00    +0.000 A 
ATOM      4  C   UNL     1       2.009   6.072  20.745  0.00  0.00    +0.000 A 
ATOM      5  C   UNL     1       1.885   7.191  19.917  0.00  0.00    +0.000 A 
ATOM      6  C   UNL     1       1.300   8.456  20.435  0.00  0.00    +0.000 A 
ATOM      7  O   UNL     1       0.898   8.560  21.588  0.00  0.00    +0.000 OA
ATOM      8  C   UNL     1       1.222   9.610  19.505  0.00  0.00    +0.000 A 
ATOM      9  C   UNL     1       1.679   9.452  18.257  0.00  0.00    +0.000 A 
ATOM     10  N   UNL     1       2.219   8.292  17.775  0.00  0.00    +0.000 N 
ATOM     11  C   UNL     1       2.323   7.153  18.583  0.00  0.00    +0.000 A 
ATOM     12  C   UNL     1       2.884   5.971  18.091  0.00  0.00    +0.000 A 
ATOM     13  H   UNL     1       2.528   8.255  16.811  0.00  0.00    +0.000 HD
ENDBRANCH   1   2
BRANCH   1  14
ATOM     14  N   UNL     1       5.163   3.703  18.483  0.00  0.00    +0.000 N 
ATOM     15  H   UNL     1       5.664   2.974  18.995  0.00  0.00    +0.000 HD
BRANCH  14  19
ATOM     16  C   UNL     1       8.093   7.716  18.328  0.00  0.00    +0.000 C 
ATOM     17  C   UNL     1       7.419   6.571  17.613  0.00  0.00    +0.000 A 
ATOM     18  C   UNL     1       6.578   5.663  18.448  0.00  0.00    +0.000 A 
ATOM     19  C   UNL     1       5.972   4.632  17.832  0.00  0.00    +0.000 A 
ATOM     20  N   UNL     1       6.183   4.497  16.438  0.00  0.00    +0.000 N 
ATOM     21  N   UNL     1       5.691   3.555  15.585  0.00  0.00    +0.000 NA
ATOM     22  C   UNL     1       6.231   3.931  14.425  0.00  0.00    +0.000 A 
ATOM     23  N   UNL     1       7.018   5.037  14.459  0.00  0.00    +0.000 NA
ATOM     24  C   UNL     1       6.991   5.395  15.726  0.00  0.00    +0.000 A 
ATOM     25  N   UNL     1       7.613   6.447  16.334  0.00  0.00    +0.000 NA
ENDBRANCH  14  19
ENDBRANCH   1  14
TORSDOF 3
ENDMDL
MODEL 2
REMARK VINA RESULT:      -8.5      1.230      1.751
REMARK  Name = 
REMARK  4 active torsions:
REMARK  status: ('A' for Active; 'I' for Inactive)
REMARK    1  A    between atoms: C_1  and  C_2
REMARK    2  A    between atoms: C_4  and  N_5
REMARK    3  A    between atoms: N_5  and  C_6
REMARK    4  A    between atoms: C_6  and  C_7
REMARK                            x       y       z     vdW  Elec       q    Type
REMARK                         _______ _______ _______ _____ _____    ______ ____
ROOT
ATOM      1  C   UNL     1       3.872   3.906  18.763  0.00  0.00    +0.000 C 
ENDROOT
BRANCH   1   2
ATOM      2  C   UNL     1       3.307   5.302  18.817  0.00  0.00    +0.000 A 
ATOM      3  C   UNL     1       3.205   6.086  17.657  0.00  0.00    +0.000 A 
ATOM      4  C   UNL     1       2.598   7.343  17.706  0.00  0.00    +0.000 A 
ATOM      5  C   UNL     1       2.085   7.818  18.916  0.00  0.00    +0.000 A 
ATOM      6  C   UNL     1       1.418   9.145  18.987  0.00  0.00    +0.000 A 
ATOM      7  O   UNL     1       1.306   9.868  18.004  0.00  0.00    +0.000 OA
ATOM      8  C   UNL     1       0.877   9.574  20.301  0.00  0.00    +0.000 A 
ATOM      9  C   UNL     1       1.017   8.749  21.345  0.00  0.00    +0.000 A 
ATOM     10  N   UNL     1       1.628   7.528  21.287  0.00  0.00    +0.000 N 
ATOM     11  C   UNL     1       2.174   7.049  20.089  0.00  0.00    +0.000 A 
ATOM     12  C   UNL     1       2.790   5.797  20.029  0.00  0.00    +0.000 A 
ATOM     13  H   UNL     1       1.703   6.973  22.131  0.00  0.00    +0.000 HD
ENDBRANCH   1   2
BRANCH   1  14
ATOM     14  N   UNL     1       5.318   3.884  18.718  0.00  0.00    +0.000 N 
ATOM     15  H   UNL     1       5.809   3.089  19.134  0.00  0.00    +0.000 HD
BRANCH  14  19
ATOM     16  C   UNL     1       8.279   7.869  18.458  0.00  0.00    +0.000 C 
ATOM     17  C   UNL     1       7.592   6.714  17.772  0.00  0.00    +0.000 A 
ATOM     18  C   UNL     1       6.749   5.831  18.631  0.00  0.00    +0.000 A 
ATOM     19  C   UNL     1       6.131   4.792  18.042  0.00  0.00    +0.000 A 
ATOM     20  N   UNL     1       6.331   4.625  16.651  0.00  0.00    +0.000 N 
ATOM     21  N   UNL     1       5.827   3.668  15.822  0.00  0.00    +0.000 NA
ATOM     22  C   UNL     1       6.362   4.014  14.650  0.00  0.00    +0.000 A 
ATOM     23  N   UNL     1       7.159   5.115  14.655  0.00  0.00    +0.000 NA
ATOM     24  C   UNL     1       7.142   5.501  15.914  0.00  0.00    +0.000 A 
ATOM     25  N   UNL     1       7.777   6.560  16.495  0.00  0.00    +0.000 NA
ENDBRANCH  14  19
ENDBRANCH   1  14
TORSDOF 3
ENDMDL
MODEL 3
REMARK VINA RESULT:      -8.3      2.440      4.273
REMARK  Name = 
REMARK  4 active torsions:
REMARK  status: ('A' for Active; 'I' for Inactive)
REMARK    1  A    between atoms: C_1  and  C_2
REMARK    2  A    between atoms: C_4  and  N_5
REMARK    3  A    between atoms: N_5  and  C_6
REMARK    4  A    between atoms: C_6  and  C_7
REMARK                            x       y       z     vdW  Elec       q    Type
REMARK                         _______ _______ _______ _____ _____    ______ ____
ROOT
ATOM      1  C   UNL     1       3.424   7.549  17.526  0.00  0.00    +0.000 C 
ENDROOT
BRANCH   1   2
ATOM      2  C   UNL     1       2.738   6.346  18.120  0.00  0.00    +0.000 A 
ATOM      3  C   UNL     1       1.985   5.473  17.319  0.00  0.00    +0.000 A 
ATOM      4  C   UNL     1       1.430   4.315  17.867  0.00  0.00    +0.000 A 
ATOM      5  C   UNL     1       1.632   4.021  19.218  0.00  0.00    +0.000 A 
ATOM      6  C   UNL     1       1.067   2.783  19.817  0.00  0.00    +0.000 A 
ATOM      7  O   UNL     1       0.400   1.991  19.161  0.00  0.00    +0.000 OA
ATOM      8  C   UNL     1       1.342   2.526  21.252  0.00  0.00    +0.000 A 
ATOM      9  C   UNL     1       2.079   3.415  21.927  0.00  0.00    +0.000 A 
ATOM     10  N   UNL     1       2.603   4.554  21.383  0.00  0.00    +0.000 N 
ATOM     11  C   UNL     1       2.385   4.878  20.038  0.00  0.00    +0.000 A 
ATOM     12  C   UNL     1       2.929   6.038  19.480  0.00  0.00    +0.000 A 
ATOM     13  H   UNL     1       3.139   5.181  21.971  0.00  0.00    +0.000 HD
ENDBRANCH   1   2
BRANCH   1  14
ATOM     14  N   UNL     1       4.858   7.389  17.423  0.00  0.00    +0.000 N 
ATOM     15  H   UNL     1       5.461   8.059  17.903  0.00  0.00    +0.000 HD
BRANCH  14  19
ATOM     16  C   UNL     1       5.670   4.152  13.737  0.00  0.00    +0.000 C 
ATOM     17  C   UNL     1       6.026   4.679  15.106  0.00  0.00    +0.000 A 
ATOM     18  C   UNL     1       5.218   5.828  15.611  0.00  0.00    +0.000 A 
ATOM     19  C   UNL     1       5.522   6.318  16.827  0.00  0.00    +0.000 A 
ATOM     20  N   UNL     1       6.583   5.697  17.527  0.00  0.00    +0.000 N 
ATOM     21  N   UNL     1       7.085   5.992  18.760  0.00  0.00    +0.000 NA
ATOM     22  C   UNL     1       8.062   5.092  18.878  0.00  0.00    +0.000 A 
ATOM     23  N   UNL     1       8.223   4.239  17.833  0.00  0.00    +0.000 NA
ATOM     24  C   UNL     1       7.294   4.619  16.980  0.00  0.00    +0.000 A 
ATOM     25  N   UNL     1       7.001   4.109  15.748  0.00  0.00    +0.000 NA
ENDBRANCH  14  19
ENDBRANCH   1  14
TORSDOF 3
ENDMDL
MODEL 4
REMARK VINA RESULT:      -8.3      1.062      2.335
REMARK  Name = 
REMARK  4 active torsions:
REMARK  status: ('A' for Active; 'I' for Inactive)
REMARK    1  A    between atoms: C_1  and  C_2
REMARK    2  A    between atoms: C_4  and  N_5
REMARK    3  A    between atoms: N_5  and  C_6
REMARK    4  A    between atoms: C_6  and  C_7
REMARK                            x       y       z     vdW  Elec       q    Type
REMARK                         _______ _______ _______ _____ _____    ______ ____
ROOT
ATOM      1  C   UNL     1       3.181   3.147  18.185  0.00  0.00    +0.000 C 
ENDROOT
BRANCH   1   2
ATOM      2  C   UNL     1       2.679   4.441  18.774  0.00  0.00    +0.000 A 
ATOM      3  C   UNL     1       2.365   4.542  20.138  0.00  0.00    +0.000 A 
ATOM      4  C   UNL     1       1.986   5.769  20.687  0.00  0.00    +0.000 A 
ATOM      5  C   UNL     1       1.926   6.903  19.872  0.00  0.00    +0.000 A 
ATOM      6  C   UNL     1       1.544   8.223  20.440  0.00  0.00    +0.000 A 
ATOM      7  O   UNL     1       1.259   8.362  21.623  0.00  0.00    +0.000 OA
ATOM      8  C   UNL     1       1.524   9.387  19.519  0.00  0.00    +0.000 A 
ATOM      9  C   UNL     1       1.848   9.189  18.237  0.00  0.00    +0.000 A 
ATOM     10  N   UNL     1       2.201   7.978  17.709  0.00  0.00    +0.000 N 
ATOM     11  C   UNL     1       2.238   6.826  18.505  0.00  0.00    +0.000 A 
ATOM     12  C   UNL     1       2.608   5.591  17.966  0.00  0.00    +0.000 A 
ATOM     13  H   UNL     1       2.418   7.915  16.721  0.00  0.00    +0.000 HD
ENDBRANCH   1   2
BRANCH   1  14
ATOM     14  N   UNL     1       4.625   3.059  18.166  0.00  0.00    +0.000 N 
ATOM     15  H   UNL     1       5.076   2.314  18.701  0.00  0.00    +0.000 HD
BRANCH  14  19
ATOM     16  C   UNL     1       6.523   4.562  13.824  0.00  0.00    +0.000 C 
ATOM     17  C   UNL     1       6.498   4.647  15.331  0.00  0.00    +0.000 A 
ATOM     18  C   UNL     1       5.526   3.760  16.035  0.00  0.00    +0.000 A 
ATOM     19  C   UNL     1       5.483   3.824  17.378  0.00  0.00    +0.000 A 
ATOM     20  N   UNL     1       6.368   4.728  18.012  0.00  0.00    +0.000 N 
ATOM     21  N   UNL     1       6.526   4.982  19.341  0.00  0.00    +0.000 NA
ATOM     22  C   UNL     1       7.479   5.916  19.328  0.00  0.00    +0.000 A 
ATOM     23  N   UNL     1       7.951   6.275  18.105  0.00  0.00    +0.000 NA
ATOM     24  C   UNL     1       7.252   5.530  17.275  0.00  0.00    +0.000 A 
ATOM     25  N   UNL     1       7.310   5.479  15.912  0.00  0.00    +0.000 NA
ENDBRANCH  14  19
ENDBRANCH   1  14
TORSDOF 3
ENDMDL
MODEL 5
REMARK VINA RESULT:      -8.2      1.467      2.884
REMARK  Name = 
REMARK  4 active torsions:
REMARK  status: ('A' for Active; 'I' for Inactive)
REMARK    1  A    between atoms: C_1  and  C_2
REMARK    2  A    between atoms: C_4  and  N_5
REMARK    3  A    between atoms: N_5  and  C_6
REMARK    4  A    between atoms: C_6  and  C_7
REMARK                            x       y       z     vdW  Elec       q    Type
REMARK                         _______ _______ _______ _____ _____    ______ ____
ROOT
ATOM      1  C   UNL     1       3.917   3.716  18.893  0.00  0.00    +0.000 C 
ENDROOT
BRANCH   1   2
ATOM      2  C   UNL     1       3.374   5.122  18.894  0.00  0.00    +0.000 A 
ATOM      3  C   UNL     1       3.332   5.882  17.714  0.00  0.00    +0.000 A 
ATOM      4  C   UNL     1       2.745   7.149  17.712  0.00  0.00    +0.000 A 
ATOM      5  C   UNL     1       2.192   7.659  18.890  0.00  0.00    +0.000 A 
ATOM      6  C   UNL     1       1.544   8.997  18.905  0.00  0.00    +0.000 A 
ATOM      7  O   UNL     1       1.484   9.700  17.903  0.00  0.00    +0.000 OA
ATOM      8  C   UNL     1       0.958   9.463  20.186  0.00  0.00    +0.000 A 
ATOM      9  C   UNL     1       1.042   8.660  21.253  0.00  0.00    +0.000 A 
ATOM     10  N   UNL     1       1.635   7.428  21.245  0.00  0.00    +0.000 N 
ATOM     11  C   UNL     1       2.220   6.915  20.081  0.00  0.00    +0.000 A 
ATOM     12  C   UNL     1       2.817   5.651  20.073  0.00  0.00    +0.000 A 
ATOM     13  H   UNL     1       1.666   6.891  22.103  0.00  0.00    +0.000 HD
ENDBRANCH   1   2
BRANCH   1  14
ATOM     14  N   UNL     1       5.311   3.650  18.510  0.00  0.00    +0.000 N 
ATOM     15  H   UNL     1       5.943   3.068  19.064  0.00  0.00    +0.000 HD
BRANCH  14  19
ATOM     16  C   UNL     1       6.204   3.829  13.623  0.00  0.00    +0.000 C 
ATOM     17  C   UNL     1       6.389   4.418  15.000  0.00  0.00    +0.000 A 
ATOM     18  C   UNL     1       5.727   3.699  16.129  0.00  0.00    +0.000 A 
ATOM     19  C   UNL     1       5.874   4.210  17.365  0.00  0.00    +0.000 A 
ATOM     20  N   UNL     1       6.649   5.387  17.490  0.00  0.00    +0.000 N 
ATOM     21  N   UNL     1       6.952   6.098  18.613  0.00  0.00    +0.000 NA
ATOM     22  C   UNL     1       7.689   7.092  18.115  0.00  0.00    +0.000 A 
ATOM     23  N   UNL     1       7.892   7.074  16.772  0.00  0.00    +0.000 NA
ATOM     24  C   UNL     1       7.238   6.003  16.376  0.00  0.00    +0.000 A 
ATOM     25  N   UNL     1       7.100   5.499  15.114  0.00  0.00    +0.000 NA
ENDBRANCH  14  19
ENDBRANCH   1  14
TORSDOF 3
ENDMDL
MODEL 6
REMARK VINA RESULT:      -8.1      2.784      6.929
REMARK  Name = 
REMARK  4 active torsions:
REMARK  status: ('A' for Active; 'I' for Inactive)
REMARK    1  A    between atoms: C_1  and  C_2
REMARK    2  A    between atoms: C_4  and  N_5
REMARK    3  A    between atoms: N_5  and  C_6
REMARK    4  A    between atoms: C_6  and  C_7
REMARK                            x       y       z     vdW  Elec       q    Type
REMARK                         _______ _______ _______ _____ _____    ______ ____
ROOT
ATOM      1  C   UNL     1       1.807   5.610  20.301  0.00  0.00    +0.000 C 
ENDROOT
BRANCH   1   2
ATOM      2  C   UNL     1       2.864   5.180  19.317  0.00  0.00    +0.000 A 
ATOM      3  C   UNL     1       2.517   4.727  18.035  0.00  0.00    +0.000 A 
ATOM      4  C   UNL     1       3.511   4.416  17.103  0.00  0.00    +0.000 A 
ATOM      5  C   UNL     1       4.856   4.565  17.450  0.00  0.00    +0.000 A 
ATOM      6  C   UNL     1       5.930   4.259  16.468  0.00  0.00    +0.000 A 
ATOM      7  O   UNL     1       5.679   3.858  15.337  0.00  0.00    +0.000 OA
ATOM      8  C   UNL     1       7.335   4.462  16.899  0.00  0.00    +0.000 A 
ATOM      9  C   UNL     1       7.561   4.907  18.141  0.00  0.00    +0.000 A 
ATOM     10  N   UNL     1       6.579   5.191  19.048  0.00  0.00    +0.000 N 
ATOM     11  C   UNL     1       5.227   5.020  18.727  0.00  0.00    +0.000 A 
ATOM     12  C   UNL     1       4.224   5.320  19.652  0.00  0.00    +0.000 A 
ATOM     13  H   UNL     1       6.840   5.510  19.973  0.00  0.00    +0.000 HD
ENDBRANCH   1   2
BRANCH   1  14
ATOM     14  N   UNL     1       2.135   6.846  20.979  0.00  0.00    +0.000 N 
ATOM     15  H   UNL     1       3.036   6.917  21.456  0.00  0.00    +0.000 HD
BRANCH  14  19
ATOM     16  C   UNL     1      -0.851  10.282  22.977  0.00  0.00    +0.000 C 
ATOM     17  C   UNL     1      -0.066   9.773  21.793  0.00  0.00    +0.000 A 
ATOM     18  C   UNL     1       0.678   8.493  21.984  0.00  0.00    +0.000 A 
ATOM     19  C   UNL     1       1.390   8.023  20.944  0.00  0.00    +0.000 A 
ATOM     20  N   UNL     1       1.370   8.784  19.751  0.00  0.00    +0.000 N 
ATOM     21  N   UNL     1       1.994   8.534  18.565  0.00  0.00    +0.000 NA
ATOM     22  C   UNL     1       1.619   9.585  17.834  0.00  0.00    +0.000 A 
ATOM     23  N   UNL     1       0.801  10.481  18.446  0.00  0.00    +0.000 NA
ATOM     24  C   UNL     1       0.644   9.980  19.653  0.00  0.00    +0.000 A 
ATOM     25  N   UNL     1      -0.084  10.472  20.698  0.00  0.00    +0.000 NA
ENDBRANCH  14  19
ENDBRANCH   1  14
TORSDOF 3
ENDMDL
MODEL 7
REMARK VINA RESULT:      -8.1      1.448      2.195
REMARK  Name = 
REMARK  4 active torsions:
REMARK  status: ('A' for Active; 'I' for Inactive)
REMARK    1  A    between atoms: C_1  and  C_2
REMARK    2  A    between atoms: C_4  and  N_5
REMARK    3  A    between atoms: N_5  and  C_6
REMARK    4  A    between atoms: C_6  and  C_7
REMARK                            x       y       z     vdW  Elec       q    Type
REMARK                         _______ _______ _______ _____ _____    ______ ____
ROOT
ATOM      1  C   UNL     1       2.897   5.329  17.887  0.00  0.00    +0.000 C 
ENDROOT
BRANCH   1   2
ATOM      2  C   UNL     1       2.451   6.666  18.422  0.00  0.00    +0.000 A 
ATOM      3  C   UNL     1       2.171   7.735  17.556  0.00  0.00    +0.000 A 
ATOM      4  C   UNL     1       1.674   8.939  18.059  0.00  0.00    +0.000 A 
ATOM      5  C   UNL     1       1.449   9.076  19.432  0.00  0.00    +0.000 A 
ATOM      6  C   UNL     1       0.902  10.343  19.987  0.00  0.00    +0.000 A 
ATOM      7  O   UNL     1       0.644  11.305  19.274  0.00  0.00    +0.000 OA
ATOM      8  C   UNL     1       0.669  10.408  21.451  0.00  0.00    +0.000 A 
ATOM      9  C   UNL     1       0.960   9.331  22.189  0.00  0.00    +0.000 A 
ATOM     10  N   UNL     1       1.462   8.163  21.686  0.00  0.00    +0.000 N 
ATOM     11  C   UNL     1       1.720   8.019  20.317  0.00  0.00    +0.000 A 
ATOM     12  C   UNL     1       2.225   6.822  19.802  0.00  0.00    +0.000 A 
ATOM     13  H   UNL     1       1.668   7.401  22.320  0.00  0.00    +0.000 HD
ENDBRANCH   1   2
BRANCH   1  14
ATOM     14  N   UNL     1       4.264   5.010  18.236  0.00  0.00    +0.000 N 
ATOM     15  H   UNL     1       4.436   4.250  18.898  0.00  0.00    +0.000 HD
BRANCH  14  19
ATOM     16  C   UNL     1       8.095   8.175  18.085  0.00  0.00    +0.000 C 
ATOM     17  C   UNL     1       7.318   7.045  17.456  0.00  0.00    +0.000 A 
ATOM     18  C   UNL     1       6.111   6.570  18.196  0.00  0.00    +0.000 A 
ATOM     19  C   UNL     1       5.407   5.558  17.657  0.00  0.00    +0.000 A 
ATOM     20  N   UNL     1       5.871   5.030  16.428  0.00  0.00    +0.000 N 
ATOM     21  N   UNL     1       5.348   4.019  15.678  0.00  0.00    +0.000 NA
ATOM     22  C   UNL     1       6.203   3.968  14.656  0.00  0.00    +0.000 A 
ATOM     23  N   UNL     1       7.224   4.865  14.682  0.00  0.00    +0.000 NA
ATOM     24  C   UNL     1       7.017   5.534  15.796  0.00  0.00    +0.000 A 
ATOM     25  N   UNL     1       7.744   6.560  16.329  0.00  0.00    +0.000 NA
ENDBRANCH  14  19
ENDBRANCH   1  14
TORSDOF 3
ENDMDL
MODEL 8
REMARK VINA RESULT:      -8.0      1.706      3.075
REMARK  Name = 
REMARK  4 active torsions:
REMARK  status: ('A' for Active; 'I' for Inactive)
REMARK    1  A    between atoms: C_1  and  C_2
REMARK    2  A    between atoms: C_4  and  N_5
REMARK    3  A    between atoms: N_5  and  C_6
REMARK    4  A    between atoms: C_6  and  C_7
REMARK                            x       y       z     vdW  Elec       q    Type
REMARK                         _______ _______ _______ _____ _____    ______ ____
ROOT
ATOM      1  C   UNL     1       3.000   6.241  17.961  0.00  0.00    +0.000 C 
ENDROOT
BRANCH   1   2
ATOM      2  C   UNL     1       2.289   7.317  18.741  0.00  0.00    +0.000 A 
ATOM      3  C   UNL     1       2.065   7.184  20.120  0.00  0.00    +0.000 A 
ATOM      4  C   UNL     1       1.484   8.226  20.845  0.00  0.00    +0.000 A 
ATOM      5  C   UNL     1       1.132   9.411  20.193  0.00  0.00    +0.000 A 
ATOM      6  C   UNL     1       0.531  10.542  20.949  0.00  0.00    +0.000 A 
ATOM      7  O   UNL     1       0.313  10.474  22.153  0.00  0.00    +0.000 OA
ATOM      8  C   UNL     1       0.202  11.777  20.194  0.00  0.00    +0.000 A 
ATOM      9  C   UNL     1       0.463  11.808  18.882  0.00  0.00    +0.000 A 
ATOM     10  N   UNL     1       1.017  10.773  18.181  0.00  0.00    +0.000 N 
ATOM     11  C   UNL     1       1.349   9.568  18.814  0.00  0.00    +0.000 A 
ATOM     12  C   UNL     1       1.923   8.515  18.098  0.00  0.00    +0.000 A 
ATOM     13  H   UNL     1       1.167  10.877  17.185  0.00  0.00    +0.000 HD
ENDBRANCH   1   2
BRANCH   1  14
ATOM     14  N   UNL     1       4.149   6.736  17.234  0.00  0.00    +0.000 N 
ATOM     15  H   UNL     1       4.240   7.744  17.092  0.00  0.00    +0.000 HD
BRANCH  14  19
ATOM     16  C   UNL     1       6.806   4.323  13.795  0.00  0.00    +0.000 C 
ATOM     17  C   UNL     1       6.630   4.764  15.227  0.00  0.00    +0.000 A 
ATOM     18  C   UNL     1       5.410   5.568  15.534  0.00  0.00    +0.000 A 
ATOM     19  C   UNL     1       5.235   5.977  16.803  0.00  0.00    +0.000 A 
ATOM     20  N   UNL     1       6.226   5.607  17.744  0.00  0.00    +0.000 N 
ATOM     21  N   UNL     1       6.288   5.886  19.077  0.00  0.00    +0.000 NA
ATOM     22  C   UNL     1       7.432   5.294  19.425  0.00  0.00    +0.000 A 
ATOM     23  N   UNL     1       8.102   4.652  18.433  0.00  0.00    +0.000 NA
ATOM     24  C   UNL     1       7.346   4.848  17.373  0.00  0.00    +0.000 A 
ATOM     25  N   UNL     1       7.540   4.424  16.090  0.00  0.00    +0.000 NA
ENDBRANCH  14  19
ENDBRANCH   1  14
TORSDOF 3
ENDMDL
MODEL 9
REMARK VINA RESULT:      -8.0      2.236      4.136
REMARK  Name = 
REMARK  4 active torsions:
REMARK  status: ('A' for Active; 'I' for Inactive)
REMARK    1  A    between atoms: C_1  and  C_2
REMARK    2  A    between atoms: C_4  and  N_5
REMARK    3  A    between atoms: N_5  and  C_6
REMARK    4  A    between atoms: C_6  and  C_7
REMARK                            x       y       z     vdW  Elec       q    Type
REMARK                         _______ _______ _______ _____ _____    ______ ____
ROOT
ATOM      1  C   UNL     1       3.365   7.518  17.344  0.00  0.00    +0.000 C 
ENDROOT
BRANCH   1   2
ATOM      2  C   UNL     1       3.021   6.379  18.269  0.00  0.00    +0.000 A 
ATOM      3  C   UNL     1       3.259   6.470  19.649  0.00  0.00    +0.000 A 
ATOM      4  C   UNL     1       2.854   5.443  20.505  0.00  0.00    +0.000 A 
ATOM      5  C   UNL     1       2.202   4.323  19.982  0.00  0.00    +0.000 A 
ATOM      6  C   UNL     1       1.745   3.227  20.878  0.00  0.00    +0.000 A 
ATOM      7  O   UNL     1       1.931   3.258  22.089  0.00  0.00    +0.000 OA
ATOM      8  C   UNL     1       1.039   2.079  20.255  0.00  0.00    +0.000 A 
ATOM      9  C   UNL     1       0.853   2.091  18.930  0.00  0.00    +0.000 A 
ATOM     10  N   UNL     1       1.270   3.096  18.101  0.00  0.00    +0.000 N 
ATOM     11  C   UNL     1       1.951   4.211  18.605  0.00  0.00    +0.000 A 
ATOM     12  C   UNL     1       2.368   5.242  17.758  0.00  0.00    +0.000 A 
ATOM     13  H   UNL     1       1.100   3.017  17.106  0.00  0.00    +0.000 HD
ENDBRANCH   1   2
BRANCH   1  14
ATOM     14  N   UNL     1       4.748   7.501  16.919  0.00  0.00    +0.000 N 
ATOM     15  H   UNL     1       5.299   8.357  17.013  0.00  0.00    +0.000 HD
BRANCH  14  19
ATOM     16  C   UNL     1       5.906   3.922  13.669  0.00  0.00    +0.000 C 
ATOM     17  C   UNL     1       6.127   4.583  15.007  0.00  0.00    +0.000 A 
ATOM     18  C   UNL     1       5.278   5.772  15.315  0.00  0.00    +0.000 A 
ATOM     19  C   UNL     1       5.463   6.381  16.500  0.00  0.00    +0.000 A 
ATOM     20  N   UNL     1       6.447   5.838  17.360  0.00  0.00    +0.000 N 
ATOM     21  N   UNL     1       6.827   6.257  18.600  0.00  0.00    +0.000 NA
ATOM     22  C   UNL     1       7.783   5.378  18.903  0.00  0.00    +0.000 A 
ATOM     23  N   UNL     1       8.043   4.427  17.967  0.00  0.00    +0.000 NA
ATOM     24  C   UNL     1       7.205   4.715  16.994  0.00  0.00    +0.000 A 
ATOM     25  N   UNL     1       7.032   4.085  15.796  0.00  0.00    +0.000 NA
ENDBRANCH  14  19
ENDBRANCH   1  14
TORSDOF 3
ENDMDL
