MODEL 1
REMARK VINA RESULT:      -8.9      0.000      0.000
REMARK  Name = 
REMARK  8 active torsions:
REMARK  status: ('A' for Active; 'I' for Inactive)
REMARK    1  A    between atoms: C_1  and  C_2
REMARK    2  A    between atoms: C_6  and  O_7
REMARK    3  A    between atoms: O_7  and  C_8
REMARK    4  A    between atoms: C_11  and  N_12
REMARK    5  A    between atoms: C_13  and  C_15
REMARK    6  A    between atoms: C_15  and  C_16
REMARK    7  A    between atoms: C_20  and  C_21
REMARK    8  A    between atoms: C_23  and  C_24
REMARK                            x       y       z     vdW  Elec       q    Type
REMARK                         _______ _______ _______ _____ _____    ______ ____
ROOT
ATOM      1  N   UNL     1       2.579   6.252  19.946  0.00  0.00    +0.000 N 
ATOM      2  C   UNL     1       2.077   5.008  20.306  0.00  0.00    +0.000 C 
ATOM      3  O   UNL     1       0.963   4.790  20.774  0.00  0.00    +0.000 OA
ATOM      4  H   UNL     1       3.522   6.262  19.558  0.00  0.00    +0.000 HD
ENDROOT
BRANCH   1   8
ATOM      5  C   UNL     1       0.743  10.050  19.966  0.00  0.00    +0.000 A 
ATOM      6  C   UNL     1       0.650   9.245  21.097  0.00  0.00    +0.000 A 
ATOM      7  C   UNL     1       1.235   7.974  21.109  0.00  0.00    +0.000 A 
ATOM      8  C   UNL     1       1.912   7.493  19.987  0.00  0.00    +0.000 A 
ATOM      9  C   UNL     1       1.939   8.278  18.828  0.00  0.00    +0.000 A 
ATOM     10  C   UNL     1       1.338   9.540  18.809  0.00  0.00    +0.000 A 
BRANCH   5  11
ATOM     11  O   UNL     1       0.191  11.309  20.061  0.00  0.00    +0.000 OA
BRANCH  11  17
ATOM     12  C   UNL     1      -3.310  10.142  16.884  0.00  0.00    +0.000 C 
ATOM     13  C   UNL     1      -2.861  10.915  18.089  0.00  0.00    +0.000 A 
ATOM     14  C   UNL     1      -3.730  11.797  18.740  0.00  0.00    +0.000 A 
ATOM     15  C   UNL     1      -3.315  12.489  19.878  0.00  0.00    +0.000 A 
ATOM     16  C   UNL     1      -2.021  12.313  20.368  0.00  0.00    +0.000 A 
ATOM     17  C   UNL     1      -1.122  11.489  19.685  0.00  0.00    +0.000 A 
ATOM     18  C   UNL     1      -1.555  10.759  18.575  0.00  0.00    +0.000 A 
ENDBRANCH  11  17
ENDBRANCH   5  11
ENDBRANCH   1   8
BRANCH   2  19
ATOM     19  C   UNL     1       3.077   3.875  20.151  0.00  0.00    +0.000 C 
BRANCH  19  20
ATOM     20  C   UNL     1       4.002   4.149  19.029  0.00  0.00    +0.000 A 
ATOM     21  N   UNL     1       3.644   3.893  17.734  0.00  0.00    +0.000 NA
ATOM     22  C   UNL     1       4.751   4.120  17.058  0.00  0.00    +0.000 A 
ATOM     23  N   UNL     1       4.992   3.949  15.729  0.00  0.00    +0.000 NA
ATOM     24  C   UNL     1       6.210   4.174  15.329  0.00  0.00    +0.000 A 
ATOM     25  C   UNL     1       6.539   3.969  13.873  0.00  0.00    +0.000 C 
ATOM     26  C   UNL     1       7.339   4.625  16.206  0.00  0.00    +0.000 A 
ATOM     27  C   UNL     1       7.054   4.802  17.508  0.00  0.00    +0.000 A 
ATOM     28  C   UNL     1       8.070   5.242  18.516  0.00  0.00    +0.000 C 
ATOM     29  N   UNL     1       5.752   4.545  17.947  0.00  0.00    +0.000 N 
ATOM     30  N   UNL     1       5.243   4.608  19.202  0.00  0.00    +0.000 NA
ENDBRANCH  19  20
ENDBRANCH   2  19
TORSDOF 5
ENDMDL
MODEL 2
REMARK VINA RESULT:      -8.9      0.646      1.192
REMARK  Name = 
REMARK  8 active torsions:
REMARK  status: ('A' for Active; 'I' for Inactive)
REMARK    1  A    between atoms: C_1  and  C_2
REMARK    2  A    between atoms: C_6  and  O_7
REMARK    3  A    between atoms: O_7  and  C_8
REMARK    4  A    between atoms: C_11  and  N_12
REMARK    5  A    between atoms: C_13  and  C_15
REMARK    6  A    between atoms: C_15  and  C_16
REMARK    7  A    between atoms: C_20  and  C_21
REMARK    8  A    between atoms: C_23  and  C_24
REMARK                            x       y       z     vdW  Elec       q    Type
REMARK                         _______ _______ _______ _____ _____    ______ ____
ROOT
ATOM      1  N   UNL     1       2.521   6.747  19.758  0.00  0.00    +0.000 N 
ATOM      2  C   UNL     1       2.017   5.558  20.271  0.00  0.00    +0.000 C 
ATOM      3  O   UNL     1       0.899   5.398  20.753  0.00  0.00    +0.000 OA
ATOM      4  H   UNL     1       3.467   6.709  19.381  0.00  0.00    +0.000 HD
ENDROOT
BRANCH   1   8
ATOM      5  C   UNL     1       0.350  10.354  19.482  0.00  0.00    +0.000 A 
ATOM      6  C   UNL     1       1.143   9.955  18.410  0.00  0.00    +0.000 A 
ATOM      7  C   UNL     1       1.887   8.772  18.484  0.00  0.00    +0.000 A 
ATOM      8  C   UNL     1       1.851   7.981  19.633  0.00  0.00    +0.000 A 
ATOM      9  C   UNL     1       1.109   8.424  20.735  0.00  0.00    +0.000 A 
ATOM     10  C   UNL     1       0.380   9.617  20.668  0.00  0.00    +0.000 A 
BRANCH   5  11
ATOM     11  O   UNL     1      -0.395  11.499  19.302  0.00  0.00    +0.000 OA
BRANCH  11  17
ATOM     12  C   UNL     1      -3.006   9.833  15.545  0.00  0.00    +0.000 C 
ATOM     13  C   UNL     1      -2.939  10.576  16.846  0.00  0.00    +0.000 A 
ATOM     14  C   UNL     1      -4.085  11.163  17.397  0.00  0.00    +0.000 A 
ATOM     15  C   UNL     1      -4.021  11.825  18.623  0.00  0.00    +0.000 A 
ATOM     16  C   UNL     1      -2.808  11.917  19.304  0.00  0.00    +0.000 A 
ATOM     17  C   UNL     1      -1.644  11.396  18.731  0.00  0.00    +0.000 A 
ATOM     18  C   UNL     1      -1.719  10.690  17.527  0.00  0.00    +0.000 A 
ENDBRANCH  11  17
ENDBRANCH   5  11
ENDBRANCH   1   8
BRANCH   2  19
ATOM     19  C   UNL     1       3.021   4.417  20.272  0.00  0.00    +0.000 C 
BRANCH  19  20
ATOM     20  C   UNL     1       3.969   4.559  19.145  0.00  0.00    +0.000 A 
ATOM     21  N   UNL     1       3.588   4.298  17.857  0.00  0.00    +0.000 NA
ATOM     22  C   UNL     1       4.712   4.390  17.179  0.00  0.00    +0.000 A 
ATOM     23  N   UNL     1       4.935   4.152  15.856  0.00  0.00    +0.000 NA
ATOM     24  C   UNL     1       6.170   4.239  15.454  0.00  0.00    +0.000 A 
ATOM     25  C   UNL     1       6.477   3.954  14.007  0.00  0.00    +0.000 C 
ATOM     26  C   UNL     1       7.338   4.603  16.320  0.00  0.00    +0.000 A 
ATOM     27  C   UNL     1       7.072   4.851  17.615  0.00  0.00    +0.000 A 
ATOM     28  C   UNL     1       8.127   5.220  18.611  0.00  0.00    +0.000 C 
ATOM     29  N   UNL     1       5.751   4.741  18.056  0.00  0.00    +0.000 N 
ATOM     30  N   UNL     1       5.250   4.896  19.307  0.00  0.00    +0.000 NA
ENDBRANCH  19  20
ENDBRANCH   2  19
TORSDOF 5
ENDMDL
MODEL 3
REMARK VINA RESULT:      -8.8      0.431      1.359
REMARK  Name = 
REMARK  8 active torsions:
REMARK  status: ('A' for Active; 'I' for Inactive)
REMARK    1  A    between atoms: C_1  and  C_2
REMARK    2  A    between atoms: C_6  and  O_7
REMARK    3  A    between atoms: O_7  and  C_8
REMARK    4  A    between atoms: C_11  and  N_12
REMARK    5  A    between atoms: C_13  and  C_15
REMARK    6  A    between atoms: C_15  and  C_16
REMARK    7  A    between atoms: C_20  and  C_21
REMARK    8  A    between atoms: C_23  and  C_24
REMARK                            x       y       z     vdW  Elec       q    Type
REMARK                         _______ _______ _______ _____ _____    ______ ____
ROOT
ATOM      1  N   UNL     1       2.528   6.553  20.050  0.00  0.00    +0.000 N 
ATOM      2  C   UNL     1       2.011   5.292  20.322  0.00  0.00    +0.000 C 
ATOM      3  O   UNL     1       0.850   5.042  20.633  0.00  0.00    +0.000 OA
ATOM      4  H   UNL     1       3.513   6.589  19.793  0.00  0.00    +0.000 HD
ENDROOT
BRANCH   1   8
ATOM      5  C   UNL     1       0.604  10.302  19.850  0.00  0.00    +0.000 A 
ATOM      6  C   UNL     1       0.535   9.566  21.029  0.00  0.00    +0.000 A 
ATOM      7  C   UNL     1       1.149   8.312  21.115  0.00  0.00    +0.000 A 
ATOM      8  C   UNL     1       1.832   7.778  20.020  0.00  0.00    +0.000 A 
ATOM      9  C   UNL     1       1.836   8.491  18.815  0.00  0.00    +0.000 A 
ATOM     10  C   UNL     1       1.205   9.736  18.723  0.00  0.00    +0.000 A 
BRANCH   5  11
ATOM     11  O   UNL     1       0.023  11.551  19.871  0.00  0.00    +0.000 OA
BRANCH  11  17
ATOM     12  C   UNL     1      -4.379  13.274  21.037  0.00  0.00    +0.000 C 
ATOM     13  C   UNL     1      -3.492  12.526  20.086  0.00  0.00    +0.000 A 
ATOM     14  C   UNL     1      -4.012  11.958  18.917  0.00  0.00    +0.000 A 
ATOM     15  C   UNL     1      -3.175  11.291  18.022  0.00  0.00    +0.000 A 
ATOM     16  C   UNL     1      -1.813  11.175  18.295  0.00  0.00    +0.000 A 
ATOM     17  C   UNL     1      -1.295  11.678  19.492  0.00  0.00    +0.000 A 
ATOM     18  C   UNL     1      -2.125  12.388  20.363  0.00  0.00    +0.000 A 
ENDBRANCH  11  17
ENDBRANCH   5  11
ENDBRANCH   1   8
BRANCH   2  19
ATOM     19  C   UNL     1       3.049   4.183  20.286  0.00  0.00    +0.000 C 
BRANCH  19  20
ATOM     20  C   UNL     1       3.967   4.369  19.141  0.00  0.00    +0.000 A 
ATOM     21  N   UNL     1       3.558   4.135  17.856  0.00  0.00    +0.000 NA
ATOM     22  C   UNL     1       4.664   4.262  17.153  0.00  0.00    +0.000 A 
ATOM     23  N   UNL     1       4.858   4.060  15.820  0.00  0.00    +0.000 NA
ATOM     24  C   UNL     1       6.081   4.177  15.391  0.00  0.00    +0.000 A 
ATOM     25  C   UNL     1       6.356   3.934  13.930  0.00  0.00    +0.000 C 
ATOM     26  C   UNL     1       7.265   4.537  16.237  0.00  0.00    +0.000 A 
ATOM     27  C   UNL     1       7.027   4.748  17.544  0.00  0.00    +0.000 A 
ATOM     28  C   UNL     1       8.100   5.108  18.523  0.00  0.00    +0.000 C 
ATOM     29  N   UNL     1       5.718   4.607  18.015  0.00  0.00    +0.000 N 
ATOM     30  N   UNL     1       5.246   4.721  19.281  0.00  0.00    +0.000 NA
ENDBRANCH  19  20
ENDBRANCH   2  19
TORSDOF 5
ENDMDL
MODEL 4
REMARK VINA RESULT:      -8.7      3.403      9.910
REMARK  Name = 
REMARK  8 active torsions:
REMARK  status: ('A' for Active; 'I' for Inactive)
REMARK    1  A    between atoms: C_1  and  C_2
REMARK    2  A    between atoms: C_6  and  O_7
REMARK    3  A    between atoms: O_7  and  C_8
REMARK    4  A    between atoms: C_11  and  N_12
REMARK    5  A    between atoms: C_13  and  C_15
REMARK    6  A    between atoms: C_15  and  C_16
REMARK    7  A    between atoms: C_20  and  C_21
REMARK    8  A    between atoms: C_23  and  C_24
REMARK                            x       y       z     vdW  Elec       q    Type
REMARK                         _______ _______ _______ _____ _____    ______ ____
ROOT
ATOM      1  N   UNL     1       1.211   9.884  19.405  0.00  0.00    +0.000 N 
ATOM      2  C   UNL     1       0.234  10.167  20.352  0.00  0.00    +0.000 C 
ATOM      3  O   UNL     1      -0.282   9.357  21.118  0.00  0.00    +0.000 OA
ATOM      4  H   UNL     1       1.545  10.673  18.855  0.00  0.00    +0.000 HD
ENDROOT
BRANCH   1   8
ATOM      5  C   UNL     1       3.025   6.185  18.498  0.00  0.00    +0.000 A 
ATOM      6  C   UNL     1       2.475   6.380  19.762  0.00  0.00    +0.000 A 
ATOM      7  C   UNL     1       1.884   7.604  20.093  0.00  0.00    +0.000 A 
ATOM      8  C   UNL     1       1.844   8.647  19.167  0.00  0.00    +0.000 A 
ATOM      9  C   UNL     1       2.462   8.470  17.923  0.00  0.00    +0.000 A 
ATOM     10  C   UNL     1       3.071   7.253  17.599  0.00  0.00    +0.000 A 
BRANCH   5  11
ATOM     11  O   UNL     1       3.532   4.932  18.236  0.00  0.00    +0.000 OA
BRANCH  11  17
ATOM     12  C   UNL     1       6.219   3.970  14.291  0.00  0.00    +0.000 C 
ATOM     13  C   UNL     1       6.138   4.329  15.745  0.00  0.00    +0.000 A 
ATOM     14  C   UNL     1       7.299   4.489  16.510  0.00  0.00    +0.000 A 
ATOM     15  C   UNL     1       7.215   4.854  17.854  0.00  0.00    +0.000 A 
ATOM     16  C   UNL     1       5.969   5.050  18.448  0.00  0.00    +0.000 A 
ATOM     17  C   UNL     1       4.802   4.825  17.712  0.00  0.00    +0.000 A 
ATOM     18  C   UNL     1       4.888   4.508  16.354  0.00  0.00    +0.000 A 
ENDBRANCH  11  17
ENDBRANCH   5  11
ENDBRANCH   1   8
BRANCH   2  19
ATOM     19  C   UNL     1      -0.244  11.609  20.328  0.00  0.00    +0.000 C 
BRANCH  19  20
ATOM     20  C   UNL     1      -1.461  11.738  19.496  0.00  0.00    +0.000 A 
ATOM     21  N   UNL     1      -2.640  12.188  20.023  0.00  0.00    +0.000 NA
ATOM     22  C   UNL     1      -3.499  12.027  19.039  0.00  0.00    +0.000 A 
ATOM     23  N   UNL     1      -4.844  12.242  19.035  0.00  0.00    +0.000 NA
ATOM     24  C   UNL     1      -5.476  11.923  17.943  0.00  0.00    +0.000 A 
ATOM     25  C   UNL     1      -6.970  12.111  17.895  0.00  0.00    +0.000 C 
ATOM     26  C   UNL     1      -4.838  11.371  16.703  0.00  0.00    +0.000 A 
ATOM     27  C   UNL     1      -3.505  11.193  16.742  0.00  0.00    +0.000 A 
ATOM     28  C   UNL     1      -2.719  10.645  15.593  0.00  0.00    +0.000 C 
ATOM     29  N   UNL     1      -2.823  11.518  17.919  0.00  0.00    +0.000 N 
ATOM     30  N   UNL     1      -1.506  11.384  18.209  0.00  0.00    +0.000 NA
ENDBRANCH  19  20
ENDBRANCH   2  19
TORSDOF 5
ENDMDL
MODEL 5
REMARK VINA RESULT:      -8.7      4.182      9.904
REMARK  Name = 
REMARK  8 active torsions:
REMARK  status: ('A' for Active; 'I' for Inactive)
REMARK    1  A    between atoms: C_1  and  C_2
REMARK    2  A    between atoms: C_6  and  O_7
REMARK    3  A    between atoms: O_7  and  C_8
REMARK    4  A    between atoms: C_11  and  N_12
REMARK    5  A    between atoms: C_13  and  C_15
REMARK    6  A    between atoms: C_15  and  C_16
REMARK    7  A    between atoms: C_20  and  C_21
REMARK    8  A    between atoms: C_23  and  C_24
REMARK                            x       y       z     vdW  Elec       q    Type
REMARK                         _______ _______ _______ _____ _____    ______ ____
ROOT
ATOM      1  N   UNL     1       0.487  10.969  19.095  0.00  0.00    +0.000 N 
ATOM      2  C   UNL     1       1.034  12.197  18.742  0.00  0.00    +0.000 C 
ATOM      3  O   UNL     1       2.199  12.397  18.412  0.00  0.00    +0.000 OA
ATOM      4  H   UNL     1      -0.504  10.970  19.332  0.00  0.00    +0.000 HD
ENDROOT
BRANCH   1   8
ATOM      5  C   UNL     1       2.481   7.257  19.284  0.00  0.00    +0.000 A 
ATOM      6  C   UNL     1       2.408   7.927  18.066  0.00  0.00    +0.000 A 
ATOM      7  C   UNL     1       1.736   9.151  17.974  0.00  0.00    +0.000 A 
ATOM      8  C   UNL     1       1.125   9.713  19.096  0.00  0.00    +0.000 A 
ATOM      9  C   UNL     1       1.140   8.999  20.301  0.00  0.00    +0.000 A 
ATOM     10  C   UNL     1       1.795   7.766  20.389  0.00  0.00    +0.000 A 
BRANCH   5  11
ATOM     11  O   UNL     1       3.212   6.089  19.299  0.00  0.00    +0.000 OA
BRANCH  11  17
ATOM     12  C   UNL     1       1.520   2.352  21.922  0.00  0.00    +0.000 C 
ATOM     13  C   UNL     1       1.713   3.016  20.591  0.00  0.00    +0.000 A 
ATOM     14  C   UNL     1       1.274   2.402  19.412  0.00  0.00    +0.000 A 
ATOM     15  C   UNL     1       1.430   3.041  18.181  0.00  0.00    +0.000 A 
ATOM     16  C   UNL     1       2.037   4.294  18.118  0.00  0.00    +0.000 A 
ATOM     17  C   UNL     1       2.542   4.886  19.279  0.00  0.00    +0.000 A 
ATOM     18  C   UNL     1       2.341   4.268  20.516  0.00  0.00    +0.000 A 
ENDBRANCH  11  17
ENDBRANCH   5  11
ENDBRANCH   1   8
BRANCH   2  19
ATOM     19  C   UNL     1       0.064  13.360  18.872  0.00  0.00    +0.000 C 
BRANCH  19  20
ATOM     20  C   UNL     1      -1.306  12.867  19.128  0.00  0.00    +0.000 A 
ATOM     21  N   UNL     1      -2.000  12.167  18.179  0.00  0.00    +0.000 NA
ATOM     22  C   UNL     1      -3.198  12.035  18.709  0.00  0.00    +0.000 A 
ATOM     23  N   UNL     1      -4.318  11.482  18.164  0.00  0.00    +0.000 NA
ATOM     24  C   UNL     1      -5.403  11.554  18.879  0.00  0.00    +0.000 A 
ATOM     25  C   UNL     1      -6.677  10.986  18.310  0.00  0.00    +0.000 C 
ATOM     26  C   UNL     1      -5.502  12.164  20.244  0.00  0.00    +0.000 A 
ATOM     27  C   UNL     1      -4.369  12.679  20.755  0.00  0.00    +0.000 A 
ATOM     28  C   UNL     1      -4.300  13.330  22.101  0.00  0.00    +0.000 C 
ATOM     29  N   UNL     1      -3.204  12.622  19.984  0.00  0.00    +0.000 N 
ATOM     30  N   UNL     1      -1.969  13.108  20.262  0.00  0.00    +0.000 NA
ENDBRANCH  19  20
ENDBRANCH   2  19
TORSDOF 5
ENDMDL
MODEL 6
REMARK VINA RESULT:      -8.6      3.983      9.759
REMARK  Name = 
REMARK  8 active torsions:
REMARK  status: ('A' for Active; 'I' for Inactive)
REMARK    1  A    between atoms: C_1  and  C_2
REMARK    2  A    between atoms: C_6  and  O_7
REMARK    3  A    between atoms: O_7  and  C_8
REMARK    4  A    between atoms: C_11  and  N_12
REMARK    5  A    between atoms: C_13  and  C_15
REMARK    6  A    between atoms: C_15  and  C_16
REMARK    7  A    between atoms: C_20  and  C_21
REMARK    8  A    between atoms: C_23  and  C_24
REMARK                            x       y       z     vdW  Elec       q    Type
REMARK                         _______ _______ _______ _____ _____    ______ ____
ROOT
ATOM      1  N   UNL     1       0.406  10.642  19.633  0.00  0.00    +0.000 N 
ATOM      2  C   UNL     1       0.879  11.939  19.481  0.00  0.00    +0.000 C 
ATOM      3  O   UNL     1       2.010  12.256  19.122  0.00  0.00    +0.000 OA
ATOM      4  H   UNL     1      -0.565  10.548  19.928  0.00  0.00    +0.000 HD
ENDROOT
BRANCH   1   8
ATOM      5  C   UNL     1       2.559   7.070  18.995  0.00  0.00    +0.000 A 
ATOM      6  C   UNL     1       2.305   7.912  17.917  0.00  0.00    +0.000 A 
ATOM      7  C   UNL     1       1.577   9.093  18.099  0.00  0.00    +0.000 A 
ATOM      8  C   UNL     1       1.090   9.440  19.360  0.00  0.00    +0.000 A 
ATOM      9  C   UNL     1       1.286   8.554  20.426  0.00  0.00    +0.000 A 
ATOM     10  C   UNL     1       1.997   7.364  20.240  0.00  0.00    +0.000 A 
BRANCH   5  11
ATOM     11  O   UNL     1       3.333   5.960  18.739  0.00  0.00    +0.000 OA
BRANCH  11  17
ATOM     12  C   UNL     1       1.457   2.585  21.705  0.00  0.00    +0.000 C 
ATOM     13  C   UNL     1       1.836   3.026  20.323  0.00  0.00    +0.000 A 
ATOM     14  C   UNL     1       1.653   2.178  19.224  0.00  0.00    +0.000 A 
ATOM     15  C   UNL     1       1.980   2.607  17.937  0.00  0.00    +0.000 A 
ATOM     16  C   UNL     1       2.505   3.883  17.740  0.00  0.00    +0.000 A 
ATOM     17  C   UNL     1       2.757   4.712  18.837  0.00  0.00    +0.000 A 
ATOM     18  C   UNL     1       2.383   4.300  20.119  0.00  0.00    +0.000 A 
ENDBRANCH  11  17
ENDBRANCH   5  11
ENDBRANCH   1   8
BRANCH   2  19
ATOM     19  C   UNL     1      -0.123  13.008  19.886  0.00  0.00    +0.000 C 
BRANCH  19  20
ATOM     20  C   UNL     1      -1.468  12.681  19.366  0.00  0.00    +0.000 A 
ATOM     21  N   UNL     1      -2.592  12.886  20.119  0.00  0.00    +0.000 NA
ATOM     22  C   UNL     1      -3.551  12.352  19.393  0.00  0.00    +0.000 A 
ATOM     23  N   UNL     1      -4.871  12.205  19.696  0.00  0.00    +0.000 NA
ATOM     24  C   UNL     1      -5.594  11.562  18.825  0.00  0.00    +0.000 A 
ATOM     25  C   UNL     1      -7.055  11.344  19.124  0.00  0.00    +0.000 C 
ATOM     26  C   UNL     1      -5.094  11.005  17.526  0.00  0.00    +0.000 A 
ATOM     27  C   UNL     1      -3.789  11.190  17.257  0.00  0.00    +0.000 A 
ATOM     28  C   UNL     1      -3.133  10.690  16.008  0.00  0.00    +0.000 C 
ATOM     29  N   UNL     1      -3.004  11.864  18.196  0.00  0.00    +0.000 N 
ATOM     30  N   UNL     1      -1.673  12.128  18.169  0.00  0.00    +0.000 NA
ENDBRANCH  19  20
ENDBRANCH   2  19
TORSDOF 5
ENDMDL
MODEL 7
REMARK VINA RESULT:      -8.6      4.203     10.339
REMARK  Name = 
REMARK  8 active torsions:
REMARK  status: ('A' for Active; 'I' for Inactive)
REMARK    1  A    between atoms: C_1  and  C_2
REMARK    2  A    between atoms: C_6  and  O_7
REMARK    3  A    between atoms: O_7  and  C_8
REMARK    4  A    between atoms: C_11  and  N_12
REMARK    5  A    between atoms: C_13  and  C_15
REMARK    6  A    between atoms: C_15  and  C_16
REMARK    7  A    between atoms: C_20  and  C_21
REMARK    8  A    between atoms: C_23  and  C_24
REMARK                            x       y       z     vdW  Elec       q    Type
REMARK                         _______ _______ _______ _____ _____    ______ ____
ROOT
ATOM      1  N   UNL     1      -0.152  10.748  18.866  0.00  0.00    +0.000 N 
ATOM      2  C   UNL     1      -1.378  10.755  18.213  0.00  0.00    +0.000 C 
ATOM      3  O   UNL     1      -1.875   9.812  17.604  0.00  0.00    +0.000 OA
ATOM      4  H   UNL     1       0.112  11.612  19.338  0.00  0.00    +0.000 HD
ENDROOT
BRANCH   1   8
ATOM      5  C   UNL     1       2.439   7.428  19.121  0.00  0.00    +0.000 A 
ATOM      6  C   UNL     1       1.800   7.880  20.271  0.00  0.00    +0.000 A 
ATOM      7  C   UNL     1       0.950   8.991  20.217  0.00  0.00    +0.000 A 
ATOM      8  C   UNL     1       0.737   9.664  19.012  0.00  0.00    +0.000 A 
ATOM      9  C   UNL     1       1.439   9.249  17.874  0.00  0.00    +0.000 A 
ATOM     10  C   UNL     1       2.304   8.151  17.933  0.00  0.00    +0.000 A 
BRANCH   5  11
ATOM     11  O   UNL     1       3.210   6.295  19.252  0.00  0.00    +0.000 OA
BRANCH  11  17
ATOM     12  C   UNL     1       1.579   2.488  21.813  0.00  0.00    +0.000 C 
ATOM     13  C   UNL     1       1.796   3.160  20.490  0.00  0.00    +0.000 A 
ATOM     14  C   UNL     1       1.431   2.527  19.296  0.00  0.00    +0.000 A 
ATOM     15  C   UNL     1       1.607   3.172  18.071  0.00  0.00    +0.000 A 
ATOM     16  C   UNL     1       2.162   4.450  18.029  0.00  0.00    +0.000 A 
ATOM     17  C   UNL     1       2.594   5.063  19.208  0.00  0.00    +0.000 A 
ATOM     18  C   UNL     1       2.371   4.438  20.438  0.00  0.00    +0.000 A 
ENDBRANCH  11  17
ENDBRANCH   5  11
ENDBRANCH   1   8
BRANCH   2  19
ATOM     19  C   UNL     1      -2.075  12.105  18.232  0.00  0.00    +0.000 C 
BRANCH  19  20
ATOM     20  C   UNL     1      -2.669  12.364  19.561  0.00  0.00    +0.000 A 
ATOM     21  N   UNL     1      -4.024  12.388  19.743  0.00  0.00    +0.000 NA
ATOM     22  C   UNL     1      -4.161  12.784  20.992  0.00  0.00    +0.000 A 
ATOM     23  N   UNL     1      -5.303  13.055  21.682  0.00  0.00    +0.000 NA
ATOM     24  C   UNL     1      -5.151  13.512  22.891  0.00  0.00    +0.000 A 
ATOM     25  C   UNL     1      -6.381  13.859  23.689  0.00  0.00    +0.000 C 
ATOM     26  C   UNL     1      -3.835  13.733  23.574  0.00  0.00    +0.000 A 
ATOM     27  C   UNL     1      -2.733  13.434  22.865  0.00  0.00    +0.000 A 
ATOM     28  C   UNL     1      -1.345  13.604  23.399  0.00  0.00    +0.000 C 
ATOM     29  N   UNL     1      -2.889  12.958  21.559  0.00  0.00    +0.000 N 
ATOM     30  N   UNL     1      -1.940  12.637  20.646  0.00  0.00    +0.000 NA
ENDBRANCH  19  20
ENDBRANCH   2  19
TORSDOF 5
ENDMDL
MODEL 8
REMARK VINA RESULT:      -8.5      4.456     10.370
REMARK  Name = 
REMARK  8 active torsions:
REMARK  status: ('A' for Active; 'I' for Inactive)
REMARK    1  A    between atoms: C_1  and  C_2
REMARK    2  A    between atoms: C_6  and  O_7
REMARK    3  A    between atoms: O_7  and  C_8
REMARK    4  A    between atoms: C_11  and  N_12
REMARK    5  A    between atoms: C_13  and  C_15
REMARK    6  A    between atoms: C_15  and  C_16
REMARK    7  A    between atoms: C_20  and  C_21
REMARK    8  A    between atoms: C_23  and  C_24
REMARK                            x       y       z     vdW  Elec       q    Type
REMARK                         _______ _______ _______ _____ _____    ______ ____
ROOT
ATOM      1  N   UNL     1      -0.329  10.988  19.200  0.00  0.00    +0.000 N 
ATOM      2  C   UNL     1      -0.022  12.306  18.888  0.00  0.00    +0.000 C 
ATOM      3  O   UNL     1       1.101  12.750  18.661  0.00  0.00    +0.000 OA
ATOM      4  H   UNL     1      -1.315  10.778  19.348  0.00  0.00    +0.000 HD
ENDROOT
BRANCH   1   8
ATOM      5  C   UNL     1       2.235   7.638  19.222  0.00  0.00    +0.000 A 
ATOM      6  C   UNL     1       1.688   8.082  20.422  0.00  0.00    +0.000 A 
ATOM      7  C   UNL     1       0.850   9.202  20.444  0.00  0.00    +0.000 A 
ATOM      8  C   UNL     1       0.555   9.892  19.267  0.00  0.00    +0.000 A 
ATOM      9  C   UNL     1       1.167   9.485  18.075  0.00  0.00    +0.000 A 
ATOM     10  C   UNL     1       2.021   8.377  18.056  0.00  0.00    +0.000 A 
BRANCH   5  11
ATOM     11  O   UNL     1       3.001   6.494  19.281  0.00  0.00    +0.000 OA
BRANCH  11  17
ATOM     12  C   UNL     1       1.476   2.557  21.707  0.00  0.00    +0.000 C 
ATOM     13  C   UNL     1       1.629   3.302  20.414  0.00  0.00    +0.000 A 
ATOM     14  C   UNL     1       1.198   2.739  19.207  0.00  0.00    +0.000 A 
ATOM     15  C   UNL     1       1.315   3.450  18.012  0.00  0.00    +0.000 A 
ATOM     16  C   UNL     1       1.876   4.726  18.013  0.00  0.00    +0.000 A 
ATOM     17  C   UNL     1       2.374   5.270  19.201  0.00  0.00    +0.000 A 
ATOM     18  C   UNL     1       2.210   4.577  20.403  0.00  0.00    +0.000 A 
ENDBRANCH  11  17
ENDBRANCH   5  11
ENDBRANCH   1   8
BRANCH   2  19
ATOM     19  C   UNL     1      -1.221  13.240  18.922  0.00  0.00    +0.000 C 
BRANCH  19  20
ATOM     20  C   UNL     1      -1.910  13.150  20.228  0.00  0.00    +0.000 A 
ATOM     21  N   UNL     1      -3.141  12.564  20.344  0.00  0.00    +0.000 NA
ATOM     22  C   UNL     1      -3.480  12.802  21.593  0.00  0.00    +0.000 A 
ATOM     23  N   UNL     1      -4.645  12.509  22.234  0.00  0.00    +0.000 NA
ATOM     24  C   UNL     1      -4.751  12.933  23.460  0.00  0.00    +0.000 A 
ATOM     25  C   UNL     1      -6.033  12.664  24.206  0.00  0.00    +0.000 C 
ATOM     26  C   UNL     1      -3.693  13.682  24.212  0.00  0.00    +0.000 A 
ATOM     27  C   UNL     1      -2.549  13.933  23.550  0.00  0.00    +0.000 A 
ATOM     28  C   UNL     1      -1.399  14.675  24.155  0.00  0.00    +0.000 C 
ATOM     29  N   UNL     1      -2.436  13.496  22.227  0.00  0.00    +0.000 N 
ATOM     30  N   UNL     1      -1.413  13.668  21.353  0.00  0.00    +0.000 NA
ENDBRANCH  19  20
ENDBRANCH   2  19
TORSDOF 5
ENDMDL
MODEL 9
REMARK VINA RESULT:      -8.5      1.623      2.669
REMARK  Name = 
REMARK  8 active torsions:
REMARK  status: ('A' for Active; 'I' for Inactive)
REMARK    1  A    between atoms: C_1  and  C_2
REMARK    2  A    between atoms: C_6  and  O_7
REMARK    3  A    between atoms: O_7  and  C_8
REMARK    4  A    between atoms: C_11  and  N_12
REMARK    5  A    between atoms: C_13  and  C_15
REMARK    6  A    between atoms: C_15  and  C_16
REMARK    7  A    between atoms: C_20  and  C_21
REMARK    8  A    between atoms: C_23  and  C_24
REMARK                            x       y       z     vdW  Elec       q    Type
REMARK                         _______ _______ _______ _____ _____    ______ ____
ROOT
ATOM      1  N   UNL     1       2.312   6.886  20.359  0.00  0.00    +0.000 N 
ATOM      2  C   UNL     1       1.922   5.554  20.419  0.00  0.00    +0.000 C 
ATOM      3  O   UNL     1       0.769   5.146  20.531  0.00  0.00    +0.000 OA
ATOM      4  H   UNL     1       3.311   7.058  20.252  0.00  0.00    +0.000 HD
ENDROOT
BRANCH   1   8
ATOM      5  C   UNL     1      -0.322  10.180  20.447  0.00  0.00    +0.000 A 
ATOM      6  C   UNL     1       0.488   9.989  19.332  0.00  0.00    +0.000 A 
ATOM      7  C   UNL     1       1.383   8.914  19.287  0.00  0.00    +0.000 A 
ATOM      8  C   UNL     1       1.482   8.025  20.359  0.00  0.00    +0.000 A 
ATOM      9  C   UNL     1       0.717   8.265  21.507  0.00  0.00    +0.000 A 
ATOM     10  C   UNL     1      -0.164   9.350  21.560  0.00  0.00    +0.000 A 
BRANCH   5  11
ATOM     11  O   UNL     1      -1.216  11.226  20.384  0.00  0.00    +0.000 OA
BRANCH  11  17
ATOM     12  C   UNL     1      -3.740  12.917  24.190  0.00  0.00    +0.000 C 
ATOM     13  C   UNL     1      -2.526  12.980  23.311  0.00  0.00    +0.000 A 
ATOM     14  C   UNL     1      -1.534  13.944  23.527  0.00  0.00    +0.000 A 
ATOM     15  C   UNL     1      -0.393  13.976  22.724  0.00  0.00    +0.000 A 
ATOM     16  C   UNL     1      -0.240  13.052  21.692  0.00  0.00    +0.000 A 
ATOM     17  C   UNL     1      -1.256  12.130  21.423  0.00  0.00    +0.000 A 
ATOM     18  C   UNL     1      -2.374  12.067  22.258  0.00  0.00    +0.000 A 
ENDBRANCH  11  17
ENDBRANCH   5  11
ENDBRANCH   1   8
BRANCH   2  19
ATOM     19  C   UNL     1       3.084   4.574  20.416  0.00  0.00    +0.000 C 
BRANCH  19  20
ATOM     20  C   UNL     1       3.923   4.769  19.214  0.00  0.00    +0.000 A 
ATOM     21  N   UNL     1       3.610   4.173  18.023  0.00  0.00    +0.000 NA
ATOM     22  C   UNL     1       4.642   4.455  17.256  0.00  0.00    +0.000 A 
ATOM     23  N   UNL     1       4.898   4.047  15.982  0.00  0.00    +0.000 NA
ATOM     24  C   UNL     1       6.042   4.408  15.480  0.00  0.00    +0.000 A 
ATOM     25  C   UNL     1       6.390   3.958  14.085  0.00  0.00    +0.000 C 
ATOM     26  C   UNL     1       7.069   5.248  16.179  0.00  0.00    +0.000 A 
ATOM     27  C   UNL     1       6.768   5.648  17.427  0.00  0.00    +0.000 A 
ATOM     28  C   UNL     1       7.687   6.484  18.263  0.00  0.00    +0.000 C 
ATOM     29  N   UNL     1       5.548   5.248  17.980  0.00  0.00    +0.000 N 
ATOM     30  N   UNL     1       5.050   5.484  19.219  0.00  0.00    +0.000 NA
ENDBRANCH  19  20
ENDBRANCH   2  19
TORSDOF 5
ENDMDL
