MODEL 1
REMARK VINA RESULT:      -9.3      0.000      0.000
REMARK  Name = 
REMARK  1 active torsions:
REMARK  status: ('A' for Active; 'I' for Inactive)
REMARK    1  A    between atoms: C_5  and  C_7
REMARK                            x       y       z     vdW  Elec       q    Type
REMARK                         _______ _______ _______ _____ _____    ______ ____
ROOT
ATOM      1  O   UNL     1       7.838   6.871  18.096  0.00  0.00    +0.000 OA
ATOM      2  C   UNL     1       7.201   6.131  17.346  0.00  0.00    +0.000 C 
ATOM      3  C   UNL     1       6.065   5.260  17.852  0.00  0.00    +0.000 C 
ATOM      4  N   UNL     1       5.162   4.589  16.901  0.00  0.00    +0.000 N 
ATOM      5  C   UNL     1       3.927   4.001  17.318  0.00  0.00    +0.000 C 
ATOM      6  O   UNL     1       3.296   3.200  16.629  0.00  0.00    +0.000 OA
ATOM      7  C   UNL     1       5.687   4.454  15.546  0.00  0.00    +0.000 A 
ATOM      8  C   UNL     1       5.061   3.705  14.535  0.00  0.00    +0.000 A 
ATOM      9  C   UNL     1       5.580   3.625  13.228  0.00  0.00    +0.000 A 
ATOM     10  C   UNL     1       6.751   4.288  12.895  0.00  0.00    +0.000 A 
ATOM     11  C   UNL     1       7.393   5.032  13.870  0.00  0.00    +0.000 A 
ATOM     12  F   UNL     1       8.518   5.692  13.557  0.00  0.00    +0.000 F 
ATOM     13  C   UNL     1       6.870   5.125  15.174  0.00  0.00    +0.000 A 
ATOM     14  N   UNL     1       7.572   5.948  16.061  0.00  0.00    +0.000 N 
ATOM     15  H   UNL     1       8.378   6.464  15.729  0.00  0.00    +0.000 HD
ENDROOT
BRANCH   5  16
ATOM     16  C   UNL     1       3.303   4.303  18.662  0.00  0.00    +0.000 A 
ATOM     17  C   UNL     1       3.051   3.276  19.585  0.00  0.00    +0.000 A 
ATOM     18  C   UNL     1       2.510   3.565  20.826  0.00  0.00    +0.000 A 
ATOM     19  F   UNL     1       2.356   2.583  21.721  0.00  0.00    +0.000 F 
ATOM     20  C   UNL     1       2.109   4.846  21.146  0.00  0.00    +0.000 A 
ATOM     21  C   UNL     1       2.230   5.861  20.194  0.00  0.00    +0.000 A 
ATOM     22  C   UNL     1       1.706   7.131  20.484  0.00  0.00    +0.000 A 
ATOM     23  C   UNL     1       1.767   8.138  19.536  0.00  0.00    +0.000 A 
ATOM     24  C   UNL     1       2.397   7.851  18.347  0.00  0.00    +0.000 A 
ATOM     25  N   UNL     1       2.956   6.652  18.060  0.00  0.00    +0.000 NA
ATOM     26  C   UNL     1       2.850   5.623  18.937  0.00  0.00    +0.000 A 
ENDBRANCH   5  16
TORSDOF 1
ENDMDL
MODEL 2
REMARK VINA RESULT:      -9.0      1.549      2.612
REMARK  Name = 
REMARK  1 active torsions:
REMARK  status: ('A' for Active; 'I' for Inactive)
REMARK    1  A    between atoms: C_5  and  C_7
REMARK                            x       y       z     vdW  Elec       q    Type
REMARK                         _______ _______ _______ _____ _____    ______ ____
ROOT
ATOM      1  O   UNL     1       7.846   7.288  17.780  0.00  0.00    +0.000 OA
ATOM      2  C   UNL     1       7.201   6.510  17.078  0.00  0.00    +0.000 C 
ATOM      3  C   UNL     1       5.975   5.784  17.600  0.00  0.00    +0.000 C 
ATOM      4  N   UNL     1       5.081   5.070  16.672  0.00  0.00    +0.000 N 
ATOM      5  C   UNL     1       3.783   4.620  17.067  0.00  0.00    +0.000 C 
ATOM      6  O   UNL     1       3.135   3.788  16.431  0.00  0.00    +0.000 OA
ATOM      7  C   UNL     1       5.675   4.741  15.379  0.00  0.00    +0.000 A 
ATOM      8  C   UNL     1       5.056   3.923  14.419  0.00  0.00    +0.000 A 
ATOM      9  C   UNL     1       5.644   3.654  13.168  0.00  0.00    +0.000 A 
ATOM     10  C   UNL     1       6.881   4.192  12.843  0.00  0.00    +0.000 A 
ATOM     11  C   UNL     1       7.517   5.000  13.769  0.00  0.00    +0.000 A 
ATOM     12  F   UNL     1       8.706   5.541  13.461  0.00  0.00    +0.000 F 
ATOM     13  C   UNL     1       6.925   5.281  15.016  0.00  0.00    +0.000 A 
ATOM     14  N   UNL     1       7.633   6.153  15.850  0.00  0.00    +0.000 N 
ATOM     15  H   UNL     1       8.495   6.569  15.518  0.00  0.00    +0.000 HD
ENDROOT
BRANCH   5  16
ATOM     16  C   UNL     1       3.105   5.120  18.323  0.00  0.00    +0.000 A 
ATOM     17  C   UNL     1       2.818   6.484  18.490  0.00  0.00    +0.000 A 
ATOM     18  C   UNL     1       2.167   6.929  19.628  0.00  0.00    +0.000 A 
ATOM     19  F   UNL     1       1.829   8.220  19.730  0.00  0.00    +0.000 F 
ATOM     20  C   UNL     1       1.882   6.067  20.667  0.00  0.00    +0.000 A 
ATOM     21  C   UNL     1       2.275   4.730  20.578  0.00  0.00    +0.000 A 
ATOM     22  C   UNL     1       2.091   3.891  21.689  0.00  0.00    +0.000 A 
ATOM     23  C   UNL     1       2.522   2.576  21.642  0.00  0.00    +0.000 A 
ATOM     24  C   UNL     1       3.077   2.133  20.463  0.00  0.00    +0.000 A 
ATOM     25  N   UNL     1       3.220   2.905  19.361  0.00  0.00    +0.000 NA
ATOM     26  C   UNL     1       2.876   4.216  19.397  0.00  0.00    +0.000 A 
ENDBRANCH   5  16
TORSDOF 1
ENDMDL
MODEL 3
REMARK VINA RESULT:      -7.6      3.718      7.693
REMARK  Name = 
REMARK  1 active torsions:
REMARK  status: ('A' for Active; 'I' for Inactive)
REMARK    1  A    between atoms: C_5  and  C_7
REMARK                            x       y       z     vdW  Elec       q    Type
REMARK                         _______ _______ _______ _____ _____    ______ ____
ROOT
ATOM      1  O   UNL     1       2.196  11.244  17.349  0.00  0.00    +0.000 OA
ATOM      2  C   UNL     1       1.804  10.604  18.325  0.00  0.00    +0.000 C 
ATOM      3  C   UNL     1       1.888   9.090  18.380  0.00  0.00    +0.000 C 
ATOM      4  N   UNL     1       1.658   8.377  19.649  0.00  0.00    +0.000 N 
ATOM      5  C   UNL     1       2.000   6.999  19.814  0.00  0.00    +0.000 C 
ATOM      6  O   UNL     1       1.572   6.305  20.737  0.00  0.00    +0.000 OA
ATOM      7  C   UNL     1       0.937   9.143  20.661  0.00  0.00    +0.000 A 
ATOM      8  C   UNL     1       0.472   8.599  21.870  0.00  0.00    +0.000 A 
ATOM      9  C   UNL     1      -0.191   9.376  22.840  0.00  0.00    +0.000 A 
ATOM     10  C   UNL     1      -0.418  10.727  22.621  0.00  0.00    +0.000 A 
ATOM     11  C   UNL     1       0.025  11.292  21.438  0.00  0.00    +0.000 A 
ATOM     12  F   UNL     1      -0.173  12.601  21.221  0.00  0.00    +0.000 F 
ATOM     13  C   UNL     1       0.700  10.519  20.473  0.00  0.00    +0.000 A 
ATOM     14  N   UNL     1       1.151  11.207  19.341  0.00  0.00    +0.000 N 
ATOM     15  H   UNL     1       1.017  12.210  19.282  0.00  0.00    +0.000 HD
ENDROOT
BRANCH   5  16
ATOM     16  C   UNL     1       2.906   6.271  18.847  0.00  0.00    +0.000 A 
ATOM     17  C   UNL     1       3.885   6.965  18.119  0.00  0.00    +0.000 A 
ATOM     18  C   UNL     1       4.733   6.287  17.260  0.00  0.00    +0.000 A 
ATOM     19  F   UNL     1       5.713   6.954  16.640  0.00  0.00    +0.000 F 
ATOM     20  C   UNL     1       4.570   4.938  17.018  0.00  0.00    +0.000 A 
ATOM     21  C   UNL     1       3.519   4.252  17.632  0.00  0.00    +0.000 A 
ATOM     22  C   UNL     1       3.286   2.913  17.284  0.00  0.00    +0.000 A 
ATOM     23  C   UNL     1       2.219   2.229  17.840  0.00  0.00    +0.000 A 
ATOM     24  C   UNL     1       1.450   2.898  18.765  0.00  0.00    +0.000 A 
ATOM     25  N   UNL     1       1.682   4.173  19.157  0.00  0.00    +0.000 NA
ATOM     26  C   UNL     1       2.675   4.894  18.579  0.00  0.00    +0.000 A 
ENDBRANCH   5  16
TORSDOF 1
ENDMDL
MODEL 4
REMARK VINA RESULT:      -7.6      3.276      5.422
REMARK  Name = 
REMARK  1 active torsions:
REMARK  status: ('A' for Active; 'I' for Inactive)
REMARK    1  A    between atoms: C_5  and  C_7
REMARK                            x       y       z     vdW  Elec       q    Type
REMARK                         _______ _______ _______ _____ _____    ______ ____
ROOT
ATOM      1  O   UNL     1       1.110   3.690  21.191  0.00  0.00    +0.000 OA
ATOM      2  C   UNL     1       1.710   4.319  20.320  0.00  0.00    +0.000 C 
ATOM      3  C   UNL     1       1.378   5.766  20.001  0.00  0.00    +0.000 C 
ATOM      4  N   UNL     1       2.275   6.565  19.148  0.00  0.00    +0.000 N 
ATOM      5  C   UNL     1       2.161   7.987  19.054  0.00  0.00    +0.000 C 
ATOM      6  O   UNL     1       2.686   8.646  18.156  0.00  0.00    +0.000 OA
ATOM      7  C   UNL     1       3.184   5.785  18.314  0.00  0.00    +0.000 A 
ATOM      8  C   UNL     1       4.001   6.340  17.315  0.00  0.00    +0.000 A 
ATOM      9  C   UNL     1       4.892   5.561  16.551  0.00  0.00    +0.000 A 
ATOM     10  C   UNL     1       4.986   4.193  16.762  0.00  0.00    +0.000 A 
ATOM     11  C   UNL     1       4.193   3.615  17.738  0.00  0.00    +0.000 A 
ATOM     12  F   UNL     1       4.286   2.296  17.963  0.00  0.00    +0.000 F 
ATOM     13  C   UNL     1       3.310   4.395  18.511  0.00  0.00    +0.000 A 
ATOM     14  N   UNL     1       2.599   3.714  19.505  0.00  0.00    +0.000 N 
ATOM     15  H   UNL     1       2.773   2.727  19.654  0.00  0.00    +0.000 HD
ENDROOT
BRANCH   5  16
ATOM     16  C   UNL     1       1.359   8.799  20.045  0.00  0.00    +0.000 A 
ATOM     17  C   UNL     1       1.500   8.589  21.426  0.00  0.00    +0.000 A 
ATOM     18  C   UNL     1       0.787   9.359  22.329  0.00  0.00    +0.000 A 
ATOM     19  F   UNL     1       0.998   9.200  23.641  0.00  0.00    +0.000 F 
ATOM     20  C   UNL     1      -0.153  10.273  21.898  0.00  0.00    +0.000 A 
ATOM     21  C   UNL     1      -0.404  10.406  20.530  0.00  0.00    +0.000 A 
ATOM     22  C   UNL     1      -1.447  11.246  20.109  0.00  0.00    +0.000 A 
ATOM     23  C   UNL     1      -1.749  11.353  18.762  0.00  0.00    +0.000 A 
ATOM     24  C   UNL     1      -0.960  10.651  17.879  0.00  0.00    +0.000 A 
ATOM     25  N   UNL     1       0.083   9.874  18.253  0.00  0.00    +0.000 NA
ATOM     26  C   UNL     1       0.359   9.691  19.567  0.00  0.00    +0.000 A 
ENDBRANCH   5  16
TORSDOF 1
ENDMDL
MODEL 5
REMARK VINA RESULT:      -7.4      7.239      9.998
REMARK  Name = 
REMARK  1 active torsions:
REMARK  status: ('A' for Active; 'I' for Inactive)
REMARK    1  A    between atoms: C_5  and  C_7
REMARK                            x       y       z     vdW  Elec       q    Type
REMARK                         _______ _______ _______ _____ _____    ______ ____
ROOT
ATOM      1  O   UNL     1      -0.865  12.950  17.927  0.00  0.00    +0.000 OA
ATOM      2  C   UNL     1      -0.450  12.122  18.738  0.00  0.00    +0.000 C 
ATOM      3  C   UNL     1      -0.567  12.336  20.237  0.00  0.00    +0.000 C 
ATOM      4  N   UNL     1      -0.304  11.227  21.170  0.00  0.00    +0.000 N 
ATOM      5  C   UNL     1      -0.672  11.297  22.550  0.00  0.00    +0.000 C 
ATOM      6  O   UNL     1      -0.224  10.533  23.405  0.00  0.00    +0.000 OA
ATOM      7  C   UNL     1       0.475  10.126  20.611  0.00  0.00    +0.000 A 
ATOM      8  C   UNL     1       0.973   9.055  21.371  0.00  0.00    +0.000 A 
ATOM      9  C   UNL     1       1.692   7.991  20.792  0.00  0.00    +0.000 A 
ATOM     10  C   UNL     1       1.942   7.973  19.428  0.00  0.00    +0.000 A 
ATOM     11  C   UNL     1       1.466   9.015  18.651  0.00  0.00    +0.000 A 
ATOM     12  F   UNL     1       1.687   9.002  17.328  0.00  0.00    +0.000 F 
ATOM     13  C   UNL     1       0.736  10.074  19.227  0.00  0.00    +0.000 A 
ATOM     14  N   UNL     1       0.257  11.043  18.339  0.00  0.00    +0.000 N 
ATOM     15  H   UNL     1       0.412  10.928  17.344  0.00  0.00    +0.000 HD
ENDROOT
BRANCH   5  16
ATOM     16  C   UNL     1      -1.632  12.338  23.076  0.00  0.00    +0.000 A 
ATOM     17  C   UNL     1      -2.964  12.006  23.368  0.00  0.00    +0.000 A 
ATOM     18  C   UNL     1      -3.829  12.958  23.881  0.00  0.00    +0.000 A 
ATOM     19  F   UNL     1      -5.070  12.600  24.230  0.00  0.00    +0.000 F 
ATOM     20  C   UNL     1      -3.437  14.274  24.017  0.00  0.00    +0.000 A 
ATOM     21  C   UNL     1      -2.156  14.655  23.611  0.00  0.00    +0.000 A 
ATOM     22  C   UNL     1      -1.811  16.015  23.638  0.00  0.00    +0.000 A 
ATOM     23  C   UNL     1      -0.566  16.423  23.190  0.00  0.00    +0.000 A 
ATOM     24  C   UNL     1       0.310  15.444  22.777  0.00  0.00    +0.000 A 
ATOM     25  N   UNL     1       0.022  14.122  22.788  0.00  0.00    +0.000 NA
ATOM     26  C   UNL     1      -1.213  13.696  23.152  0.00  0.00    +0.000 A 
ENDBRANCH   5  16
TORSDOF 1
ENDMDL
MODEL 6
REMARK VINA RESULT:      -7.4      7.584     11.337
REMARK  Name = 
REMARK  1 active torsions:
REMARK  status: ('A' for Active; 'I' for Inactive)
REMARK    1  A    between atoms: C_5  and  C_7
REMARK                            x       y       z     vdW  Elec       q    Type
REMARK                         _______ _______ _______ _____ _____    ______ ____
ROOT
ATOM      1  O   UNL     1      -3.774  10.761  15.012  0.00  0.00    +0.000 OA
ATOM      2  C   UNL     1      -3.895  11.090  16.192  0.00  0.00    +0.000 C 
ATOM      3  C   UNL     1      -2.774  10.902  17.198  0.00  0.00    +0.000 C 
ATOM      4  N   UNL     1      -2.850  11.538  18.525  0.00  0.00    +0.000 N 
ATOM      5  C   UNL     1      -1.712  11.626  19.387  0.00  0.00    +0.000 C 
ATOM      6  O   UNL     1      -1.796  11.883  20.588  0.00  0.00    +0.000 OA
ATOM      7  C   UNL     1      -4.192  11.938  18.938  0.00  0.00    +0.000 A 
ATOM      8  C   UNL     1      -4.507  12.406  20.224  0.00  0.00    +0.000 A 
ATOM      9  C   UNL     1      -5.808  12.816  20.578  0.00  0.00    +0.000 A 
ATOM     10  C   UNL     1      -6.838  12.760  19.651  0.00  0.00    +0.000 A 
ATOM     11  C   UNL     1      -6.559  12.300  18.375  0.00  0.00    +0.000 A 
ATOM     12  F   UNL     1      -7.543  12.256  17.464  0.00  0.00    +0.000 F 
ATOM     13  C   UNL     1      -5.257  11.902  18.016  0.00  0.00    +0.000 A 
ATOM     14  N   UNL     1      -5.080  11.508  16.685  0.00  0.00    +0.000 N 
ATOM     15  H   UNL     1      -5.861  11.563  16.042  0.00  0.00    +0.000 HD
ENDROOT
BRANCH   5  16
ATOM     16  C   UNL     1      -0.304  11.388  18.891  0.00  0.00    +0.000 A 
ATOM     17  C   UNL     1       0.181  10.085  18.702  0.00  0.00    +0.000 A 
ATOM     18  C   UNL     1       1.460   9.876  18.216  0.00  0.00    +0.000 A 
ATOM     19  F   UNL     1       1.873   8.628  17.965  0.00  0.00    +0.000 F 
ATOM     20  C   UNL     1       2.323  10.932  18.007  0.00  0.00    +0.000 A 
ATOM     21  C   UNL     1       1.906  12.230  18.312  0.00  0.00    +0.000 A 
ATOM     22  C   UNL     1       2.830  13.282  18.214  0.00  0.00    +0.000 A 
ATOM     23  C   UNL     1       2.455  14.568  18.562  0.00  0.00    +0.000 A 
ATOM     24  C   UNL     1       1.148  14.764  18.949  0.00  0.00    +0.000 A 
ATOM     25  N   UNL     1       0.223  13.777  19.004  0.00  0.00    +0.000 NA
ATOM     26  C   UNL     1       0.576  12.496  18.740  0.00  0.00    +0.000 A 
ENDBRANCH   5  16
TORSDOF 1
ENDMDL
MODEL 7
REMARK VINA RESULT:      -7.0      6.847      9.790
REMARK  Name = 
REMARK  1 active torsions:
REMARK  status: ('A' for Active; 'I' for Inactive)
REMARK    1  A    between atoms: C_5  and  C_7
REMARK                            x       y       z     vdW  Elec       q    Type
REMARK                         _______ _______ _______ _____ _____    ______ ____
ROOT
ATOM      1  O   UNL     1       4.388  14.189  21.609  0.00  0.00    +0.000 OA
ATOM      2  C   UNL     1       3.347  14.360  20.975  0.00  0.00    +0.000 C 
ATOM      3  C   UNL     1       2.480  13.199  20.523  0.00  0.00    +0.000 C 
ATOM      4  N   UNL     1       1.124  13.441  20.001  0.00  0.00    +0.000 N 
ATOM      5  C   UNL     1       0.178  12.382  19.834  0.00  0.00    +0.000 C 
ATOM      6  O   UNL     1      -0.839  12.490  19.148  0.00  0.00    +0.000 OA
ATOM      7  C   UNL     1       0.877  14.805  19.544  0.00  0.00    +0.000 A 
ATOM      8  C   UNL     1      -0.286  15.204  18.863  0.00  0.00    +0.000 A 
ATOM      9  C   UNL     1      -0.505  16.538  18.467  0.00  0.00    +0.000 A 
ATOM     10  C   UNL     1       0.442  17.515  18.734  0.00  0.00    +0.000 A 
ATOM     11  C   UNL     1       1.599  17.153  19.401  0.00  0.00    +0.000 A 
ATOM     12  F   UNL     1       2.517  18.091  19.681  0.00  0.00    +0.000 F 
ATOM     13  C   UNL     1       1.816  15.822  19.810  0.00  0.00    +0.000 A 
ATOM     14  N   UNL     1       2.995  15.583  20.524  0.00  0.00    +0.000 N 
ATOM     15  H   UNL     1       3.606  16.358  20.750  0.00  0.00    +0.000 HD
ENDROOT
BRANCH   5  16
ATOM     16  C   UNL     1       0.364  11.026  20.475  0.00  0.00    +0.000 A 
ATOM     17  C   UNL     1       0.044  10.819  21.826  0.00  0.00    +0.000 A 
ATOM     18  C   UNL     1       0.187   9.566  22.398  0.00  0.00    +0.000 A 
ATOM     19  F   UNL     1      -0.203   9.371  23.663  0.00  0.00    +0.000 F 
ATOM     20  C   UNL     1       0.744   8.521  21.689  0.00  0.00    +0.000 A 
ATOM     21  C   UNL     1       1.191   8.737  20.383  0.00  0.00    +0.000 A 
ATOM     22  C   UNL     1       1.868   7.704  19.716  0.00  0.00    +0.000 A 
ATOM     23  C   UNL     1       2.366   7.913  18.442  0.00  0.00    +0.000 A 
ATOM     24  C   UNL     1       2.125   9.137  17.860  0.00  0.00    +0.000 A 
ATOM     25  N   UNL     1       1.432  10.133  18.460  0.00  0.00    +0.000 NA
ATOM     26  C   UNL     1       0.993   9.987  19.734  0.00  0.00    +0.000 A 
ENDBRANCH   5  16
TORSDOF 1
ENDMDL
MODEL 8
REMARK VINA RESULT:      -7.0      4.217      7.843
REMARK  Name = 
REMARK  1 active torsions:
REMARK  status: ('A' for Active; 'I' for Inactive)
REMARK    1  A    between atoms: C_5  and  C_7
REMARK                            x       y       z     vdW  Elec       q    Type
REMARK                         _______ _______ _______ _____ _____    ______ ____
ROOT
ATOM      1  O   UNL     1       0.710   9.310  23.814  0.00  0.00    +0.000 OA
ATOM      2  C   UNL     1       0.581   9.599  22.625  0.00  0.00    +0.000 C 
ATOM      3  C   UNL     1       1.372   8.896  21.536  0.00  0.00    +0.000 C 
ATOM      4  N   UNL     1       1.011   9.078  20.120  0.00  0.00    +0.000 N 
ATOM      5  C   UNL     1       1.532   8.230  19.092  0.00  0.00    +0.000 C 
ATOM      6  O   UNL     1       1.488   8.517  17.896  0.00  0.00    +0.000 OA
ATOM      7  C   UNL     1       0.204  10.261  19.838  0.00  0.00    +0.000 A 
ATOM      8  C   UNL     1      -0.107  10.707  18.543  0.00  0.00    +0.000 A 
ATOM      9  C   UNL     1      -0.918  11.835  18.309  0.00  0.00    +0.000 A 
ATOM     10  C   UNL     1      -1.438  12.558  19.372  0.00  0.00    +0.000 A 
ATOM     11  C   UNL     1      -1.148  12.146  20.661  0.00  0.00    +0.000 A 
ATOM     12  F   UNL     1      -1.658  12.826  21.698  0.00  0.00    +0.000 F 
ATOM     13  C   UNL     1      -0.348  11.011  20.897  0.00  0.00    +0.000 A 
ATOM     14  N   UNL     1      -0.167  10.655  22.238  0.00  0.00    +0.000 N 
ATOM     15  H   UNL     1      -0.638  11.184  22.962  0.00  0.00    +0.000 HD
ENDROOT
BRANCH   5  16
ATOM     16  C   UNL     1       2.203   6.911  19.399  0.00  0.00    +0.000 A 
ATOM     17  C   UNL     1       1.769   6.116  20.471  0.00  0.00    +0.000 A 
ATOM     18  C   UNL     1       2.368   4.893  20.726  0.00  0.00    +0.000 A 
ATOM     19  F   UNL     1       1.884   4.113  21.699  0.00  0.00    +0.000 F 
ATOM     20  C   UNL     1       3.469   4.477  20.005  0.00  0.00    +0.000 A 
ATOM     21  C   UNL     1       4.000   5.312  19.019  0.00  0.00    +0.000 A 
ATOM     22  C   UNL     1       5.191   4.936  18.379  0.00  0.00    +0.000 A 
ATOM     23  C   UNL     1       5.764   5.773  17.436  0.00  0.00    +0.000 A 
ATOM     24  C   UNL     1       5.095   6.936  17.132  0.00  0.00    +0.000 A 
ATOM     25  N   UNL     1       3.920   7.300  17.697  0.00  0.00    +0.000 NA
ATOM     26  C   UNL     1       3.370   6.539  18.674  0.00  0.00    +0.000 A 
ENDBRANCH   5  16
TORSDOF 1
ENDMDL
MODEL 9
REMARK VINA RESULT:      -7.0      3.417      5.725
REMARK  Name = 
REMARK  1 active torsions:
REMARK  status: ('A' for Active; 'I' for Inactive)
REMARK    1  A    between atoms: C_5  and  C_7
REMARK                            x       y       z     vdW  Elec       q    Type
REMARK                         _______ _______ _______ _____ _____    ______ ____
ROOT
ATOM      1  O   UNL     1       0.965   4.170  20.737  0.00  0.00    +0.000 OA
ATOM      2  C   UNL     1       1.785   4.758  20.031  0.00  0.00    +0.000 C 
ATOM      3  C   UNL     1       1.446   6.053  19.315  0.00  0.00    +0.000 C 
ATOM      4  N   UNL     1       2.511   6.862  18.697  0.00  0.00    +0.000 N 
ATOM      5  C   UNL     1       2.285   8.207  18.267  0.00  0.00    +0.000 C 
ATOM      6  O   UNL     1       3.043   8.806  17.504  0.00  0.00    +0.000 OA
ATOM      7  C   UNL     1       3.755   6.144  18.437  0.00  0.00    +0.000 A 
ATOM      8  C   UNL     1       4.830   6.680  17.709  0.00  0.00    +0.000 A 
ATOM      9  C   UNL     1       6.030   5.970  17.506  0.00  0.00    +0.000 A 
ATOM     10  C   UNL     1       6.185   4.692  18.022  0.00  0.00    +0.000 A 
ATOM     11  C   UNL     1       5.143   4.135  18.742  0.00  0.00    +0.000 A 
ATOM     12  F   UNL     1       5.286   2.906  19.260  0.00  0.00    +0.000 F 
ATOM     13  C   UNL     1       3.947   4.848  18.957  0.00  0.00    +0.000 A 
ATOM     14  N   UNL     1       2.984   4.208  19.745  0.00  0.00    +0.000 N 
ATOM     15  H   UNL     1       3.194   3.305  20.152  0.00  0.00    +0.000 HD
ENDROOT
BRANCH   5  16
ATOM     16  C   UNL     1       1.074   9.000  18.703  0.00  0.00    +0.000 A 
ATOM     17  C   UNL     1       0.256   9.639  17.759  0.00  0.00    +0.000 A 
ATOM     18  C   UNL     1      -0.870  10.336  18.164  0.00  0.00    +0.000 A 
ATOM     19  F   UNL     1      -1.682  10.867  17.243  0.00  0.00    +0.000 F 
ATOM     20  C   UNL     1      -1.155  10.510  19.503  0.00  0.00    +0.000 A 
ATOM     21  C   UNL     1      -0.283   9.993  20.464  0.00  0.00    +0.000 A 
ATOM     22  C   UNL     1      -0.515  10.281  21.818  0.00  0.00    +0.000 A 
ATOM     23  C   UNL     1       0.366   9.825  22.784  0.00  0.00    +0.000 A 
ATOM     24  C   UNL     1       1.423   9.051  22.362  0.00  0.00    +0.000 A 
ATOM     25  N   UNL     1       1.643   8.716  21.069  0.00  0.00    +0.000 NA
ATOM     26  C   UNL     1       0.841   9.206  20.092  0.00  0.00    +0.000 A 
ENDBRANCH   5  16
TORSDOF 1
ENDMDL
