MODEL 1
REMARK VINA RESULT:      -9.0      0.000      0.000
REMARK  Name = 
REMARK  6 active torsions:
REMARK  status: ('A' for Active; 'I' for Inactive)
REMARK    1  A    between atoms: C_2  and  OXT_3
REMARK    2  A    between atoms: C_2  and  CA_4
REMARK    3  A    between atoms: CA_4  and  C_5
REMARK    4  A    between atoms: CA_4  and  N_16
REMARK    5  A    between atoms: C_5  and  C_6
REMARK    6  A    between atoms: C_17  and  C_19
REMARK                            x       y       z     vdW  Elec       q    Type
REMARK                         _______ _______ _______ _____ _____    ______ ____
ROOT
ATOM      1  CA  UNL     1       0.726   8.919  21.160  0.00  0.00    +0.000 C 
ENDROOT
BRANCH   1   2
ATOM      2  N   UNL     1       1.542   7.767  20.779  0.00  0.00    +0.000 N 
ATOM      3  C   UNL     1       1.974   7.612  19.482  0.00  0.00    +0.000 C 
ATOM      4  O   UNL     1       1.504   8.302  18.575  0.00  0.00    +0.000 OA
ATOM      5  H   UNL     1       2.019   7.257  21.517  0.00  0.00    +0.000 HD
BRANCH   3   6
ATOM      6  C   UNL     1       3.018   6.519  19.240  0.00  0.00    +0.000 C 
ATOM      7  C   UNL     1       3.766   6.809  17.937  0.00  0.00    +0.000 C 
ATOM      8  C   UNL     1       4.538   5.571  17.520  0.00  0.00    +0.000 C 
ATOM      9  O   UNL     1       3.648   4.497  17.210  0.00  0.00    +0.000 OA
ATOM     10  C   UNL     1       2.738   4.226  18.198  0.00  0.00    +0.000 A 
ATOM     11  C   UNL     1       2.096   2.991  18.114  0.00  0.00    +0.000 A 
ATOM     12  C   UNL     1       1.156   2.624  19.074  0.00  0.00    +0.000 A 
ATOM     13  C   UNL     1       0.874   3.485  20.133  0.00  0.00    +0.000 A 
ATOM     14  C   UNL     1       1.505   4.726  20.211  0.00  0.00    +0.000 A 
ATOM     15  C   UNL     1       2.418   5.126  19.219  0.00  0.00    +0.000 A 
ENDBRANCH   3   6
ENDBRANCH   1   2
BRANCH   1  17
ATOM     16  O   UNL     1       0.345   9.811  23.407  0.00  0.00    +0.000 OA
ATOM     17  C   UNL     1       1.120   9.360  22.576  0.00  0.00    +0.000 C 
BRANCH  17  18
ATOM     18  OXT UNL     1       2.450   9.248  22.819  0.00  0.00    +0.000 OA
ATOM     19  HXT UNL     1       2.772   8.319  22.710  0.00  0.00    +0.000 HD
ENDBRANCH  17  18
ENDBRANCH   1  17
BRANCH   1  20
ATOM     20  C   UNL     1       0.876  10.110  20.198  0.00  0.00    +0.000 C 
BRANCH  20  21
ATOM     21  C   UNL     1      -0.409  10.856  19.952  0.00  0.00    +0.000 A 
ATOM     22  C   UNL     1      -0.965  11.834  20.757  0.00  0.00    +0.000 A 
ATOM     23  N   UNL     1      -2.129  12.265  20.176  0.00  0.00    +0.000 N 
ATOM     24  C   UNL     1      -2.353  11.584  19.001  0.00  0.00    +0.000 A 
ATOM     25  C   UNL     1      -3.418  11.675  18.092  0.00  0.00    +0.000 A 
ATOM     26  C   UNL     1      -3.362  10.862  16.966  0.00  0.00    +0.000 A 
ATOM     27  F   UNL     1      -4.364  10.916  16.077  0.00  0.00    +0.000 F 
ATOM     28  C   UNL     1      -2.302   9.996  16.736  0.00  0.00    +0.000 A 
ATOM     29  C   UNL     1      -1.252   9.909  17.657  0.00  0.00    +0.000 A 
ATOM     30  C   UNL     1      -1.279  10.708  18.821  0.00  0.00    +0.000 A 
ATOM     31  H   UNL     1      -2.734  12.983  20.545  0.00  0.00    +0.000 HD
ENDBRANCH  20  21
ENDBRANCH   1  20
TORSDOF 6
ENDMDL
MODEL 2
REMARK VINA RESULT:      -9.0      3.245      5.150
REMARK  Name = 
REMARK  6 active torsions:
REMARK  status: ('A' for Active; 'I' for Inactive)
REMARK    1  A    between atoms: C_2  and  OXT_3
REMARK    2  A    between atoms: C_2  and  CA_4
REMARK    3  A    between atoms: CA_4  and  C_5
REMARK    4  A    between atoms: CA_4  and  N_16
REMARK    5  A    between atoms: C_5  and  C_6
REMARK    6  A    between atoms: C_17  and  C_19
REMARK                            x       y       z     vdW  Elec       q    Type
REMARK                         _______ _______ _______ _____ _____    ______ ____
ROOT
ATOM      1  CA  UNL     1       2.208   4.871  20.075  0.00  0.00    +0.000 C 
ENDROOT
BRANCH   1   2
ATOM      2  N   UNL     1       3.627   4.604  19.847  0.00  0.00    +0.000 N 
ATOM      3  C   UNL     1       4.089   4.294  18.589  0.00  0.00    +0.000 C 
ATOM      4  O   UNL     1       3.304   4.012  17.682  0.00  0.00    +0.000 OA
ATOM      5  H   UNL     1       4.291   4.929  20.545  0.00  0.00    +0.000 HD
BRANCH   3   6
ATOM      6  C   UNL     1       5.610   4.277  18.409  0.00  0.00    +0.000 C 
ATOM      7  C   UNL     1       6.234   5.393  19.250  0.00  0.00    +0.000 C 
ATOM      8  C   UNL     1       7.672   5.602  18.810  0.00  0.00    +0.000 C 
ATOM      9  O   UNL     1       7.727   6.071  17.461  0.00  0.00    +0.000 OA
ATOM     10  C   UNL     1       7.027   5.298  16.573  0.00  0.00    +0.000 A 
ATOM     11  C   UNL     1       7.330   5.489  15.226  0.00  0.00    +0.000 A 
ATOM     12  C   UNL     1       6.671   4.747  14.248  0.00  0.00    +0.000 A 
ATOM     13  C   UNL     1       5.724   3.797  14.620  0.00  0.00    +0.000 A 
ATOM     14  C   UNL     1       5.409   3.614  15.966  0.00  0.00    +0.000 A 
ATOM     15  C   UNL     1       6.032   4.394  16.957  0.00  0.00    +0.000 A 
ENDBRANCH   3   6
ENDBRANCH   1   2
BRANCH   1  17
ATOM     16  O   UNL     1       2.126   3.382  22.015  0.00  0.00    +0.000 OA
ATOM     17  C   UNL     1       1.630   3.763  20.965  0.00  0.00    +0.000 C 
BRANCH  17  18
ATOM     18  OXT UNL     1       0.514   3.192  20.447  0.00  0.00    +0.000 OA
ATOM     19  HXT UNL     1       0.685   2.277  20.111  0.00  0.00    +0.000 HD
ENDBRANCH  17  18
ENDBRANCH   1  17
BRANCH   1  20
ATOM     20  C   UNL     1       1.948   6.238  20.732  0.00  0.00    +0.000 C 
BRANCH  20  21
ATOM     21  C   UNL     1       1.919   7.384  19.756  0.00  0.00    +0.000 A 
ATOM     22  C   UNL     1       2.422   7.387  18.467  0.00  0.00    +0.000 A 
ATOM     23  N   UNL     1       2.187   8.618  17.912  0.00  0.00    +0.000 N 
ATOM     24  C   UNL     1       1.540   9.429  18.815  0.00  0.00    +0.000 A 
ATOM     25  C   UNL     1       1.123  10.764  18.694  0.00  0.00    +0.000 A 
ATOM     26  C   UNL     1       0.466  11.325  19.784  0.00  0.00    +0.000 A 
ATOM     27  F   UNL     1       0.058  12.599  19.710  0.00  0.00    +0.000 F 
ATOM     28  C   UNL     1       0.222  10.605  20.946  0.00  0.00    +0.000 A 
ATOM     29  C   UNL     1       0.652   9.277  21.054  0.00  0.00    +0.000 A 
ATOM     30  C   UNL     1       1.336   8.677  19.975  0.00  0.00    +0.000 A 
ATOM     31  H   UNL     1       2.441   8.892  16.975  0.00  0.00    +0.000 HD
ENDBRANCH  20  21
ENDBRANCH   1  20
TORSDOF 6
ENDMDL
MODEL 3
REMARK VINA RESULT:      -8.9      3.387      5.339
REMARK  Name = 
REMARK  6 active torsions:
REMARK  status: ('A' for Active; 'I' for Inactive)
REMARK    1  A    between atoms: C_2  and  OXT_3
REMARK    2  A    between atoms: C_2  and  CA_4
REMARK    3  A    between atoms: CA_4  and  C_5
REMARK    4  A    between atoms: CA_4  and  N_16
REMARK    5  A    between atoms: C_5  and  C_6
REMARK    6  A    between atoms: C_17  and  C_19
REMARK                            x       y       z     vdW  Elec       q    Type
REMARK                         _______ _______ _______ _____ _____    ______ ____
ROOT
ATOM      1  CA  UNL     1       2.006   4.851  19.753  0.00  0.00    +0.000 C 
ENDROOT
BRANCH   1   2
ATOM      2  N   UNL     1       3.422   4.534  19.572  0.00  0.00    +0.000 N 
ATOM      3  C   UNL     1       3.943   4.349  18.313  0.00  0.00    +0.000 C 
ATOM      4  O   UNL     1       3.202   4.220  17.337  0.00  0.00    +0.000 OA
ATOM      5  H   UNL     1       4.056   4.738  20.339  0.00  0.00    +0.000 HD
BRANCH   3   6
ATOM      6  C   UNL     1       5.470   4.269  18.215  0.00  0.00    +0.000 C 
ATOM      7  C   UNL     1       6.093   5.344  19.108  0.00  0.00    +0.000 C 
ATOM      8  C   UNL     1       7.560   5.498  18.750  0.00  0.00    +0.000 C 
ATOM      9  O   UNL     1       7.710   5.985  17.415  0.00  0.00    +0.000 OA
ATOM     10  C   UNL     1       7.027   5.257  16.477  0.00  0.00    +0.000 A 
ATOM     11  C   UNL     1       7.411   5.456  15.152  0.00  0.00    +0.000 A 
ATOM     12  C   UNL     1       6.776   4.758  14.127  0.00  0.00    +0.000 A 
ATOM     13  C   UNL     1       5.771   3.844  14.430  0.00  0.00    +0.000 A 
ATOM     14  C   UNL     1       5.375   3.654  15.753  0.00  0.00    +0.000 A 
ATOM     15  C   UNL     1       5.975   4.391  16.790  0.00  0.00    +0.000 A 
ENDBRANCH   3   6
ENDBRANCH   1   2
BRANCH   1  17
ATOM     16  O   UNL     1       1.070   3.153  21.247  0.00  0.00    +0.000 OA
ATOM     17  C   UNL     1       1.250   3.564  20.110  0.00  0.00    +0.000 C 
BRANCH  17  18
ATOM     18  OXT UNL     1       0.828   2.874  19.020  0.00  0.00    +0.000 OA
ATOM     19  HXT UNL     1       1.362   3.086  18.215  0.00  0.00    +0.000 HD
ENDBRANCH  17  18
ENDBRANCH   1  17
BRANCH   1  20
ATOM     20  C   UNL     1       1.757   5.905  20.844  0.00  0.00    +0.000 C 
BRANCH  20  21
ATOM     21  C   UNL     1       1.612   7.306  20.313  0.00  0.00    +0.000 A 
ATOM     22  C   UNL     1       2.070   7.782  19.097  0.00  0.00    +0.000 A 
ATOM     23  N   UNL     1       1.728   9.105  18.991  0.00  0.00    +0.000 N 
ATOM     24  C   UNL     1       1.053   9.511  20.120  0.00  0.00    +0.000 A 
ATOM     25  C   UNL     1       0.538  10.772  20.459  0.00  0.00    +0.000 A 
ATOM     26  C   UNL     1      -0.122  10.880  21.678  0.00  0.00    +0.000 A 
ATOM     27  F   UNL     1      -0.624  12.069  22.041  0.00  0.00    +0.000 F 
ATOM     28  C   UNL     1      -0.274   9.794  22.530  0.00  0.00    +0.000 A 
ATOM     29  C   UNL     1       0.254   8.547  22.182  0.00  0.00    +0.000 A 
ATOM     30  C   UNL     1       0.944   8.399  20.959  0.00  0.00    +0.000 A 
ATOM     31  H   UNL     1       1.930   9.697  18.200  0.00  0.00    +0.000 HD
ENDBRANCH  20  21
ENDBRANCH   1  20
TORSDOF 6
ENDMDL
MODEL 4
REMARK VINA RESULT:      -8.8      0.936      1.099
REMARK  Name = 
REMARK  6 active torsions:
REMARK  status: ('A' for Active; 'I' for Inactive)
REMARK    1  A    between atoms: C_2  and  OXT_3
REMARK    2  A    between atoms: C_2  and  CA_4
REMARK    3  A    between atoms: CA_4  and  C_5
REMARK    4  A    between atoms: CA_4  and  N_16
REMARK    5  A    between atoms: C_5  and  C_6
REMARK    6  A    between atoms: C_17  and  C_19
REMARK                            x       y       z     vdW  Elec       q    Type
REMARK                         _______ _______ _______ _____ _____    ______ ____
ROOT
ATOM      1  CA  UNL     1       0.454   9.298  21.022  0.00  0.00    +0.000 C 
ENDROOT
BRANCH   1   2
ATOM      2  N   UNL     1       1.580   8.459  20.616  0.00  0.00    +0.000 N 
ATOM      3  C   UNL     1       1.442   7.093  20.534  0.00  0.00    +0.000 C 
ATOM      4  O   UNL     1       0.455   6.530  21.012  0.00  0.00    +0.000 OA
ATOM      5  H   UNL     1       2.352   8.902  20.126  0.00  0.00    +0.000 HD
BRANCH   3   6
ATOM      6  C   UNL     1       2.592   6.333  19.867  0.00  0.00    +0.000 C 
ATOM      7  C   UNL     1       2.887   6.954  18.500  0.00  0.00    +0.000 C 
ATOM      8  C   UNL     1       3.766   6.007  17.703  0.00  0.00    +0.000 C 
ATOM      9  O   UNL     1       3.075   4.788  17.421  0.00  0.00    +0.000 OA
ATOM     10  C   UNL     1       2.540   4.182  18.527  0.00  0.00    +0.000 A 
ATOM     11  C   UNL     1       2.177   2.845  18.375  0.00  0.00    +0.000 A 
ATOM     12  C   UNL     1       1.627   2.143  19.445  0.00  0.00    +0.000 A 
ATOM     13  C   UNL     1       1.460   2.774  20.676  0.00  0.00    +0.000 A 
ATOM     14  C   UNL     1       1.809   4.116  20.826  0.00  0.00    +0.000 A 
ATOM     15  C   UNL     1       2.319   4.847  19.738  0.00  0.00    +0.000 A 
ENDBRANCH   3   6
ENDBRANCH   1   2
BRANCH   1  17
ATOM     16  O   UNL     1       1.405   9.604  23.256  0.00  0.00    +0.000 OA
ATOM     17  C   UNL     1       0.428   9.390  22.553  0.00  0.00    +0.000 C 
BRANCH  17  18
ATOM     18  OXT UNL     1      -0.801   9.158  23.080  0.00  0.00    +0.000 OA
ATOM     19  HXT UNL     1      -1.388   8.665  22.455  0.00  0.00    +0.000 HD
ENDBRANCH  17  18
ENDBRANCH   1  17
BRANCH   1  20
ATOM     20  C   UNL     1       0.513  10.716  20.429  0.00  0.00    +0.000 C 
BRANCH  20  21
ATOM     21  C   UNL     1      -0.828  11.252  20.003  0.00  0.00    +0.000 A 
ATOM     22  C   UNL     1      -1.605  12.174  20.683  0.00  0.00    +0.000 A 
ATOM     23  N   UNL     1      -2.745  12.401  19.956  0.00  0.00    +0.000 N 
ATOM     24  C   UNL     1      -2.735  11.641  18.809  0.00  0.00    +0.000 A 
ATOM     25  C   UNL     1      -3.692  11.532  17.789  0.00  0.00    +0.000 A 
ATOM     26  C   UNL     1      -3.394  10.685  16.727  0.00  0.00    +0.000 A 
ATOM     27  F   UNL     1      -4.287  10.550  15.736  0.00  0.00    +0.000 F 
ATOM     28  C   UNL     1      -2.203   9.975  16.664  0.00  0.00    +0.000 A 
ATOM     29  C   UNL     1      -1.263  10.087  17.695  0.00  0.00    +0.000 A 
ATOM     30  C   UNL     1      -1.534  10.926  18.797  0.00  0.00    +0.000 A 
ATOM     31  H   UNL     1      -3.483  13.038  20.214  0.00  0.00    +0.000 HD
ENDBRANCH  20  21
ENDBRANCH   1  20
TORSDOF 6
ENDMDL
MODEL 5
REMARK VINA RESULT:      -8.7      2.835      3.472
REMARK  Name = 
REMARK  6 active torsions:
REMARK  status: ('A' for Active; 'I' for Inactive)
REMARK    1  A    between atoms: C_2  and  OXT_3
REMARK    2  A    between atoms: C_2  and  CA_4
REMARK    3  A    between atoms: CA_4  and  C_5
REMARK    4  A    between atoms: CA_4  and  N_16
REMARK    5  A    between atoms: C_5  and  C_6
REMARK    6  A    between atoms: C_17  and  C_19
REMARK                            x       y       z     vdW  Elec       q    Type
REMARK                         _______ _______ _______ _____ _____    ______ ____
ROOT
ATOM      1  CA  UNL     1       0.625   8.452  21.433  0.00  0.00    +0.000 C 
ENDROOT
BRANCH   1   2
ATOM      2  N   UNL     1       1.848   7.903  20.848  0.00  0.00    +0.000 N 
ATOM      3  C   UNL     1       1.898   6.594  20.430  0.00  0.00    +0.000 C 
ATOM      4  O   UNL     1       1.010   5.798  20.741  0.00  0.00    +0.000 OA
ATOM      5  H   UNL     1       2.540   8.556  20.493  0.00  0.00    +0.000 HD
BRANCH   3   6
ATOM      6  C   UNL     1       3.128   6.189  19.612  0.00  0.00    +0.000 C 
ATOM      7  C   UNL     1       3.174   7.010  18.321  0.00  0.00    +0.000 C 
ATOM      8  C   UNL     1       4.169   6.378  17.365  0.00  0.00    +0.000 C 
ATOM      9  O   UNL     1       3.736   5.076  16.968  0.00  0.00    +0.000 OA
ATOM     10  C   UNL     1       3.433   4.245  18.014  0.00  0.00    +0.000 A 
ATOM     11  C   UNL     1       3.354   2.887  17.713  0.00  0.00    +0.000 A 
ATOM     12  C   UNL     1       3.054   1.964  18.713  0.00  0.00    +0.000 A 
ATOM     13  C   UNL     1       2.854   2.400  20.020  0.00  0.00    +0.000 A 
ATOM     14  C   UNL     1       2.918   3.760  20.321  0.00  0.00    +0.000 A 
ATOM     15  C   UNL     1       3.170   4.703  19.309  0.00  0.00    +0.000 A 
ENDBRANCH   3   6
ENDBRANCH   1   2
BRANCH   1  17
ATOM     16  O   UNL     1       0.201   9.939  23.330  0.00  0.00    +0.000 OA
ATOM     17  C   UNL     1       0.997   9.302  22.655  0.00  0.00    +0.000 C 
BRANCH  17  18
ATOM     18  OXT UNL     1       2.331   9.326  22.902  0.00  0.00    +0.000 OA
ATOM     19  HXT UNL     1       2.856   9.538  22.090  0.00  0.00    +0.000 HD
ENDBRANCH  17  18
ENDBRANCH   1  17
BRANCH   1  20
ATOM     20  C   UNL     1      -0.185   9.308  20.445  0.00  0.00    +0.000 C 
BRANCH  20  21
ATOM     21  C   UNL     1       0.666  10.087  19.478  0.00  0.00    +0.000 A 
ATOM     22  C   UNL     1       1.073   9.679  18.219  0.00  0.00    +0.000 A 
ATOM     23  N   UNL     1       1.826  10.680  17.661  0.00  0.00    +0.000 N 
ATOM     24  C   UNL     1       1.925  11.740  18.532  0.00  0.00    +0.000 A 
ATOM     25  C   UNL     1       2.608  12.959  18.397  0.00  0.00    +0.000 A 
ATOM     26  C   UNL     1       2.511  13.860  19.452  0.00  0.00    +0.000 A 
ATOM     27  F   UNL     1       3.154  15.033  19.364  0.00  0.00    +0.000 F 
ATOM     28  C   UNL     1       1.770  13.581  20.592  0.00  0.00    +0.000 A 
ATOM     29  C   UNL     1       1.103  12.357  20.715  0.00  0.00    +0.000 A 
ATOM     30  C   UNL     1       1.189  11.409  19.673  0.00  0.00    +0.000 A 
ATOM     31  H   UNL     1       2.240  10.653  16.742  0.00  0.00    +0.000 HD
ENDBRANCH  20  21
ENDBRANCH   1  20
TORSDOF 6
ENDMDL
MODEL 6
REMARK VINA RESULT:      -8.7      3.879      7.920
REMARK  Name = 
REMARK  6 active torsions:
REMARK  status: ('A' for Active; 'I' for Inactive)
REMARK    1  A    between atoms: C_2  and  OXT_3
REMARK    2  A    between atoms: C_2  and  CA_4
REMARK    3  A    between atoms: CA_4  and  C_5
REMARK    4  A    between atoms: CA_4  and  N_16
REMARK    5  A    between atoms: C_5  and  C_6
REMARK    6  A    between atoms: C_17  and  C_19
REMARK                            x       y       z     vdW  Elec       q    Type
REMARK                         _______ _______ _______ _____ _____    ______ ____
ROOT
ATOM      1  CA  UNL     1       2.577   4.448  20.126  0.00  0.00    +0.000 C 
ENDROOT
BRANCH   1   2
ATOM      2  N   UNL     1       1.778   5.641  19.850  0.00  0.00    +0.000 N 
ATOM      3  C   UNL     1       2.386   6.840  19.558  0.00  0.00    +0.000 C 
ATOM      4  O   UNL     1       3.594   6.995  19.743  0.00  0.00    +0.000 OA
ATOM      5  H   UNL     1       0.803   5.512  19.593  0.00  0.00    +0.000 HD
BRANCH   3   6
ATOM      6  C   UNL     1       1.473   7.957  19.045  0.00  0.00    +0.000 C 
ATOM      7  C   UNL     1       2.234   8.809  18.028  0.00  0.00    +0.000 C 
ATOM      8  C   UNL     1       1.470  10.099  17.787  0.00  0.00    +0.000 C 
ATOM      9  O   UNL     1       1.420  10.889  18.977  0.00  0.00    +0.000 OA
ATOM     10  C   UNL     1       0.955  10.215  20.075  0.00  0.00    +0.000 A 
ATOM     11  C   UNL     1       0.551  11.004  21.150  0.00  0.00    +0.000 A 
ATOM     12  C   UNL     1       0.061  10.408  22.311  0.00  0.00    +0.000 A 
ATOM     13  C   UNL     1      -0.045   9.022  22.386  0.00  0.00    +0.000 A 
ATOM     14  C   UNL     1       0.372   8.230  21.317  0.00  0.00    +0.000 A 
ATOM     15  C   UNL     1       0.915   8.819  20.161  0.00  0.00    +0.000 A 
ENDBRANCH   3   6
ENDBRANCH   1   2
BRANCH   1  17
ATOM     16  O   UNL     1       2.113   2.950  22.004  0.00  0.00    +0.000 OA
ATOM     17  C   UNL     1       1.741   3.472  20.964  0.00  0.00    +0.000 C 
BRANCH  17  18
ATOM     18  OXT UNL     1       0.534   3.192  20.410  0.00  0.00    +0.000 OA
ATOM     19  HXT UNL     1       0.541   3.302  19.427  0.00  0.00    +0.000 HD
ENDBRANCH  17  18
ENDBRANCH   1  17
BRANCH   1  20
ATOM     20  C   UNL     1       3.060   3.737  18.850  0.00  0.00    +0.000 C 
BRANCH  20  21
ATOM     21  C   UNL     1       4.504   4.003  18.518  0.00  0.00    +0.000 A 
ATOM     22  C   UNL     1       5.562   4.062  19.409  0.00  0.00    +0.000 A 
ATOM     23  N   UNL     1       6.710   4.317  18.704  0.00  0.00    +0.000 N 
ATOM     24  C   UNL     1       6.427   4.430  17.363  0.00  0.00    +0.000 A 
ATOM     25  C   UNL     1       7.277   4.707  16.280  0.00  0.00    +0.000 A 
ATOM     26  C   UNL     1       6.701   4.741  15.015  0.00  0.00    +0.000 A 
ATOM     27  F   UNL     1       7.479   5.008  13.956  0.00  0.00    +0.000 F 
ATOM     28  C   UNL     1       5.347   4.510  14.817  0.00  0.00    +0.000 A 
ATOM     29  C   UNL     1       4.511   4.245  15.907  0.00  0.00    +0.000 A 
ATOM     30  C   UNL     1       5.054   4.216  17.210  0.00  0.00    +0.000 A 
ATOM     31  H   UNL     1       7.632   4.400  19.104  0.00  0.00    +0.000 HD
ENDBRANCH  20  21
ENDBRANCH   1  20
TORSDOF 6
ENDMDL
MODEL 7
REMARK VINA RESULT:      -8.6      2.906      4.662
REMARK  Name = 
REMARK  6 active torsions:
REMARK  status: ('A' for Active; 'I' for Inactive)
REMARK    1  A    between atoms: C_2  and  OXT_3
REMARK    2  A    between atoms: C_2  and  CA_4
REMARK    3  A    between atoms: CA_4  and  C_5
REMARK    4  A    between atoms: CA_4  and  N_16
REMARK    5  A    between atoms: C_5  and  C_6
REMARK    6  A    between atoms: C_17  and  C_19
REMARK                            x       y       z     vdW  Elec       q    Type
REMARK                         _______ _______ _______ _____ _____    ______ ____
ROOT
ATOM      1  CA  UNL     1       2.294   5.857  19.764  0.00  0.00    +0.000 C 
ENDROOT
BRANCH   1   2
ATOM      2  N   UNL     1       3.721   5.573  19.620  0.00  0.00    +0.000 N 
ATOM      3  C   UNL     1       4.149   4.477  18.907  0.00  0.00    +0.000 C 
ATOM      4  O   UNL     1       3.356   3.595  18.573  0.00  0.00    +0.000 OA
ATOM      5  H   UNL     1       4.376   6.330  19.792  0.00  0.00    +0.000 HD
BRANCH   3   6
ATOM      6  C   UNL     1       5.649   4.406  18.607  0.00  0.00    +0.000 C 
ATOM      7  C   UNL     1       6.376   5.505  19.386  0.00  0.00    +0.000 C 
ATOM      8  C   UNL     1       7.780   5.661  18.831  0.00  0.00    +0.000 C 
ATOM      9  O   UNL     1       7.744   6.121  17.478  0.00  0.00    +0.000 OA
ATOM     10  C   UNL     1       6.949   5.368  16.655  0.00  0.00    +0.000 A 
ATOM     11  C   UNL     1       7.150   5.541  15.287  0.00  0.00    +0.000 A 
ATOM     12  C   UNL     1       6.390   4.817  14.371  0.00  0.00    +0.000 A 
ATOM     13  C   UNL     1       5.444   3.902  14.825  0.00  0.00    +0.000 A 
ATOM     14  C   UNL     1       5.231   3.738  16.193  0.00  0.00    +0.000 A 
ATOM     15  C   UNL     1       5.957   4.501  17.125  0.00  0.00    +0.000 A 
ENDBRANCH   3   6
ENDBRANCH   1   2
BRANCH   1  17
ATOM     16  O   UNL     1       0.553   4.209  20.258  0.00  0.00    +0.000 OA
ATOM     17  C   UNL     1       1.634   4.708  20.537  0.00  0.00    +0.000 C 
BRANCH  17  18
ATOM     18  OXT UNL     1       2.350   4.314  21.620  0.00  0.00    +0.000 OA
ATOM     19  HXT UNL     1       1.783   3.885  22.307  0.00  0.00    +0.000 HD
ENDBRANCH  17  18
ENDBRANCH   1  17
BRANCH   1  20
ATOM     20  C   UNL     1       2.012   7.185  20.487  0.00  0.00    +0.000 C 
BRANCH  20  21
ATOM     21  C   UNL     1       1.662   8.318  19.560  0.00  0.00    +0.000 A 
ATOM     22  C   UNL     1       2.077   8.474  18.249  0.00  0.00    +0.000 A 
ATOM     23  N   UNL     1       1.533   9.631  17.756  0.00  0.00    +0.000 N 
ATOM     24  C   UNL     1       0.768  10.244  18.721  0.00  0.00    +0.000 A 
ATOM     25  C   UNL     1       0.048  11.448  18.674  0.00  0.00    +0.000 A 
ATOM     26  C   UNL     1      -0.658  11.810  19.816  0.00  0.00    +0.000 A 
ATOM     27  F   UNL     1      -1.353  12.956  19.812  0.00  0.00    +0.000 F 
ATOM     28  C   UNL     1      -0.663  11.022  20.958  0.00  0.00    +0.000 A 
ATOM     29  C   UNL     1       0.068   9.829  20.993  0.00  0.00    +0.000 A 
ATOM     30  C   UNL     1       0.810   9.433  19.859  0.00  0.00    +0.000 A 
ATOM     31  H   UNL     1       1.663   9.982  16.819  0.00  0.00    +0.000 HD
ENDBRANCH  20  21
ENDBRANCH   1  20
TORSDOF 6
ENDMDL
MODEL 8
REMARK VINA RESULT:      -8.6      2.063      3.032
REMARK  Name = 
REMARK  6 active torsions:
REMARK  status: ('A' for Active; 'I' for Inactive)
REMARK    1  A    between atoms: C_2  and  OXT_3
REMARK    2  A    between atoms: C_2  and  CA_4
REMARK    3  A    between atoms: CA_4  and  C_5
REMARK    4  A    between atoms: CA_4  and  N_16
REMARK    5  A    between atoms: C_5  and  C_6
REMARK    6  A    between atoms: C_17  and  C_19
REMARK                            x       y       z     vdW  Elec       q    Type
REMARK                         _______ _______ _______ _____ _____    ______ ____
ROOT
ATOM      1  CA  UNL     1       1.228   9.882  18.821  0.00  0.00    +0.000 C 
ENDROOT
BRANCH   1   2
ATOM      2  N   UNL     1       2.193   8.795  18.657  0.00  0.00    +0.000 N 
ATOM      3  C   UNL     1       2.230   7.751  19.551  0.00  0.00    +0.000 C 
ATOM      4  O   UNL     1       1.623   7.816  20.622  0.00  0.00    +0.000 OA
ATOM      5  H   UNL     1       2.619   8.672  17.743  0.00  0.00    +0.000 HD
BRANCH   3   6
ATOM      6  C   UNL     1       3.097   6.551  19.158  0.00  0.00    +0.000 C 
ATOM      7  C   UNL     1       3.641   6.760  17.743  0.00  0.00    +0.000 C 
ATOM      8  C   UNL     1       4.197   5.445  17.225  0.00  0.00    +0.000 C 
ATOM      9  O   UNL     1       3.158   4.473  17.089  0.00  0.00    +0.000 OA
ATOM     10  C   UNL     1       2.404   4.301  18.220  0.00  0.00    +0.000 A 
ATOM     11  C   UNL     1       1.630   3.143  18.267  0.00  0.00    +0.000 A 
ATOM     12  C   UNL     1       0.832   2.879  19.378  0.00  0.00    +0.000 A 
ATOM     13  C   UNL     1       0.826   3.765  20.453  0.00  0.00    +0.000 A 
ATOM     14  C   UNL     1       1.588   4.931  20.401  0.00  0.00    +0.000 A 
ATOM     15  C   UNL     1       2.358   5.231  19.263  0.00  0.00    +0.000 A 
ENDBRANCH   3   6
ENDBRANCH   1   2
BRANCH   1  17
ATOM     16  O   UNL     1       1.882  12.220  19.126  0.00  0.00    +0.000 OA
ATOM     17  C   UNL     1       1.903  11.207  18.443  0.00  0.00    +0.000 C 
BRANCH  17  18
ATOM     18  OXT UNL     1       2.502  11.172  17.226  0.00  0.00    +0.000 OA
ATOM     19  HXT UNL     1       3.391  11.604  17.235  0.00  0.00    +0.000 HD
ENDBRANCH  17  18
ENDBRANCH   1  17
BRANCH   1  20
ATOM     20  C   UNL     1      -0.041   9.697  17.971  0.00  0.00    +0.000 C 
BRANCH  20  21
ATOM     21  C   UNL     1      -1.120  10.704  18.265  0.00  0.00    +0.000 A 
ATOM     22  C   UNL     1      -1.998  11.267  17.355  0.00  0.00    +0.000 A 
ATOM     23  N   UNL     1      -2.826  12.128  18.026  0.00  0.00    +0.000 N 
ATOM     24  C   UNL     1      -2.508  12.146  19.364  0.00  0.00    +0.000 A 
ATOM     25  C   UNL     1      -3.067  12.888  20.416  0.00  0.00    +0.000 A 
ATOM     26  C   UNL     1      -2.543  12.680  21.688  0.00  0.00    +0.000 A 
ATOM     27  F   UNL     1      -3.047  13.374  22.718  0.00  0.00    +0.000 F 
ATOM     28  C   UNL     1      -1.515  11.777  21.920  0.00  0.00    +0.000 A 
ATOM     29  C   UNL     1      -0.961  11.052  20.859  0.00  0.00    +0.000 A 
ATOM     30  C   UNL     1      -1.456  11.245  19.551  0.00  0.00    +0.000 A 
ATOM     31  H   UNL     1      -3.570  12.666  17.607  0.00  0.00    +0.000 HD
ENDBRANCH  20  21
ENDBRANCH   1  20
TORSDOF 6
ENDMDL
MODEL 9
REMARK VINA RESULT:      -8.5      1.678      2.251
REMARK  Name = 
REMARK  6 active torsions:
REMARK  status: ('A' for Active; 'I' for Inactive)
REMARK    1  A    between atoms: C_2  and  OXT_3
REMARK    2  A    between atoms: C_2  and  CA_4
REMARK    3  A    between atoms: CA_4  and  C_5
REMARK    4  A    between atoms: CA_4  and  N_16
REMARK    5  A    between atoms: C_5  and  C_6
REMARK    6  A    between atoms: C_17  and  C_19
REMARK                            x       y       z     vdW  Elec       q    Type
REMARK                         _______ _______ _______ _____ _____    ______ ____
ROOT
ATOM      1  CA  UNL     1       0.629   9.782  19.952  0.00  0.00    +0.000 C 
ENDROOT
BRANCH   1   2
ATOM      2  N   UNL     1       1.697   8.830  19.652  0.00  0.00    +0.000 N 
ATOM      3  C   UNL     1       1.677   7.563  20.187  0.00  0.00    +0.000 C 
ATOM      4  O   UNL     1       0.899   7.276  21.098  0.00  0.00    +0.000 OA
ATOM      5  H   UNL     1       2.277   9.007  18.837  0.00  0.00    +0.000 HD
BRANCH   3   6
ATOM      6  C   UNL     1       2.697   6.571  19.620  0.00  0.00    +0.000 C 
ATOM      7  C   UNL     1       3.175   7.059  18.251  0.00  0.00    +0.000 C 
ATOM      8  C   UNL     1       3.900   5.928  17.545  0.00  0.00    +0.000 C 
ATOM      9  O   UNL     1       3.007   4.847  17.267  0.00  0.00    +0.000 OA
ATOM     10  C   UNL     1       2.311   4.406  18.361  0.00  0.00    +0.000 A 
ATOM     11  C   UNL     1       1.710   3.154  18.237  0.00  0.00    +0.000 A 
ATOM     12  C   UNL     1       0.982   2.619  19.297  0.00  0.00    +0.000 A 
ATOM     13  C   UNL     1       0.873   3.328  20.491  0.00  0.00    +0.000 A 
ATOM     14  C   UNL     1       1.460   4.587  20.611  0.00  0.00    +0.000 A 
ATOM     15  C   UNL     1       2.155   5.157  19.530  0.00  0.00    +0.000 A 
ENDBRANCH   3   6
ENDBRANCH   1   2
BRANCH   1  17
ATOM     16  O   UNL     1       1.161  10.149  22.313  0.00  0.00    +0.000 OA
ATOM     17  C   UNL     1       1.027  10.603  21.186  0.00  0.00    +0.000 C 
BRANCH  17  18
ATOM     18  OXT UNL     1       1.173  11.926  20.921  0.00  0.00    +0.000 OA
ATOM     19  HXT UNL     1       0.326  12.425  21.032  0.00  0.00    +0.000 HD
ENDBRANCH  17  18
ENDBRANCH   1  17
BRANCH   1  20
ATOM     20  C   UNL     1       0.323  10.735  18.784  0.00  0.00    +0.000 C 
BRANCH  20  21
ATOM     21  C   UNL     1      -1.113  10.704  18.336  0.00  0.00    +0.000 A 
ATOM     22  C   UNL     1      -1.640   9.962  17.293  0.00  0.00    +0.000 A 
ATOM     23  N   UNL     1      -2.986  10.210  17.220  0.00  0.00    +0.000 N 
ATOM     24  C   UNL     1      -3.356  11.107  18.196  0.00  0.00    +0.000 A 
ATOM     25  C   UNL     1      -4.613  11.663  18.481  0.00  0.00    +0.000 A 
ATOM     26  C   UNL     1      -4.688  12.541  19.557  0.00  0.00    +0.000 A 
ATOM     27  F   UNL     1      -5.870  13.097  19.858  0.00  0.00    +0.000 F 
ATOM     28  C   UNL     1      -3.577  12.859  20.325  0.00  0.00    +0.000 A 
ATOM     29  C   UNL     1      -2.329  12.304  20.021  0.00  0.00    +0.000 A 
ATOM     30  C   UNL     1      -2.208  11.419  18.928  0.00  0.00    +0.000 A 
ATOM     31  H   UNL     1      -3.620   9.792  16.556  0.00  0.00    +0.000 HD
ENDBRANCH  20  21
ENDBRANCH   1  20
TORSDOF 6
ENDMDL
