MODEL 1
REMARK VINA RESULT:      -9.6      0.000      0.000
REMARK  Name = 
REMARK  6 active torsions:
REMARK  status: ('A' for Active; 'I' for Inactive)
REMARK    1  A    between atoms: C_1  and  C_2
REMARK    2  A    between atoms: C_6  and  C_8
REMARK    3  A    between atoms: C_8  and  S_9
REMARK    4  A    between atoms: S_9  and  C_10
REMARK    5  A    between atoms: C_13  and  C_14
REMARK    6  A    between atoms: N_23  and  C_24
REMARK                            x       y       z     vdW  Elec       q    Type
REMARK                         _______ _______ _______ _____ _____    ______ ____
ROOT
ATOM      1  C   UNL     1       3.693   5.952  18.802  0.00  0.00    +0.000 A 
ATOM      2  N   UNL     1       3.985   6.773  17.820  0.00  0.00    +0.000 NA
ATOM      3  N   UNL     1       3.117   7.832  17.887  0.00  0.00    +0.000 NA
ATOM      4  C   UNL     1       2.336   7.680  18.948  0.00  0.00    +0.000 A 
ATOM      5  N   UNL     1       2.622   6.453  19.517  0.00  0.00    +0.000 N 
ENDROOT
BRANCH   4   6
ATOM      6  C   UNL     1       1.336   8.732  19.335  0.00  0.00    +0.000 A 
ATOM      7  C   UNL     1       0.837   9.591  18.377  0.00  0.00    +0.000 A 
ATOM      8  N   UNL     1      -0.054  10.434  18.972  0.00  0.00    +0.000 N 
ATOM      9  C   UNL     1      -0.065  10.225  20.331  0.00  0.00    +0.000 A 
ATOM     10  C   UNL     1      -0.739  10.946  21.328  0.00  0.00    +0.000 A 
ATOM     11  C   UNL     1      -0.549  10.560  22.656  0.00  0.00    +0.000 A 
ATOM     12  C   UNL     1       0.269   9.481  22.963  0.00  0.00    +0.000 A 
ATOM     13  C   UNL     1       0.932   8.763  21.952  0.00  0.00    +0.000 A 
ATOM     14  C   UNL     1       0.776   9.134  20.596  0.00  0.00    +0.000 A 
ATOM     15  H   UNL     1      -0.588  11.151  18.498  0.00  0.00    +0.000 HD
ENDBRANCH   4   6
BRANCH   5  16
ATOM     16  C   UNL     1       1.779   5.817  20.512  0.00  0.00    +0.000 C 
ATOM     17  C   UNL     1       2.208   4.554  21.228  0.00  0.00    +0.000 C 
ATOM     18  C   UNL     1       0.993   4.530  20.361  0.00  0.00    +0.000 C 
ENDBRANCH   5  16
BRANCH   1  19
ATOM     19  S   UNL     1       4.542   4.462  19.050  0.00  0.00    +0.000 S 
BRANCH  19  20
ATOM     20  C   UNL     1       6.245   5.085  19.221  0.00  0.00    +0.000 C 
BRANCH  20  26
ATOM     21  C   UNL     1       6.913   3.972  11.904  0.00  0.00    +0.000 C 
ATOM     22  C   UNL     1       6.930   4.345  13.331  0.00  0.00    +0.000 A 
ATOM     23  C   UNL     1       6.285   3.900  14.460  0.00  0.00    +0.000 A 
ATOM     24  C   UNL     1       6.774   4.726  15.509  0.00  0.00    +0.000 A 
ATOM     25  N   UNL     1       6.374   4.620  16.833  0.00  0.00    +0.000 N 
ATOM     26  C   UNL     1       6.819   5.444  17.853  0.00  0.00    +0.000 C 
ATOM     27  O   UNL     1       7.624   6.368  17.751  0.00  0.00    +0.000 OA
ATOM     28  N   UNL     1       7.663   5.600  15.029  0.00  0.00    +0.000 NA
ATOM     29  O   UNL     1       7.758   5.365  13.673  0.00  0.00    +0.000 OA
ATOM     30  H   UNL     1       5.672   3.922  17.037  0.00  0.00    +0.000 HD
ENDBRANCH  20  26
ENDBRANCH  19  20
ENDBRANCH   1  19
TORSDOF 5
ENDMDL
MODEL 2
REMARK VINA RESULT:      -9.1      0.999      1.679
REMARK  Name = 
REMARK  6 active torsions:
REMARK  status: ('A' for Active; 'I' for Inactive)
REMARK    1  A    between atoms: C_1  and  C_2
REMARK    2  A    between atoms: C_6  and  C_8
REMARK    3  A    between atoms: C_8  and  S_9
REMARK    4  A    between atoms: S_9  and  C_10
REMARK    5  A    between atoms: C_13  and  C_14
REMARK    6  A    between atoms: N_23  and  C_24
REMARK                            x       y       z     vdW  Elec       q    Type
REMARK                         _______ _______ _______ _____ _____    ______ ____
ROOT
ATOM      1  C   UNL     1       3.288   5.646  18.779  0.00  0.00    +0.000 A 
ATOM      2  N   UNL     1       3.577   6.625  17.954  0.00  0.00    +0.000 NA
ATOM      3  N   UNL     1       2.880   7.734  18.358  0.00  0.00    +0.000 NA
ATOM      4  C   UNL     1       2.212   7.441  19.466  0.00  0.00    +0.000 A 
ATOM      5  N   UNL     1       2.386   6.095  19.726  0.00  0.00    +0.000 N 
ENDROOT
BRANCH   4   6
ATOM      6  C   UNL     1       1.420   8.488  20.196  0.00  0.00    +0.000 A 
ATOM      7  C   UNL     1       1.386   8.484  21.576  0.00  0.00    +0.000 A 
ATOM      8  N   UNL     1       0.620   9.531  21.994  0.00  0.00    +0.000 N 
ATOM      9  C   UNL     1       0.048  10.158  20.912  0.00  0.00    +0.000 A 
ATOM     10  C   UNL     1      -0.896  11.195  20.890  0.00  0.00    +0.000 A 
ATOM     11  C   UNL     1      -1.361  11.632  19.649  0.00  0.00    +0.000 A 
ATOM     12  C   UNL     1      -0.878  11.061  18.478  0.00  0.00    +0.000 A 
ATOM     13  C   UNL     1       0.074  10.028  18.515  0.00  0.00    +0.000 A 
ATOM     14  C   UNL     1       0.557   9.548  19.755  0.00  0.00    +0.000 A 
ATOM     15  H   UNL     1       0.443   9.780  22.958  0.00  0.00    +0.000 HD
ENDBRANCH   4   6
BRANCH   5  16
ATOM     16  C   UNL     1       1.583   5.355  20.681  0.00  0.00    +0.000 C 
ATOM     17  C   UNL     1       2.100   4.100  21.354  0.00  0.00    +0.000 C 
ATOM     18  C   UNL     1       0.904   4.017  20.465  0.00  0.00    +0.000 C 
ENDBRANCH   5  16
BRANCH   1  19
ATOM     19  S   UNL     1       3.942   4.052  18.597  0.00  0.00    +0.000 S 
BRANCH  19  20
ATOM     20  C   UNL     1       5.686   4.368  19.019  0.00  0.00    +0.000 C 
BRANCH  20  26
ATOM     21  C   UNL     1       7.182   4.309  11.740  0.00  0.00    +0.000 C 
ATOM     22  C   UNL     1       7.045   4.463  13.200  0.00  0.00    +0.000 A 
ATOM     23  C   UNL     1       6.242   3.905  14.165  0.00  0.00    +0.000 A 
ATOM     24  C   UNL     1       6.645   4.527  15.380  0.00  0.00    +0.000 A 
ATOM     25  N   UNL     1       6.080   4.255  16.617  0.00  0.00    +0.000 N 
ATOM     26  C   UNL     1       6.443   4.883  17.797  0.00  0.00    +0.000 C 
ATOM     27  O   UNL     1       7.305   5.749  17.933  0.00  0.00    +0.000 OA
ATOM     28  N   UNL     1       7.634   5.393  15.145  0.00  0.00    +0.000 NA
ATOM     29  O   UNL     1       7.882   5.356  13.789  0.00  0.00    +0.000 OA
ATOM     30  H   UNL     1       5.320   3.590  16.629  0.00  0.00    +0.000 HD
ENDBRANCH  20  26
ENDBRANCH  19  20
ENDBRANCH   1  19
TORSDOF 5
ENDMDL
MODEL 3
REMARK VINA RESULT:      -8.6      4.462      9.343
REMARK  Name = 
REMARK  6 active torsions:
REMARK  status: ('A' for Active; 'I' for Inactive)
REMARK    1  A    between atoms: C_1  and  C_2
REMARK    2  A    between atoms: C_6  and  C_8
REMARK    3  A    between atoms: C_8  and  S_9
REMARK    4  A    between atoms: S_9  and  C_10
REMARK    5  A    between atoms: C_13  and  C_14
REMARK    6  A    between atoms: N_23  and  C_24
REMARK                            x       y       z     vdW  Elec       q    Type
REMARK                         _______ _______ _______ _____ _____    ______ ____
ROOT
ATOM      1  C   UNL     1       1.286   9.452  18.739  0.00  0.00    +0.000 A 
ATOM      2  N   UNL     1       2.006   9.373  17.644  0.00  0.00    +0.000 NA
ATOM      3  N   UNL     1       2.755   8.228  17.716  0.00  0.00    +0.000 NA
ATOM      4  C   UNL     1       2.445   7.581  18.831  0.00  0.00    +0.000 A 
ATOM      5  N   UNL     1       1.565   8.368  19.550  0.00  0.00    +0.000 N 
ENDROOT
BRANCH   4   6
ATOM      6  C   UNL     1       3.043   6.240  19.145  0.00  0.00    +0.000 A 
ATOM      7  C   UNL     1       4.305   5.926  18.682  0.00  0.00    +0.000 A 
ATOM      8  N   UNL     1       4.624   4.670  19.108  0.00  0.00    +0.000 N 
ATOM      9  C   UNL     1       3.546   4.102  19.745  0.00  0.00    +0.000 A 
ATOM     10  C   UNL     1       3.397   2.794  20.229  0.00  0.00    +0.000 A 
ATOM     11  C   UNL     1       2.173   2.443  20.801  0.00  0.00    +0.000 A 
ATOM     12  C   UNL     1       1.151   3.377  20.901  0.00  0.00    +0.000 A 
ATOM     13  C   UNL     1       1.318   4.688  20.419  0.00  0.00    +0.000 A 
ATOM     14  C   UNL     1       2.538   5.075  19.818  0.00  0.00    +0.000 A 
ATOM     15  H   UNL     1       5.500   4.197  18.933  0.00  0.00    +0.000 HD
ENDBRANCH   4   6
BRANCH   5  16
ATOM     16  C   UNL     1       1.232   8.128  20.942  0.00  0.00    +0.000 C 
ATOM     17  C   UNL     1      -0.049   8.653  21.555  0.00  0.00    +0.000 C 
ATOM     18  C   UNL     1       1.264   9.131  22.078  0.00  0.00    +0.000 C 
ENDBRANCH   5  16
BRANCH   1  19
ATOM     19  S   UNL     1       0.220  10.780  19.057  0.00  0.00    +0.000 S 
BRANCH  19  20
ATOM     20  C   UNL     1       1.391  11.964  19.796  0.00  0.00    +0.000 C 
BRANCH  20  26
ATOM     21  C   UNL     1      -4.199  12.951  24.592  0.00  0.00    +0.000 C 
ATOM     22  C   UNL     1      -2.997  12.922  23.737  0.00  0.00    +0.000 A 
ATOM     23  C   UNL     1      -2.578  12.160  22.674  0.00  0.00    +0.000 A 
ATOM     24  C   UNL     1      -1.297  12.678  22.336  0.00  0.00    +0.000 A 
ATOM     25  N   UNL     1      -0.506  12.186  21.307  0.00  0.00    +0.000 N 
ATOM     26  C   UNL     1       0.757  12.661  20.997  0.00  0.00    +0.000 C 
ATOM     27  O   UNL     1       1.357  13.574  21.561  0.00  0.00    +0.000 OA
ATOM     28  N   UNL     1      -0.983  13.691  23.147  0.00  0.00    +0.000 NA
ATOM     29  O   UNL     1      -2.039  13.843  24.021  0.00  0.00    +0.000 OA
ATOM     30  H   UNL     1      -0.873  11.395  20.796  0.00  0.00    +0.000 HD
ENDBRANCH  20  26
ENDBRANCH  19  20
ENDBRANCH   1  19
TORSDOF 5
ENDMDL
MODEL 4
REMARK VINA RESULT:      -8.4      2.182      3.371
REMARK  Name = 
REMARK  6 active torsions:
REMARK  status: ('A' for Active; 'I' for Inactive)
REMARK    1  A    between atoms: C_1  and  C_2
REMARK    2  A    between atoms: C_6  and  C_8
REMARK    3  A    between atoms: C_8  and  S_9
REMARK    4  A    between atoms: S_9  and  C_10
REMARK    5  A    between atoms: C_13  and  C_14
REMARK    6  A    between atoms: N_23  and  C_24
REMARK                            x       y       z     vdW  Elec       q    Type
REMARK                         _______ _______ _______ _____ _____    ______ ____
ROOT
ATOM      1  C   UNL     1       3.116   5.437  18.420  0.00  0.00    +0.000 A 
ATOM      2  N   UNL     1       3.394   6.443  17.624  0.00  0.00    +0.000 NA
ATOM      3  N   UNL     1       2.800   7.565  18.141  0.00  0.00    +0.000 NA
ATOM      4  C   UNL     1       2.209   7.248  19.286  0.00  0.00    +0.000 A 
ATOM      5  N   UNL     1       2.324   5.883  19.462  0.00  0.00    +0.000 N 
ENDROOT
BRANCH   4   6
ATOM      6  C   UNL     1       1.545   8.295  20.134  0.00  0.00    +0.000 A 
ATOM      7  C   UNL     1       1.620   8.214  21.510  0.00  0.00    +0.000 A 
ATOM      8  N   UNL     1       0.956   9.278  22.044  0.00  0.00    +0.000 N 
ATOM      9  C   UNL     1       0.340   9.997  21.047  0.00  0.00    +0.000 A 
ATOM     10  C   UNL     1      -0.537  11.087  21.159  0.00  0.00    +0.000 A 
ATOM     11  C   UNL     1      -1.071  11.620  19.985  0.00  0.00    +0.000 A 
ATOM     12  C   UNL     1      -0.720  11.091  18.750  0.00  0.00    +0.000 A 
ATOM     13  C   UNL     1       0.167  10.004  18.653  0.00  0.00    +0.000 A 
ATOM     14  C   UNL     1       0.716   9.427  19.822  0.00  0.00    +0.000 A 
ATOM     15  H   UNL     1       0.872   9.480  23.031  0.00  0.00    +0.000 HD
ENDBRANCH   4   6
BRANCH   5  16
ATOM     16  C   UNL     1       1.559   5.136  20.444  0.00  0.00    +0.000 C 
ATOM     17  C   UNL     1       2.191   4.046  21.284  0.00  0.00    +0.000 C 
ATOM     18  C   UNL     1       1.089   3.698  20.339  0.00  0.00    +0.000 C 
ENDBRANCH   5  16
BRANCH   1  19
ATOM     19  S   UNL     1       3.656   3.822  18.102  0.00  0.00    +0.000 S 
BRANCH  19  20
ATOM     20  C   UNL     1       5.073   4.165  17.009  0.00  0.00    +0.000 C 
BRANCH  20  26
ATOM     21  C   UNL     1       9.042  10.325  18.248  0.00  0.00    +0.000 C 
ATOM     22  C   UNL     1       8.380   9.010  18.149  0.00  0.00    +0.000 A 
ATOM     23  C   UNL     1       7.358   8.491  17.393  0.00  0.00    +0.000 A 
ATOM     24  C   UNL     1       7.232   7.142  17.827  0.00  0.00    +0.000 A 
ATOM     25  N   UNL     1       6.301   6.246  17.320  0.00  0.00    +0.000 N 
ATOM     26  C   UNL     1       6.149   4.943  17.763  0.00  0.00    +0.000 C 
ATOM     27  O   UNL     1       6.802   4.387  18.644  0.00  0.00    +0.000 OA
ATOM     28  N   UNL     1       8.133   6.879  18.776  0.00  0.00    +0.000 NA
ATOM     29  O   UNL     1       8.847   8.042  18.979  0.00  0.00    +0.000 OA
ATOM     30  H   UNL     1       5.667   6.603  16.618  0.00  0.00    +0.000 HD
ENDBRANCH  20  26
ENDBRANCH  19  20
ENDBRANCH   1  19
TORSDOF 5
ENDMDL
MODEL 5
REMARK VINA RESULT:      -8.3      1.200      1.265
REMARK  Name = 
REMARK  6 active torsions:
REMARK  status: ('A' for Active; 'I' for Inactive)
REMARK    1  A    between atoms: C_1  and  C_2
REMARK    2  A    between atoms: C_6  and  C_8
REMARK    3  A    between atoms: C_8  and  S_9
REMARK    4  A    between atoms: S_9  and  C_10
REMARK    5  A    between atoms: C_13  and  C_14
REMARK    6  A    between atoms: N_23  and  C_24
REMARK                            x       y       z     vdW  Elec       q    Type
REMARK                         _______ _______ _______ _____ _____    ______ ____
ROOT
ATOM      1  C   UNL     1       3.987   5.622  18.292  0.00  0.00    +0.000 A 
ATOM      2  N   UNL     1       4.496   6.562  17.530  0.00  0.00    +0.000 NA
ATOM      3  N   UNL     1       3.682   7.661  17.619  0.00  0.00    +0.000 NA
ATOM      4  C   UNL     1       2.710   7.407  18.485  0.00  0.00    +0.000 A 
ATOM      5  N   UNL     1       2.825   6.087  18.880  0.00  0.00    +0.000 N 
ENDROOT
BRANCH   4   6
ATOM      6  C   UNL     1       1.706   8.459  18.860  0.00  0.00    +0.000 A 
ATOM      7  C   UNL     1       1.201   9.303  17.891  0.00  0.00    +0.000 A 
ATOM      8  N   UNL     1       0.308  10.150  18.476  0.00  0.00    +0.000 N 
ATOM      9  C   UNL     1       0.302   9.960  19.838  0.00  0.00    +0.000 A 
ATOM     10  C   UNL     1      -0.373  10.691  20.827  0.00  0.00    +0.000 A 
ATOM     11  C   UNL     1      -0.177  10.325  22.160  0.00  0.00    +0.000 A 
ATOM     12  C   UNL     1       0.647   9.253  22.480  0.00  0.00    +0.000 A 
ATOM     13  C   UNL     1       1.309   8.524  21.477  0.00  0.00    +0.000 A 
ATOM     14  C   UNL     1       1.148   8.876  20.117  0.00  0.00    +0.000 A 
ATOM     15  H   UNL     1      -0.230  10.858  17.995  0.00  0.00    +0.000 HD
ENDBRANCH   4   6
BRANCH   5  16
ATOM     16  C   UNL     1       1.782   5.371  19.589  0.00  0.00    +0.000 C 
ATOM     17  C   UNL     1       2.000   4.821  20.984  0.00  0.00    +0.000 C 
ATOM     18  C   UNL     1       1.715   3.881  19.861  0.00  0.00    +0.000 C 
ENDBRANCH   5  16
BRANCH   1  19
ATOM     19  S   UNL     1       4.702   4.050  18.433  0.00  0.00    +0.000 S 
BRANCH  19  20
ATOM     20  C   UNL     1       6.459   4.473  18.198  0.00  0.00    +0.000 C 
BRANCH  20  26
ATOM     21  C   UNL     1       4.752   3.235  11.071  0.00  0.00    +0.000 C 
ATOM     22  C   UNL     1       5.292   3.511  12.417  0.00  0.00    +0.000 A 
ATOM     23  C   UNL     1       4.768   3.543  13.686  0.00  0.00    +0.000 A 
ATOM     24  C   UNL     1       5.863   3.893  14.524  0.00  0.00    +0.000 A 
ATOM     25  N   UNL     1       5.772   4.043  15.901  0.00  0.00    +0.000 N 
ATOM     26  C   UNL     1       6.825   4.418  16.717  0.00  0.00    +0.000 C 
ATOM     27  O   UNL     1       7.977   4.662  16.363  0.00  0.00    +0.000 OA
ATOM     28  N   UNL     1       6.969   4.049  13.792  0.00  0.00    +0.000 NA
ATOM     29  O   UNL     1       6.614   3.813  12.480  0.00  0.00    +0.000 OA
ATOM     30  H   UNL     1       4.856   3.914  16.308  0.00  0.00    +0.000 HD
ENDBRANCH  20  26
ENDBRANCH  19  20
ENDBRANCH   1  19
TORSDOF 5
ENDMDL
MODEL 6
REMARK VINA RESULT:      -8.2      1.432      2.616
REMARK  Name = 
REMARK  6 active torsions:
REMARK  status: ('A' for Active; 'I' for Inactive)
REMARK    1  A    between atoms: C_1  and  C_2
REMARK    2  A    between atoms: C_6  and  C_8
REMARK    3  A    between atoms: C_8  and  S_9
REMARK    4  A    between atoms: S_9  and  C_10
REMARK    5  A    between atoms: C_13  and  C_14
REMARK    6  A    between atoms: N_23  and  C_24
REMARK                            x       y       z     vdW  Elec       q    Type
REMARK                         _______ _______ _______ _____ _____    ______ ____
ROOT
ATOM      1  C   UNL     1       2.412   5.087  19.489  0.00  0.00    +0.000 A 
ATOM      2  N   UNL     1       1.688   4.754  20.532  0.00  0.00    +0.000 NA
ATOM      3  N   UNL     1       1.254   5.910  21.128  0.00  0.00    +0.000 NA
ATOM      4  C   UNL     1       1.667   6.945  20.409  0.00  0.00    +0.000 A 
ATOM      5  N   UNL     1       2.474   6.465  19.395  0.00  0.00    +0.000 N 
ENDROOT
BRANCH   4   6
ATOM      6  C   UNL     1       1.270   8.348  20.766  0.00  0.00    +0.000 A 
ATOM      7  C   UNL     1       1.496   8.823  22.042  0.00  0.00    +0.000 A 
ATOM      8  N   UNL     1       1.065  10.114  22.108  0.00  0.00    +0.000 N 
ATOM      9  C   UNL     1       0.447  10.465  20.931  0.00  0.00    +0.000 A 
ATOM     10  C   UNL     1      -0.240  11.646  20.614  0.00  0.00    +0.000 A 
ATOM     11  C   UNL     1      -0.827  11.743  19.351  0.00  0.00    +0.000 A 
ATOM     12  C   UNL     1      -0.707  10.702  18.439  0.00  0.00    +0.000 A 
ATOM     13  C   UNL     1      -0.008   9.527  18.769  0.00  0.00    +0.000 A 
ATOM     14  C   UNL     1       0.586   9.386  20.044  0.00  0.00    +0.000 A 
ATOM     15  H   UNL     1       1.131  10.713  22.920  0.00  0.00    +0.000 HD
ENDBRANCH   4   6
BRANCH   5  16
ATOM     16  C   UNL     1       3.334   7.311  18.588  0.00  0.00    +0.000 C 
ATOM     17  C   UNL     1       2.776   8.213  17.507  0.00  0.00    +0.000 C 
ATOM     18  C   UNL     1       3.713   7.112  17.134  0.00  0.00    +0.000 C 
ENDBRANCH   5  16
BRANCH   1  19
ATOM     19  S   UNL     1       3.180   3.910  18.476  0.00  0.00    +0.000 S 
BRANCH  19  20
ATOM     20  C   UNL     1       4.872   3.959  19.150  0.00  0.00    +0.000 C 
BRANCH  20  26
ATOM     21  C   UNL     1       7.482   4.749  12.237  0.00  0.00    +0.000 C 
ATOM     22  C   UNL     1       7.124   4.721  13.668  0.00  0.00    +0.000 A 
ATOM     23  C   UNL     1       6.160   4.093  14.417  0.00  0.00    +0.000 A 
ATOM     24  C   UNL     1       6.393   4.528  15.751  0.00  0.00    +0.000 A 
ATOM     25  N   UNL     1       5.631   4.133  16.842  0.00  0.00    +0.000 N 
ATOM     26  C   UNL     1       5.830   4.580  18.137  0.00  0.00    +0.000 C 
ATOM     27  O   UNL     1       6.694   5.369  18.517  0.00  0.00    +0.000 OA
ATOM     28  N   UNL     1       7.440   5.356  15.788  0.00  0.00    +0.000 NA
ATOM     29  O   UNL     1       7.894   5.479  14.491  0.00  0.00    +0.000 OA
ATOM     30  H   UNL     1       4.853   3.518  16.649  0.00  0.00    +0.000 HD
ENDBRANCH  20  26
ENDBRANCH  19  20
ENDBRANCH   1  19
TORSDOF 5
ENDMDL
MODEL 7
REMARK VINA RESULT:      -8.1      2.213      3.303
REMARK  Name = 
REMARK  6 active torsions:
REMARK  status: ('A' for Active; 'I' for Inactive)
REMARK    1  A    between atoms: C_1  and  C_2
REMARK    2  A    between atoms: C_6  and  C_8
REMARK    3  A    between atoms: C_8  and  S_9
REMARK    4  A    between atoms: S_9  and  C_10
REMARK    5  A    between atoms: C_13  and  C_14
REMARK    6  A    between atoms: N_23  and  C_24
REMARK                            x       y       z     vdW  Elec       q    Type
REMARK                         _______ _______ _______ _____ _____    ______ ____
ROOT
ATOM      1  C   UNL     1       3.877   5.723  17.935  0.00  0.00    +0.000 A 
ATOM      2  N   UNL     1       4.250   6.658  17.095  0.00  0.00    +0.000 NA
ATOM      3  N   UNL     1       3.427   7.739  17.276  0.00  0.00    +0.000 NA
ATOM      4  C   UNL     1       2.590   7.479  18.271  0.00  0.00    +0.000 A 
ATOM      5  N   UNL     1       2.795   6.171  18.670  0.00  0.00    +0.000 N 
ENDROOT
BRANCH   4   6
ATOM      6  C   UNL     1       1.620   8.514  18.763  0.00  0.00    +0.000 A 
ATOM      7  C   UNL     1       1.060   9.408  17.873  0.00  0.00    +0.000 A 
ATOM      8  N   UNL     1       0.211  10.227  18.556  0.00  0.00    +0.000 N 
ATOM      9  C   UNL     1       0.290   9.968  19.904  0.00  0.00    +0.000 A 
ATOM     10  C   UNL     1      -0.316  10.649  20.970  0.00  0.00    +0.000 A 
ATOM     11  C   UNL     1      -0.039  10.214  22.267  0.00  0.00    +0.000 A 
ATOM     12  C   UNL     1       0.796   9.125  22.479  0.00  0.00    +0.000 A 
ATOM     13  C   UNL     1       1.389   8.446  21.400  0.00  0.00    +0.000 A 
ATOM     14  C   UNL     1       1.145   8.868  20.072  0.00  0.00    +0.000 A 
ATOM     15  H   UNL     1      -0.351  10.961  18.146  0.00  0.00    +0.000 HD
ENDBRANCH   4   6
BRANCH   5  16
ATOM     16  C   UNL     1       1.878   5.444  19.529  0.00  0.00    +0.000 C 
ATOM     17  C   UNL     1       2.283   4.980  20.912  0.00  0.00    +0.000 C 
ATOM     18  C   UNL     1       1.922   3.969  19.875  0.00  0.00    +0.000 C 
ENDBRANCH   5  16
BRANCH   1  19
ATOM     19  S   UNL     1       4.646   4.172  18.004  0.00  0.00    +0.000 S 
BRANCH  19  20
ATOM     20  C   UNL     1       6.199   4.544  17.125  0.00  0.00    +0.000 C 
BRANCH  20  26
ATOM     21  C   UNL     1       9.202  11.232  18.341  0.00  0.00    +0.000 C 
ATOM     22  C   UNL     1       8.719   9.840  18.270  0.00  0.00    +0.000 A 
ATOM     23  C   UNL     1       7.883   9.142  17.431  0.00  0.00    +0.000 A 
ATOM     24  C   UNL     1       7.855   7.822  17.961  0.00  0.00    +0.000 A 
ATOM     25  N   UNL     1       7.117   6.781  17.414  0.00  0.00    +0.000 N 
ATOM     26  C   UNL     1       7.057   5.504  17.945  0.00  0.00    +0.000 C 
ATOM     27  O   UNL     1       7.638   5.098  18.949  0.00  0.00    +0.000 OA
ATOM     28  N   UNL     1       8.636   7.743  19.041  0.00  0.00    +0.000 NA
ATOM     29  O   UNL     1       9.172   8.999  19.236  0.00  0.00    +0.000 OA
ATOM     30  H   UNL     1       6.554   7.004  16.606  0.00  0.00    +0.000 HD
ENDBRANCH  20  26
ENDBRANCH  19  20
ENDBRANCH   1  19
TORSDOF 5
ENDMDL
MODEL 8
REMARK VINA RESULT:      -8.1      4.660      9.653
REMARK  Name = 
REMARK  6 active torsions:
REMARK  status: ('A' for Active; 'I' for Inactive)
REMARK    1  A    between atoms: C_1  and  C_2
REMARK    2  A    between atoms: C_6  and  C_8
REMARK    3  A    between atoms: C_8  and  S_9
REMARK    4  A    between atoms: S_9  and  C_10
REMARK    5  A    between atoms: C_13  and  C_14
REMARK    6  A    between atoms: N_23  and  C_24
REMARK                            x       y       z     vdW  Elec       q    Type
REMARK                         _______ _______ _______ _____ _____    ______ ____
ROOT
ATOM      1  C   UNL     1       1.226   9.603  18.689  0.00  0.00    +0.000 A 
ATOM      2  N   UNL     1       1.856   9.498  17.543  0.00  0.00    +0.000 NA
ATOM      3  N   UNL     1       2.598   8.346  17.575  0.00  0.00    +0.000 NA
ATOM      4  C   UNL     1       2.370   7.721  18.722  0.00  0.00    +0.000 A 
ATOM      5  N   UNL     1       1.557   8.529  19.494  0.00  0.00    +0.000 N 
ENDROOT
BRANCH   4   6
ATOM      6  C   UNL     1       2.978   6.379  19.011  0.00  0.00    +0.000 A 
ATOM      7  C   UNL     1       4.206   6.051  18.473  0.00  0.00    +0.000 A 
ATOM      8  N   UNL     1       4.543   4.798  18.891  0.00  0.00    +0.000 N 
ATOM      9  C   UNL     1       3.503   4.243  19.599  0.00  0.00    +0.000 A 
ATOM     10  C   UNL     1       3.377   2.940  20.105  0.00  0.00    +0.000 A 
ATOM     11  C   UNL     1       2.189   2.603  20.755  0.00  0.00    +0.000 A 
ATOM     12  C   UNL     1       1.181   3.546  20.910  0.00  0.00    +0.000 A 
ATOM     13  C   UNL     1       1.326   4.851  20.406  0.00  0.00    +0.000 A 
ATOM     14  C   UNL     1       2.508   5.224  19.726  0.00  0.00    +0.000 A 
ATOM     15  H   UNL     1       5.403   4.316  18.666  0.00  0.00    +0.000 HD
ENDBRANCH   4   6
BRANCH   5  16
ATOM     16  C   UNL     1       1.331   8.315  20.911  0.00  0.00    +0.000 C 
ATOM     17  C   UNL     1      -0.045   8.454  21.528  0.00  0.00    +0.000 C 
ATOM     18  C   UNL     1       1.050   9.370  21.964  0.00  0.00    +0.000 C 
ENDBRANCH   5  16
BRANCH   1  19
ATOM     19  S   UNL     1       0.200  10.947  19.067  0.00  0.00    +0.000 S 
BRANCH  19  20
ATOM     20  C   UNL     1      -1.242  10.556  18.024  0.00  0.00    +0.000 C 
BRANCH  20  26
ATOM     21  C   UNL     1      -4.699  14.932  22.936  0.00  0.00    +0.000 C 
ATOM     22  C   UNL     1      -4.208  14.027  21.880  0.00  0.00    +0.000 A 
ATOM     23  C   UNL     1      -2.978  13.530  21.519  0.00  0.00    +0.000 A 
ATOM     24  C   UNL     1      -3.235  12.710  20.385  0.00  0.00    +0.000 A 
ATOM     25  N   UNL     1      -2.255  12.013  19.693  0.00  0.00    +0.000 N 
ATOM     26  C   UNL     1      -2.493  11.242  18.567  0.00  0.00    +0.000 C 
ATOM     27  O   UNL     1      -3.579  11.051  18.024  0.00  0.00    +0.000 OA
ATOM     28  N   UNL     1      -4.540  12.715  20.100  0.00  0.00    +0.000 NA
ATOM     29  O   UNL     1      -5.146  13.536  21.029  0.00  0.00    +0.000 OA
ATOM     30  H   UNL     1      -1.305  12.129  20.017  0.00  0.00    +0.000 HD
ENDBRANCH  20  26
ENDBRANCH  19  20
ENDBRANCH   1  19
TORSDOF 5
ENDMDL
MODEL 9
REMARK VINA RESULT:      -8.0      1.850      1.998
REMARK  Name = 
REMARK  6 active torsions:
REMARK  status: ('A' for Active; 'I' for Inactive)
REMARK    1  A    between atoms: C_1  and  C_2
REMARK    2  A    between atoms: C_6  and  C_8
REMARK    3  A    between atoms: C_8  and  S_9
REMARK    4  A    between atoms: S_9  and  C_10
REMARK    5  A    between atoms: C_13  and  C_14
REMARK    6  A    between atoms: N_23  and  C_24
REMARK                            x       y       z     vdW  Elec       q    Type
REMARK                         _______ _______ _______ _____ _____    ______ ____
ROOT
ATOM      1  C   UNL     1       3.993   4.885  19.542  0.00  0.00    +0.000 A 
ATOM      2  N   UNL     1       4.705   5.640  18.738  0.00  0.00    +0.000 NA
ATOM      3  N   UNL     1       4.009   6.802  18.526  0.00  0.00    +0.000 NA
ATOM      4  C   UNL     1       2.898   6.774  19.251  0.00  0.00    +0.000 A 
ATOM      5  N   UNL     1       2.814   5.535  19.856  0.00  0.00    +0.000 N 
ENDROOT
BRANCH   4   6
ATOM      6  C   UNL     1       1.968   7.953  19.294  0.00  0.00    +0.000 A 
ATOM      7  C   UNL     1       1.727   8.679  18.146  0.00  0.00    +0.000 A 
ATOM      8  N   UNL     1       0.847   9.678  18.442  0.00  0.00    +0.000 N 
ATOM      9  C   UNL     1       0.595   9.698  19.793  0.00  0.00    +0.000 A 
ATOM     10  C   UNL     1      -0.151  10.625  20.537  0.00  0.00    +0.000 A 
ATOM     11  C   UNL     1      -0.220  10.450  21.920  0.00  0.00    +0.000 A 
ATOM     12  C   UNL     1       0.416   9.373  22.524  0.00  0.00    +0.000 A 
ATOM     13  C   UNL     1       1.152   8.447  21.764  0.00  0.00    +0.000 A 
ATOM     14  C   UNL     1       1.258   8.601  20.362  0.00  0.00    +0.000 A 
ATOM     15  H   UNL     1       0.478  10.348  17.780  0.00  0.00    +0.000 HD
ENDBRANCH   4   6
BRANCH   5  16
ATOM     16  C   UNL     1       1.608   5.033  20.488  0.00  0.00    +0.000 C 
ATOM     17  C   UNL     1       1.607   3.757  21.303  0.00  0.00    +0.000 C 
ATOM     18  C   UNL     1       0.780   3.837  20.063  0.00  0.00    +0.000 C 
ENDBRANCH   5  16
BRANCH   1  19
ATOM     19  S   UNL     1       4.508   3.306  20.034  0.00  0.00    +0.000 S 
BRANCH  19  20
ATOM     20  C   UNL     1       3.736   2.294  18.729  0.00  0.00    +0.000 C 
BRANCH  20  26
ATOM     21  C   UNL     1       7.859   5.276  13.312  0.00  0.00    +0.000 C 
ATOM     22  C   UNL     1       6.871   4.748  14.273  0.00  0.00    +0.000 A 
ATOM     23  C   UNL     1       6.941   4.108  15.486  0.00  0.00    +0.000 A 
ATOM     24  C   UNL     1       5.587   3.875  15.854  0.00  0.00    +0.000 A 
ATOM     25  N   UNL     1       5.198   3.238  17.024  0.00  0.00    +0.000 N 
ATOM     26  C   UNL     1       3.884   2.976  17.371  0.00  0.00    +0.000 C 
ATOM     27  O   UNL     1       2.881   3.266  16.721  0.00  0.00    +0.000 OA
ATOM     28  N   UNL     1       4.767   4.358  14.918  0.00  0.00    +0.000 NA
ATOM     29  O   UNL     1       5.565   4.900  13.932  0.00  0.00    +0.000 OA
ATOM     30  H   UNL     1       5.940   2.905  17.624  0.00  0.00    +0.000 HD
ENDBRANCH  20  26
ENDBRANCH  19  20
ENDBRANCH   1  19
TORSDOF 5
ENDMDL
