MODEL 1
REMARK VINA RESULT:      -8.0      0.000      0.000
REMARK  Name = 
REMARK  5 active torsions:
REMARK  status: ('A' for Active; 'I' for Inactive)
REMARK    1  A    between atoms: C_1  and  C_2
REMARK    2  A    between atoms: N_4  and  C_5
REMARK    3  A    between atoms: C_7  and  C_8
REMARK    4  A    between atoms: C_12  and  N_13
REMARK    5  A    between atoms: C_14  and  C_16
REMARK                            x       y       z     vdW  Elec       q    Type
REMARK                         _______ _______ _______ _____ _____    ______ ____
ROOT
ATOM      1  N   UNL     1       2.491   6.417  18.616  0.00  0.00    +0.000 N 
ATOM      2  C   UNL     1       1.999   6.898  19.810  0.00  0.00    +0.000 C 
ATOM      3  O   UNL     1       1.939   6.238  20.839  0.00  0.00    +0.000 OA
ATOM      4  H   UNL     1       2.542   7.026  17.810  0.00  0.00    +0.000 HD
ENDROOT
BRANCH   2   5
ATOM      5  C   UNL     1       1.567   8.323  19.803  0.00  0.00    +0.000 A 
ATOM      6  C   UNL     1       1.622   9.043  18.609  0.00  0.00    +0.000 A 
ATOM      7  C   UNL     1       1.165  10.363  18.578  0.00  0.00    +0.000 A 
ATOM      8  C   UNL     1       0.654  10.978  19.716  0.00  0.00    +0.000 A 
ATOM      9  N   UNL     1       0.187  12.240  19.649  0.00  0.00    +0.000 NA
ATOM     10  C   UNL     1      -0.301  12.762  20.795  0.00  0.00    +0.000 A 
ATOM     11  C   UNL     1      -0.317  12.054  21.980  0.00  0.00    +0.000 A 
ATOM     12  N   UNL     1       0.149  10.791  22.069  0.00  0.00    +0.000 NA
ATOM     13  C   UNL     1       0.631  10.251  20.934  0.00  0.00    +0.000 A 
ATOM     14  C   UNL     1       1.099   8.947  20.963  0.00  0.00    +0.000 A 
ENDBRANCH   2   5
BRANCH   1  19
ATOM     15  C   UNL     1       3.868   4.807  17.253  0.00  0.00    +0.000 C 
ATOM     16  O   UNL     1       3.549   3.500  16.718  0.00  0.00    +0.000 OA
ATOM     17  C   UNL     1       2.469   2.949  17.480  0.00  0.00    +0.000 C 
ATOM     18  C   UNL     1       1.772   4.116  18.136  0.00  0.00    +0.000 C 
ATOM     19  C   UNL     1       2.932   5.038  18.458  0.00  0.00    +0.000 C 
BRANCH  15  26
ATOM     20  C   UNL     1       6.472   4.159  15.362  0.00  0.00    +0.000 C 
ATOM     21  C   UNL     1       6.447   4.648  16.764  0.00  0.00    +0.000 A 
ATOM     22  N   UNL     1       7.601   4.865  17.405  0.00  0.00    +0.000 NA
ATOM     23  N   UNL     1       7.227   5.272  18.627  0.00  0.00    +0.000 N 
ATOM     24  C   UNL     1       8.221   5.583  19.625  0.00  0.00    +0.000 C 
ATOM     25  C   UNL     1       5.878   5.337  18.786  0.00  0.00    +0.000 A 
ATOM     26  C   UNL     1       5.319   4.932  17.589  0.00  0.00    +0.000 A 
ENDBRANCH  15  26
ENDBRANCH   1  19
TORSDOF 3
ENDMDL
MODEL 2
REMARK VINA RESULT:      -7.7      1.518      2.288
REMARK  Name = 
REMARK  5 active torsions:
REMARK  status: ('A' for Active; 'I' for Inactive)
REMARK    1  A    between atoms: C_1  and  C_2
REMARK    2  A    between atoms: N_4  and  C_5
REMARK    3  A    between atoms: C_7  and  C_8
REMARK    4  A    between atoms: C_12  and  N_13
REMARK    5  A    between atoms: C_14  and  C_16
REMARK                            x       y       z     vdW  Elec       q    Type
REMARK                         _______ _______ _______ _____ _____    ______ ____
ROOT
ATOM      1  N   UNL     1       3.830   5.822  19.152  0.00  0.00    +0.000 N 
ATOM      2  C   UNL     1       2.629   6.156  18.564  0.00  0.00    +0.000 C 
ATOM      3  O   UNL     1       1.952   5.377  17.906  0.00  0.00    +0.000 OA
ATOM      4  H   UNL     1       4.325   6.504  19.709  0.00  0.00    +0.000 HD
ENDROOT
BRANCH   2   5
ATOM      5  C   UNL     1       2.156   7.546  18.808  0.00  0.00    +0.000 A 
ATOM      6  C   UNL     1       2.179   8.465  17.758  0.00  0.00    +0.000 A 
ATOM      7  C   UNL     1       1.683   9.756  17.961  0.00  0.00    +0.000 A 
ATOM      8  C   UNL     1       1.165  10.146  19.190  0.00  0.00    +0.000 A 
ATOM      9  N   UNL     1       0.661  11.386  19.347  0.00  0.00    +0.000 NA
ATOM     10  C   UNL     1       0.169  11.685  20.569  0.00  0.00    +0.000 A 
ATOM     11  C   UNL     1       0.185  10.780  21.612  0.00  0.00    +0.000 A 
ATOM     12  N   UNL     1       0.689   9.536  21.477  0.00  0.00    +0.000 NA
ATOM     13  C   UNL     1       1.175   9.217  20.263  0.00  0.00    +0.000 A 
ATOM     14  C   UNL     1       1.681   7.944  20.061  0.00  0.00    +0.000 A 
ENDBRANCH   2   5
BRANCH   1  19
ATOM     15  C   UNL     1       4.288   3.916  17.569  0.00  0.00    +0.000 C 
ATOM     16  O   UNL     1       4.113   2.488  17.725  0.00  0.00    +0.000 OA
ATOM     17  C   UNL     1       4.101   2.183  19.124  0.00  0.00    +0.000 C 
ATOM     18  C   UNL     1       3.738   3.463  19.836  0.00  0.00    +0.000 C 
ATOM     19  C   UNL     1       4.435   4.507  18.987  0.00  0.00    +0.000 C 
BRANCH  15  26
ATOM     20  C   UNL     1       7.340   4.829  18.365  0.00  0.00    +0.000 C 
ATOM     21  C   UNL     1       6.755   4.638  17.014  0.00  0.00    +0.000 A 
ATOM     22  N   UNL     1       7.512   4.861  15.933  0.00  0.00    +0.000 NA
ATOM     23  N   UNL     1       6.690   4.621  14.900  0.00  0.00    +0.000 N 
ATOM     24  C   UNL     1       7.159   4.784  13.546  0.00  0.00    +0.000 C 
ATOM     25  C   UNL     1       5.441   4.241  15.281  0.00  0.00    +0.000 A 
ATOM     26  C   UNL     1       5.431   4.241  16.663  0.00  0.00    +0.000 A 
ENDBRANCH  15  26
ENDBRANCH   1  19
TORSDOF 3
ENDMDL
MODEL 3
REMARK VINA RESULT:      -7.6      0.793      1.524
REMARK  Name = 
REMARK  5 active torsions:
REMARK  status: ('A' for Active; 'I' for Inactive)
REMARK    1  A    between atoms: C_1  and  C_2
REMARK    2  A    between atoms: N_4  and  C_5
REMARK    3  A    between atoms: C_7  and  C_8
REMARK    4  A    between atoms: C_12  and  N_13
REMARK    5  A    between atoms: C_14  and  C_16
REMARK                            x       y       z     vdW  Elec       q    Type
REMARK                         _______ _______ _______ _____ _____    ______ ____
ROOT
ATOM      1  N   UNL     1       2.517   6.327  18.959  0.00  0.00    +0.000 N 
ATOM      2  C   UNL     1       1.984   6.575  20.206  0.00  0.00    +0.000 C 
ATOM      3  O   UNL     1       1.896   5.733  21.090  0.00  0.00    +0.000 OA
ATOM      4  H   UNL     1       2.590   7.075  18.284  0.00  0.00    +0.000 HD
ENDROOT
BRANCH   2   5
ATOM      5  C   UNL     1       1.542   7.975  20.451  0.00  0.00    +0.000 A 
ATOM      6  C   UNL     1       1.187   8.357  21.745  0.00  0.00    +0.000 A 
ATOM      7  C   UNL     1       0.827   9.684  21.998  0.00  0.00    +0.000 A 
ATOM      8  C   UNL     1       0.813  10.635  20.984  0.00  0.00    +0.000 A 
ATOM      9  N   UNL     1       0.496  11.914  21.263  0.00  0.00    +0.000 NA
ATOM     10  C   UNL     1       0.514  12.778  20.224  0.00  0.00    +0.000 A 
ATOM     11  C   UNL     1       0.831  12.382  18.941  0.00  0.00    +0.000 A 
ATOM     12  N   UNL     1       1.148  11.105  18.640  0.00  0.00    +0.000 NA
ATOM     13  C   UNL     1       1.143  10.232  19.664  0.00  0.00    +0.000 A 
ATOM     14  C   UNL     1       1.486   8.913  19.416  0.00  0.00    +0.000 A 
ENDBRANCH   2   5
BRANCH   1  19
ATOM     15  C   UNL     1       3.918   4.998  17.340  0.00  0.00    +0.000 C 
ATOM     16  O   UNL     1       3.615   3.806  16.578  0.00  0.00    +0.000 OA
ATOM     17  C   UNL     1       2.537   3.117  17.222  0.00  0.00    +0.000 C 
ATOM     18  C   UNL     1       1.825   4.142  18.071  0.00  0.00    +0.000 C 
ATOM     19  C   UNL     1       2.973   5.002  18.560  0.00  0.00    +0.000 C 
BRANCH  15  26
ATOM     20  C   UNL     1       6.536   4.399  15.453  0.00  0.00    +0.000 C 
ATOM     21  C   UNL     1       6.500   4.813  16.879  0.00  0.00    +0.000 A 
ATOM     22  N   UNL     1       7.648   4.970  17.546  0.00  0.00    +0.000 NA
ATOM     23  N   UNL     1       7.264   5.319  18.784  0.00  0.00    +0.000 N 
ATOM     24  C   UNL     1       8.250   5.554  19.811  0.00  0.00    +0.000 C 
ATOM     25  C   UNL     1       5.914   5.403  18.927  0.00  0.00    +0.000 A 
ATOM     26  C   UNL     1       5.365   5.075  17.702  0.00  0.00    +0.000 A 
ENDBRANCH  15  26
ENDBRANCH   1  19
TORSDOF 3
ENDMDL
MODEL 4
REMARK VINA RESULT:      -7.4      2.640      8.492
REMARK  Name = 
REMARK  5 active torsions:
REMARK  status: ('A' for Active; 'I' for Inactive)
REMARK    1  A    between atoms: C_1  and  C_2
REMARK    2  A    between atoms: N_4  and  C_5
REMARK    3  A    between atoms: C_7  and  C_8
REMARK    4  A    between atoms: C_12  and  N_13
REMARK    5  A    between atoms: C_14  and  C_16
REMARK                            x       y       z     vdW  Elec       q    Type
REMARK                         _______ _______ _______ _____ _____    ______ ____
ROOT
ATOM      1  N   UNL     1       0.495   9.532  18.913  0.00  0.00    +0.000 N 
ATOM      2  C   UNL     1       1.679   9.288  18.250  0.00  0.00    +0.000 C 
ATOM      3  O   UNL     1       2.196  10.072  17.465  0.00  0.00    +0.000 OA
ATOM      4  H   UNL     1       0.139   8.855  19.573  0.00  0.00    +0.000 HD
ENDROOT
BRANCH   2   5
ATOM      5  C   UNL     1       2.346   7.997  18.574  0.00  0.00    +0.000 A 
ATOM      6  C   UNL     1       2.040   7.358  19.776  0.00  0.00    +0.000 A 
ATOM      7  C   UNL     1       2.616   6.118  20.065  0.00  0.00    +0.000 A 
ATOM      8  C   UNL     1       3.492   5.504  19.176  0.00  0.00    +0.000 A 
ATOM      9  N   UNL     1       4.005   4.292  19.463  0.00  0.00    +0.000 NA
ATOM     10  C   UNL     1       4.841   3.760  18.545  0.00  0.00    +0.000 A 
ATOM     11  C   UNL     1       5.166   4.416  17.376  0.00  0.00    +0.000 A 
ATOM     12  N   UNL     1       4.667   5.633  17.071  0.00  0.00    +0.000 NA
ATOM     13  C   UNL     1       3.824   6.174  17.971  0.00  0.00    +0.000 A 
ATOM     14  C   UNL     1       3.262   7.410  17.696  0.00  0.00    +0.000 A 
ENDBRANCH   2   5
BRANCH   1  19
ATOM     15  C   UNL     1      -0.900  11.347  19.966  0.00  0.00    +0.000 C 
ATOM     16  O   UNL     1      -2.190  11.888  19.597  0.00  0.00    +0.000 OA
ATOM     17  C   UNL     1      -2.416  11.617  18.209  0.00  0.00    +0.000 C 
ATOM     18  C   UNL     1      -1.519  10.458  17.850  0.00  0.00    +0.000 C 
ATOM     19  C   UNL     1      -0.286  10.740  18.686  0.00  0.00    +0.000 C 
BRANCH  15  26
ATOM     20  C   UNL     1      -1.261  12.767  22.903  0.00  0.00    +0.000 C 
ATOM     21  C   UNL     1      -0.194  12.988  21.895  0.00  0.00    +0.000 A 
ATOM     22  N   UNL     1       0.774  13.877  22.147  0.00  0.00    +0.000 NA
ATOM     23  N   UNL     1       1.543  13.846  21.049  0.00  0.00    +0.000 N 
ATOM     24  C   UNL     1       2.696  14.707  20.944  0.00  0.00    +0.000 C 
ATOM     25  C   UNL     1       1.112  12.960  20.111  0.00  0.00    +0.000 A 
ATOM     26  C   UNL     1      -0.032  12.373  20.619  0.00  0.00    +0.000 A 
ENDBRANCH  15  26
ENDBRANCH   1  19
TORSDOF 3
ENDMDL
MODEL 5
REMARK VINA RESULT:      -7.4      2.374      8.121
REMARK  Name = 
REMARK  5 active torsions:
REMARK  status: ('A' for Active; 'I' for Inactive)
REMARK    1  A    between atoms: C_1  and  C_2
REMARK    2  A    between atoms: N_4  and  C_5
REMARK    3  A    between atoms: C_7  and  C_8
REMARK    4  A    between atoms: C_12  and  N_13
REMARK    5  A    between atoms: C_14  and  C_16
REMARK                            x       y       z     vdW  Elec       q    Type
REMARK                         _______ _______ _______ _____ _____    ______ ____
ROOT
ATOM      1  N   UNL     1       1.410   8.524  20.265  0.00  0.00    +0.000 N 
ATOM      2  C   UNL     1       1.737   8.412  18.931  0.00  0.00    +0.000 C 
ATOM      3  O   UNL     1       1.263   9.118  18.051  0.00  0.00    +0.000 OA
ATOM      4  H   UNL     1       1.862   7.930  20.946  0.00  0.00    +0.000 HD
ENDROOT
BRANCH   2   5
ATOM      5  C   UNL     1       2.762   7.383  18.602  0.00  0.00    +0.000 A 
ATOM      6  C   UNL     1       2.909   6.279  19.442  0.00  0.00    +0.000 A 
ATOM      7  C   UNL     1       3.828   5.279  19.111  0.00  0.00    +0.000 A 
ATOM      8  C   UNL     1       4.602   5.361  17.960  0.00  0.00    +0.000 A 
ATOM      9  N   UNL     1       5.454   4.365  17.647  0.00  0.00    +0.000 NA
ATOM     10  C   UNL     1       6.163   4.516  16.507  0.00  0.00    +0.000 A 
ATOM     11  C   UNL     1       6.037   5.629  15.702  0.00  0.00    +0.000 A 
ATOM     12  N   UNL     1       5.193   6.640  15.999  0.00  0.00    +0.000 NA
ATOM     13  C   UNL     1       4.471   6.502  17.127  0.00  0.00    +0.000 A 
ATOM     14  C   UNL     1       3.569   7.498  17.466  0.00  0.00    +0.000 A 
ENDBRANCH   2   5
BRANCH   1  19
ATOM     15  C   UNL     1       0.988  10.813  21.229  0.00  0.00    +0.000 C 
ATOM     16  O   UNL     1       0.179  11.237  22.351  0.00  0.00    +0.000 OA
ATOM     17  C   UNL     1      -0.812  10.234  22.601  0.00  0.00    +0.000 C 
ATOM     18  C   UNL     1      -0.290   8.958  21.987  0.00  0.00    +0.000 C 
ATOM     19  C   UNL     1       0.408   9.468  20.742  0.00  0.00    +0.000 C 
BRANCH  15  26
ATOM     20  C   UNL     1      -1.338  11.712  19.094  0.00  0.00    +0.000 C 
ATOM     21  C   UNL     1       0.041  12.245  19.238  0.00  0.00    +0.000 A 
ATOM     22  N   UNL     1       0.460  13.213  18.414  0.00  0.00    +0.000 NA
ATOM     23  N   UNL     1       1.726  13.442  18.794  0.00  0.00    +0.000 N 
ATOM     24  C   UNL     1       2.524  14.425  18.103  0.00  0.00    +0.000 C 
ATOM     25  C   UNL     1       2.126  12.667  19.837  0.00  0.00    +0.000 A 
ATOM     26  C   UNL     1       1.054  11.859  20.164  0.00  0.00    +0.000 A 
ENDBRANCH  15  26
ENDBRANCH   1  19
TORSDOF 3
ENDMDL
MODEL 6
REMARK VINA RESULT:      -7.4      2.715      8.038
REMARK  Name = 
REMARK  5 active torsions:
REMARK  status: ('A' for Active; 'I' for Inactive)
REMARK    1  A    between atoms: C_1  and  C_2
REMARK    2  A    between atoms: N_4  and  C_5
REMARK    3  A    between atoms: C_7  and  C_8
REMARK    4  A    between atoms: C_12  and  N_13
REMARK    5  A    between atoms: C_14  and  C_16
REMARK                            x       y       z     vdW  Elec       q    Type
REMARK                         _______ _______ _______ _____ _____    ______ ____
ROOT
ATOM      1  N   UNL     1       0.641   9.073  18.290  0.00  0.00    +0.000 N 
ATOM      2  C   UNL     1       1.963   9.049  17.901  0.00  0.00    +0.000 C 
ATOM      3  O   UNL     1       2.569  10.027  17.482  0.00  0.00    +0.000 OA
ATOM      4  H   UNL     1       0.209   8.236  18.658  0.00  0.00    +0.000 HD
ENDROOT
BRANCH   2   5
ATOM      5  C   UNL     1       2.659   7.743  18.058  0.00  0.00    +0.000 A 
ATOM      6  C   UNL     1       3.821   7.500  17.326  0.00  0.00    +0.000 A 
ATOM      7  C   UNL     1       4.514   6.300  17.509  0.00  0.00    +0.000 A 
ATOM      8  C   UNL     1       4.068   5.338  18.407  0.00  0.00    +0.000 A 
ATOM      9  N   UNL     1       4.775   4.206  18.590  0.00  0.00    +0.000 NA
ATOM     10  C   UNL     1       4.279   3.325  19.487  0.00  0.00    +0.000 A 
ATOM     11  C   UNL     1       3.109   3.558  20.179  0.00  0.00    +0.000 A 
ATOM     12  N   UNL     1       2.383   4.683  20.008  0.00  0.00    +0.000 NA
ATOM     13  C   UNL     1       2.867   5.576  19.124  0.00  0.00    +0.000 A 
ATOM     14  C   UNL     1       2.177   6.761  18.929  0.00  0.00    +0.000 A 
ENDBRANCH   2   5
BRANCH   1  19
ATOM     15  C   UNL     1      -0.697  10.814  19.525  0.00  0.00    +0.000 C 
ATOM     16  O   UNL     1      -2.024  11.340  19.285  0.00  0.00    +0.000 OA
ATOM     17  C   UNL     1      -2.358  11.116  17.911  0.00  0.00    +0.000 C 
ATOM     18  C   UNL     1      -1.471   9.993  17.434  0.00  0.00    +0.000 C 
ATOM     19  C   UNL     1      -0.179  10.271  18.176  0.00  0.00    +0.000 C 
BRANCH  15  26
ATOM     20  C   UNL     1      -0.912  12.204  22.492  0.00  0.00    +0.000 C 
ATOM     21  C   UNL     1       0.104  12.436  21.434  0.00  0.00    +0.000 A 
ATOM     22  N   UNL     1       1.083  13.323  21.647  0.00  0.00    +0.000 NA
ATOM     23  N   UNL     1       1.797  13.304  20.512  0.00  0.00    +0.000 N 
ATOM     24  C   UNL     1       2.943  14.167  20.359  0.00  0.00    +0.000 C 
ATOM     25  C   UNL     1       1.319  12.428  19.587  0.00  0.00    +0.000 A 
ATOM     26  C   UNL     1       0.202  11.834  20.145  0.00  0.00    +0.000 A 
ENDBRANCH  15  26
ENDBRANCH   1  19
TORSDOF 3
ENDMDL
MODEL 7
REMARK VINA RESULT:      -7.3      2.459      8.172
REMARK  Name = 
REMARK  5 active torsions:
REMARK  status: ('A' for Active; 'I' for Inactive)
REMARK    1  A    between atoms: C_1  and  C_2
REMARK    2  A    between atoms: N_4  and  C_5
REMARK    3  A    between atoms: C_7  and  C_8
REMARK    4  A    between atoms: C_12  and  N_13
REMARK    5  A    between atoms: C_14  and  C_16
REMARK                            x       y       z     vdW  Elec       q    Type
REMARK                         _______ _______ _______ _____ _____    ______ ____
ROOT
ATOM      1  N   UNL     1       1.048   8.819  20.547  0.00  0.00    +0.000 N 
ATOM      2  C   UNL     1       1.327   8.803  19.197  0.00  0.00    +0.000 C 
ATOM      3  O   UNL     1       0.833   9.579  18.389  0.00  0.00    +0.000 OA
ATOM      4  H   UNL     1       1.515   8.171  21.166  0.00  0.00    +0.000 HD
ENDROOT
BRANCH   2   5
ATOM      5  C   UNL     1       2.325   7.790  18.757  0.00  0.00    +0.000 A 
ATOM      6  C   UNL     1       3.120   8.060  17.643  0.00  0.00    +0.000 A 
ATOM      7  C   UNL     1       4.100   7.142  17.255  0.00  0.00    +0.000 A 
ATOM      8  C   UNL     1       4.299   5.959  17.958  0.00  0.00    +0.000 A 
ATOM      9  N   UNL     1       5.274   5.108  17.584  0.00  0.00    +0.000 NA
ATOM     10  C   UNL     1       5.409   3.985  18.323  0.00  0.00    +0.000 A 
ATOM     11  C   UNL     1       4.593   3.709  19.401  0.00  0.00    +0.000 A 
ATOM     12  N   UNL     1       3.608   4.546  19.790  0.00  0.00    +0.000 NA
ATOM     13  C   UNL     1       3.465   5.675  19.070  0.00  0.00    +0.000 A 
ATOM     14  C   UNL     1       2.486   6.582  19.441  0.00  0.00    +0.000 A 
ENDBRANCH   2   5
BRANCH   1  19
ATOM     15  C   UNL     1       0.685  11.060  21.639  0.00  0.00    +0.000 C 
ATOM     16  O   UNL     1      -0.053  11.430  22.828  0.00  0.00    +0.000 OA
ATOM     17  C   UNL     1      -1.026  10.413  23.092  0.00  0.00    +0.000 C 
ATOM     18  C   UNL     1      -0.543   9.168  22.388  0.00  0.00    +0.000 C 
ATOM     19  C   UNL     1       0.077   9.738  21.127  0.00  0.00    +0.000 C 
BRANCH  15  26
ATOM     20  C   UNL     1      -1.841  12.255  19.916  0.00  0.00    +0.000 C 
ATOM     21  C   UNL     1      -0.416  12.669  19.874  0.00  0.00    +0.000 A 
ATOM     22  N   UNL     1      -0.040  13.644  19.039  0.00  0.00    +0.000 NA
ATOM     23  N   UNL     1       1.283  13.752  19.234  0.00  0.00    +0.000 N 
ATOM     24  C   UNL     1       2.054  14.706  18.475  0.00  0.00    +0.000 C 
ATOM     25  C   UNL     1       1.764  12.893  20.172  0.00  0.00    +0.000 A 
ATOM     26  C   UNL     1       0.684  12.154  20.621  0.00  0.00    +0.000 A 
ENDBRANCH  15  26
ENDBRANCH   1  19
TORSDOF 3
ENDMDL
MODEL 8
REMARK VINA RESULT:      -7.3      2.255      7.816
REMARK  Name = 
REMARK  5 active torsions:
REMARK  status: ('A' for Active; 'I' for Inactive)
REMARK    1  A    between atoms: C_1  and  C_2
REMARK    2  A    between atoms: N_4  and  C_5
REMARK    3  A    between atoms: C_7  and  C_8
REMARK    4  A    between atoms: C_12  and  N_13
REMARK    5  A    between atoms: C_14  and  C_16
REMARK                            x       y       z     vdW  Elec       q    Type
REMARK                         _______ _______ _______ _____ _____    ______ ____
ROOT
ATOM      1  N   UNL     1       3.025   4.790  17.792  0.00  0.00    +0.000 N 
ATOM      2  C   UNL     1       4.368   4.556  17.998  0.00  0.00    +0.000 C 
ATOM      3  O   UNL     1       4.836   4.160  19.057  0.00  0.00    +0.000 OA
ATOM      4  H   UNL     1       2.699   5.086  16.882  0.00  0.00    +0.000 HD
ENDROOT
BRANCH   2   5
ATOM      5  C   UNL     1       5.249   4.775  16.819  0.00  0.00    +0.000 A 
ATOM      6  C   UNL     1       6.347   5.628  16.942  0.00  0.00    +0.000 A 
ATOM      7  C   UNL     1       7.214   5.796  15.859  0.00  0.00    +0.000 A 
ATOM      8  C   UNL     1       7.006   5.130  14.656  0.00  0.00    +0.000 A 
ATOM      9  N   UNL     1       7.878   5.282  13.641  0.00  0.00    +0.000 NA
ATOM     10  C   UNL     1       7.610   4.595  12.509  0.00  0.00    +0.000 A 
ATOM     11  C   UNL     1       6.501   3.783  12.385  0.00  0.00    +0.000 A 
ATOM     12  N   UNL     1       5.613   3.619  13.389  0.00  0.00    +0.000 NA
ATOM     13  C   UNL     1       5.870   4.290  14.527  0.00  0.00    +0.000 A 
ATOM     14  C   UNL     1       5.005   4.138  15.599  0.00  0.00    +0.000 A 
ENDBRANCH   2   5
BRANCH   1  19
ATOM     15  C   UNL     1       2.403   5.375  20.162  0.00  0.00    +0.000 C 
ATOM     16  O   UNL     1       1.932   4.548  21.253  0.00  0.00    +0.000 OA
ATOM     17  C   UNL     1       1.354   3.359  20.703  0.00  0.00    +0.000 C 
ATOM     18  C   UNL     1       1.937   3.202  19.321  0.00  0.00    +0.000 C 
ATOM     19  C   UNL     1       2.040   4.641  18.854  0.00  0.00    +0.000 C 
BRANCH  15  26
ATOM     20  C   UNL     1       2.826   7.865  18.065  0.00  0.00    +0.000 C 
ATOM     21  C   UNL     1       2.045   7.843  19.328  0.00  0.00    +0.000 A 
ATOM     22  N   UNL     1       1.415   8.953  19.730  0.00  0.00    +0.000 NA
ATOM     23  N   UNL     1       0.837   8.601  20.888  0.00  0.00    +0.000 N 
ATOM     24  C   UNL     1       0.074   9.566  21.641  0.00  0.00    +0.000 C 
ATOM     25  C   UNL     1       1.064   7.305  21.235  0.00  0.00    +0.000 A 
ATOM     26  C   UNL     1       1.858   6.764  20.241  0.00  0.00    +0.000 A 
ENDBRANCH  15  26
ENDBRANCH   1  19
TORSDOF 3
ENDMDL
MODEL 9
REMARK VINA RESULT:      -7.3      1.460      1.990
REMARK  Name = 
REMARK  5 active torsions:
REMARK  status: ('A' for Active; 'I' for Inactive)
REMARK    1  A    between atoms: C_1  and  C_2
REMARK    2  A    between atoms: N_4  and  C_5
REMARK    3  A    between atoms: C_7  and  C_8
REMARK    4  A    between atoms: C_12  and  N_13
REMARK    5  A    between atoms: C_14  and  C_16
REMARK                            x       y       z     vdW  Elec       q    Type
REMARK                         _______ _______ _______ _____ _____    ______ ____
ROOT
ATOM      1  N   UNL     1       1.343   5.565  19.673  0.00  0.00    +0.000 N 
ATOM      2  C   UNL     1       2.207   6.600  19.957  0.00  0.00    +0.000 C 
ATOM      3  O   UNL     1       3.426   6.489  19.963  0.00  0.00    +0.000 OA
ATOM      4  H   UNL     1       0.346   5.732  19.654  0.00  0.00    +0.000 HD
ENDROOT
BRANCH   2   5
ATOM      5  C   UNL     1       1.570   7.918  20.226  0.00  0.00    +0.000 A 
ATOM      6  C   UNL     1       1.548   8.880  19.217  0.00  0.00    +0.000 A 
ATOM      7  C   UNL     1       0.901  10.099  19.439  0.00  0.00    +0.000 A 
ATOM      8  C   UNL     1       0.276  10.375  20.650  0.00  0.00    +0.000 A 
ATOM      9  N   UNL     1      -0.371  11.544  20.824  0.00  0.00    +0.000 NA
ATOM     10  C   UNL     1      -0.959  11.732  22.026  0.00  0.00    +0.000 A 
ATOM     11  C   UNL     1      -0.901  10.789  23.031  0.00  0.00    +0.000 A 
ATOM     12  N   UNL     1      -0.255   9.614  22.878  0.00  0.00    +0.000 NA
ATOM     13  C   UNL     1       0.330   9.405  21.684  0.00  0.00    +0.000 A 
ATOM     14  C   UNL     1       0.985   8.204  21.464  0.00  0.00    +0.000 A 
ENDBRANCH   2   5
BRANCH   1  19
ATOM     15  C   UNL     1       2.342   3.993  17.977  0.00  0.00    +0.000 C 
ATOM     16  O   UNL     1       1.970   2.648  17.592  0.00  0.00    +0.000 OA
ATOM     17  C   UNL     1       1.225   2.060  18.664  0.00  0.00    +0.000 C 
ATOM     18  C   UNL     1       0.682   3.205  19.484  0.00  0.00    +0.000 C 
ATOM     19  C   UNL     1       1.813   4.212  19.410  0.00  0.00    +0.000 C 
BRANCH  15  26
ATOM     20  C   UNL     1       4.790   2.762  19.786  0.00  0.00    +0.000 C 
ATOM     21  C   UNL     1       4.872   3.688  18.628  0.00  0.00    +0.000 A 
ATOM     22  N   UNL     1       6.069   4.128  18.221  0.00  0.00    +0.000 NA
ATOM     23  N   UNL     1       5.788   4.942  17.192  0.00  0.00    +0.000 N 
ATOM     24  C   UNL     1       6.850   5.631  16.501  0.00  0.00    +0.000 C 
ATOM     25  C   UNL     1       4.459   5.028  16.918  0.00  0.00    +0.000 A 
ATOM     26  C   UNL     1       3.812   4.224  17.838  0.00  0.00    +0.000 A 
ENDBRANCH  15  26
ENDBRANCH   1  19
TORSDOF 3
ENDMDL
