MODEL 1
REMARK VINA RESULT:      -8.9      0.000      0.000
REMARK  Name = 
REMARK  6 active torsions:
REMARK  status: ('A' for Active; 'I' for Inactive)
REMARK    1  A    between atoms: C_1  and  S_2
REMARK    2  A    between atoms: S_2  and  C_5
REMARK    3  A    between atoms: C_9  and  O_10
REMARK    4  A    between atoms: O_10  and  C_11
REMARK    5  A    between atoms: C_11  and  C_12
REMARK    6  A    between atoms: C_17  and  C_18
REMARK                            x       y       z     vdW  Elec       q    Type
REMARK                         _______ _______ _______ _____ _____    ______ ____
ROOT
ATOM      1  C   UNL     1       2.016   6.021  19.854  0.00  0.00    +0.000 C 
ATOM      2  O   UNL     1       1.557   5.476  20.862  0.00  0.00    +0.000 OA
ATOM      3  N   UNL     1       1.991   7.399  19.678  0.00  0.00    +0.000 N 
ATOM      4  C   UNL     1       1.540   8.215  20.797  0.00  0.00    +0.000 C 
ATOM      5  C   UNL     1       0.803   9.421  20.314  0.00  0.00    +0.000 C 
ATOM      6  C   UNL     1       0.723   9.801  19.026  0.00  0.00    +0.000 C 
ATOM      7  C   UNL     1       1.448   9.077  17.931  0.00  0.00    +0.000 C 
ATOM      8  C   UNL     1       2.502   8.126  18.513  0.00  0.00    +0.000 C 
ENDROOT
BRANCH   6   9
ATOM      9  C   UNL     1      -0.135  10.854  18.621  0.00  0.00    +0.000 A 
ATOM     10  C   UNL     1      -0.019  12.174  18.990  0.00  0.00    +0.000 A 
ATOM     11  N   UNL     1      -1.125  12.812  18.480  0.00  0.00    +0.000 N 
ATOM     12  C   UNL     1      -2.089  11.868  18.207  0.00  0.00    +0.000 A 
ATOM     13  C   UNL     1      -3.480  11.946  18.137  0.00  0.00    +0.000 A 
ATOM     14  C   UNL     1      -4.149  10.784  17.751  0.00  0.00    +0.000 A 
ATOM     15  F   UNL     1      -5.488  10.756  17.805  0.00  0.00    +0.000 F 
ATOM     16  C   UNL     1      -3.469   9.644  17.331  0.00  0.00    +0.000 A 
ATOM     17  C   UNL     1      -2.078   9.577  17.437  0.00  0.00    +0.000 A 
ATOM     18  C   UNL     1      -1.401  10.678  17.996  0.00  0.00    +0.000 A 
ATOM     19  H   UNL     1      -1.239  13.812  18.387  0.00  0.00    +0.000 HD
ENDBRANCH   6   9
BRANCH   1  20
ATOM     20  C   UNL     1       2.713   5.177  18.787  0.00  0.00    +0.000 C 
BRANCH  20  21
ATOM     21  O   UNL     1       3.838   4.465  19.271  0.00  0.00    +0.000 OA
BRANCH  21  26
ATOM     22  C   UNL     1       6.359   5.248  16.745  0.00  0.00    +0.000 A 
ATOM     23  C   UNL     1       7.451   5.654  17.517  0.00  0.00    +0.000 A 
ATOM     24  C   UNL     1       7.350   5.630  18.903  0.00  0.00    +0.000 A 
ATOM     25  C   UNL     1       6.165   5.215  19.523  0.00  0.00    +0.000 A 
ATOM     26  C   UNL     1       5.059   4.837  18.749  0.00  0.00    +0.000 A 
ATOM     27  C   UNL     1       5.152   4.856  17.359  0.00  0.00    +0.000 A 
BRANCH  22  29
ATOM     28  C   UNL     1       6.031   3.708  14.429  0.00  0.00    +0.000 C 
ATOM     29  S   UNL     1       6.475   5.337  14.978  0.00  0.00    +0.000 S 
ATOM     30  O   UNL     1       7.869   5.545  14.647  0.00  0.00    +0.000 OA
ATOM     31  O   UNL     1       5.466   6.262  14.505  0.00  0.00    +0.000 OA
ENDBRANCH  22  29
ENDBRANCH  21  26
ENDBRANCH  20  21
ENDBRANCH   1  20
TORSDOF 5
ENDMDL
MODEL 2
REMARK VINA RESULT:      -8.6      4.610      9.442
REMARK  Name = 
REMARK  6 active torsions:
REMARK  status: ('A' for Active; 'I' for Inactive)
REMARK    1  A    between atoms: C_1  and  S_2
REMARK    2  A    between atoms: S_2  and  C_5
REMARK    3  A    between atoms: C_9  and  O_10
REMARK    4  A    between atoms: O_10  and  C_11
REMARK    5  A    between atoms: C_11  and  C_12
REMARK    6  A    between atoms: C_17  and  C_18
REMARK                            x       y       z     vdW  Elec       q    Type
REMARK                         _______ _______ _______ _____ _____    ______ ____
ROOT
ATOM      1  C   UNL     1       1.413   8.620  20.507  0.00  0.00    +0.000 C 
ATOM      2  O   UNL     1       1.213   8.496  21.718  0.00  0.00    +0.000 OA
ATOM      3  N   UNL     1       1.875   7.573  19.719  0.00  0.00    +0.000 N 
ATOM      4  C   UNL     1       1.977   6.257  20.335  0.00  0.00    +0.000 C 
ATOM      5  C   UNL     1       3.139   5.499  19.784  0.00  0.00    +0.000 C 
ATOM      6  C   UNL     1       3.882   5.898  18.735  0.00  0.00    +0.000 C 
ATOM      7  C   UNL     1       3.559   7.134  17.949  0.00  0.00    +0.000 C 
ATOM      8  C   UNL     1       2.148   7.635  18.281  0.00  0.00    +0.000 C 
ENDROOT
BRANCH   6   9
ATOM      9  C   UNL     1       5.073   5.219  18.376  0.00  0.00    +0.000 A 
ATOM     10  C   UNL     1       6.213   5.133  19.139  0.00  0.00    +0.000 A 
ATOM     11  N   UNL     1       7.152   4.504  18.358  0.00  0.00    +0.000 N 
ATOM     12  C   UNL     1       6.763   4.603  17.041  0.00  0.00    +0.000 A 
ATOM     13  C   UNL     1       7.488   4.585  15.848  0.00  0.00    +0.000 A 
ATOM     14  C   UNL     1       6.743   4.632  14.669  0.00  0.00    +0.000 A 
ATOM     15  F   UNL     1       7.386   4.763  13.499  0.00  0.00    +0.000 F 
ATOM     16  C   UNL     1       5.353   4.570  14.668  0.00  0.00    +0.000 A 
ATOM     17  C   UNL     1       4.647   4.618  15.872  0.00  0.00    +0.000 A 
ATOM     18  C   UNL     1       5.381   4.754  17.066  0.00  0.00    +0.000 A 
ATOM     19  H   UNL     1       8.017   4.097  18.685  0.00  0.00    +0.000 HD
ENDBRANCH   6   9
BRANCH   1  20
ATOM     20  C   UNL     1       1.069   9.939  19.814  0.00  0.00    +0.000 C 
BRANCH  20  21
ATOM     21  O   UNL     1       0.537  10.918  20.688  0.00  0.00    +0.000 OA
BRANCH  21  26
ATOM     22  C   UNL     1      -2.505  11.427  18.729  0.00  0.00    +0.000 A 
ATOM     23  C   UNL     1      -3.227  12.331  19.513  0.00  0.00    +0.000 A 
ATOM     24  C   UNL     1      -2.669  12.802  20.695  0.00  0.00    +0.000 A 
ATOM     25  C   UNL     1      -1.403  12.370  21.106  0.00  0.00    +0.000 A 
ATOM     26  C   UNL     1      -0.691  11.438  20.336  0.00  0.00    +0.000 A 
ATOM     27  C   UNL     1      -1.242  10.964  19.148  0.00  0.00    +0.000 A 
BRANCH  22  29
ATOM     28  C   UNL     1      -4.815  11.614  17.156  0.00  0.00    +0.000 C 
ATOM     29  S   UNL     1      -3.247  10.786  17.252  0.00  0.00    +0.000 S 
ATOM     30  O   UNL     1      -3.510   9.379  17.477  0.00  0.00    +0.000 OA
ATOM     31  O   UNL     1      -2.445  11.207  16.123  0.00  0.00    +0.000 OA
ENDBRANCH  22  29
ENDBRANCH  21  26
ENDBRANCH  20  21
ENDBRANCH   1  20
TORSDOF 5
ENDMDL
MODEL 3
REMARK VINA RESULT:      -8.4      5.126      9.833
REMARK  Name = 
REMARK  6 active torsions:
REMARK  status: ('A' for Active; 'I' for Inactive)
REMARK    1  A    between atoms: C_1  and  S_2
REMARK    2  A    between atoms: S_2  and  C_5
REMARK    3  A    between atoms: C_9  and  O_10
REMARK    4  A    between atoms: O_10  and  C_11
REMARK    5  A    between atoms: C_11  and  C_12
REMARK    6  A    between atoms: C_17  and  C_18
REMARK                            x       y       z     vdW  Elec       q    Type
REMARK                         _______ _______ _______ _____ _____    ______ ____
ROOT
ATOM      1  C   UNL     1       0.900  10.937  20.335  0.00  0.00    +0.000 C 
ATOM      2  O   UNL     1       1.055  11.082  21.550  0.00  0.00    +0.000 OA
ATOM      3  N   UNL     1       1.030   9.702  19.711  0.00  0.00    +0.000 N 
ATOM      4  C   UNL     1       1.207   8.532  20.560  0.00  0.00    +0.000 C 
ATOM      5  C   UNL     1       2.096   7.527  19.904  0.00  0.00    +0.000 C 
ATOM      6  C   UNL     1       2.526   7.605  18.632  0.00  0.00    +0.000 C 
ATOM      7  C   UNL     1       2.083   8.695  17.702  0.00  0.00    +0.000 C 
ATOM      8  C   UNL     1       0.874   9.442  18.278  0.00  0.00    +0.000 C 
ENDROOT
BRANCH   6   9
ATOM      9  C   UNL     1       3.505   6.711  18.130  0.00  0.00    +0.000 A 
ATOM     10  C   UNL     1       4.322   6.936  17.047  0.00  0.00    +0.000 A 
ATOM     11  N   UNL     1       5.013   5.766  16.839  0.00  0.00    +0.000 N 
ATOM     12  C   UNL     1       4.338   4.741  17.462  0.00  0.00    +0.000 A 
ATOM     13  C   UNL     1       4.290   3.368  17.218  0.00  0.00    +0.000 A 
ATOM     14  C   UNL     1       3.546   2.603  18.117  0.00  0.00    +0.000 A 
ATOM     15  F   UNL     1       3.345   1.304  17.853  0.00  0.00    +0.000 F 
ATOM     16  C   UNL     1       2.987   3.149  19.269  0.00  0.00    +0.000 A 
ATOM     17  C   UNL     1       3.023   4.529  19.479  0.00  0.00    +0.000 A 
ATOM     18  C   UNL     1       3.612   5.337  18.489  0.00  0.00    +0.000 A 
ATOM     19  H   UNL     1       5.839   5.662  16.266  0.00  0.00    +0.000 HD
ENDBRANCH   6   9
BRANCH   1  20
ATOM     20  C   UNL     1       0.471  12.128  19.478  0.00  0.00    +0.000 C 
BRANCH  20  21
ATOM     21  O   UNL     1      -0.769  12.691  19.869  0.00  0.00    +0.000 OA
BRANCH  21  26
ATOM     22  C   UNL     1      -4.287  12.024  19.142  0.00  0.00    +0.000 A 
ATOM     23  C   UNL     1      -4.241  11.518  17.841  0.00  0.00    +0.000 A 
ATOM     24  C   UNL     1      -3.010  11.366  17.214  0.00  0.00    +0.000 A 
ATOM     25  C   UNL     1      -1.827  11.725  17.872  0.00  0.00    +0.000 A 
ATOM     26  C   UNL     1      -1.875  12.263  19.166  0.00  0.00    +0.000 A 
ATOM     27  C   UNL     1      -3.104  12.416  19.802  0.00  0.00    +0.000 A 
BRANCH  22  29
ATOM     28  C   UNL     1      -6.880  10.972  19.255  0.00  0.00    +0.000 C 
ATOM     29  S   UNL     1      -5.864  12.271  19.914  0.00  0.00    +0.000 S 
ATOM     30  O   UNL     1      -6.392  13.528  19.424  0.00  0.00    +0.000 OA
ATOM     31  O   UNL     1      -5.712  12.047  21.336  0.00  0.00    +0.000 OA
ENDBRANCH  22  29
ENDBRANCH  21  26
ENDBRANCH  20  21
ENDBRANCH   1  20
TORSDOF 5
ENDMDL
MODEL 4
REMARK VINA RESULT:      -8.3      5.203      9.682
REMARK  Name = 
REMARK  6 active torsions:
REMARK  status: ('A' for Active; 'I' for Inactive)
REMARK    1  A    between atoms: C_1  and  S_2
REMARK    2  A    between atoms: S_2  and  C_5
REMARK    3  A    between atoms: C_9  and  O_10
REMARK    4  A    between atoms: O_10  and  C_11
REMARK    5  A    between atoms: C_11  and  C_12
REMARK    6  A    between atoms: C_17  and  C_18
REMARK                            x       y       z     vdW  Elec       q    Type
REMARK                         _______ _______ _______ _____ _____    ______ ____
ROOT
ATOM      1  C   UNL     1       1.174  11.587  20.051  0.00  0.00    +0.000 C 
ATOM      2  O   UNL     1       1.335  11.997  21.203  0.00  0.00    +0.000 OA
ATOM      3  N   UNL     1       1.045  10.235  19.754  0.00  0.00    +0.000 N 
ATOM      4  C   UNL     1       0.951   9.304  20.871  0.00  0.00    +0.000 C 
ATOM      5  C   UNL     1       1.614   8.008  20.540  0.00  0.00    +0.000 C 
ATOM      6  C   UNL     1       2.073   7.675  19.320  0.00  0.00    +0.000 C 
ATOM      7  C   UNL     1       1.891   8.564  18.126  0.00  0.00    +0.000 C 
ATOM      8  C   UNL     1       0.862   9.662  18.418  0.00  0.00    +0.000 C 
ENDROOT
BRANCH   6   9
ATOM      9  C   UNL     1       2.844   6.503  19.118  0.00  0.00    +0.000 A 
ATOM     10  C   UNL     1       3.871   6.360  18.215  0.00  0.00    +0.000 A 
ATOM     11  N   UNL     1       4.243   5.038  18.264  0.00  0.00    +0.000 N 
ATOM     12  C   UNL     1       3.215   4.313  18.823  0.00  0.00    +0.000 A 
ATOM     13  C   UNL     1       2.839   2.975  18.700  0.00  0.00    +0.000 A 
ATOM     14  C   UNL     1       1.767   2.556  19.489  0.00  0.00    +0.000 A 
ATOM     15  F   UNL     1       1.270   1.324  19.309  0.00  0.00    +0.000 F 
ATOM     16  C   UNL     1       1.182   3.384  20.443  0.00  0.00    +0.000 A 
ATOM     17  C   UNL     1       1.553   4.727  20.529  0.00  0.00    +0.000 A 
ATOM     18  C   UNL     1       2.508   5.212  19.615  0.00  0.00    +0.000 A 
ATOM     19  H   UNL     1       5.098   4.650  17.890  0.00  0.00    +0.000 HD
ENDBRANCH   6   9
BRANCH   1  20
ATOM     20  C   UNL     1       1.026  12.588  18.905  0.00  0.00    +0.000 C 
BRANCH  20  21
ATOM     21  O   UNL     1      -0.084  13.455  19.047  0.00  0.00    +0.000 OA
BRANCH  21  26
ATOM     22  C   UNL     1      -3.486  12.577  20.048  0.00  0.00    +0.000 A 
ATOM     23  C   UNL     1      -3.930  11.798  18.976  0.00  0.00    +0.000 A 
ATOM     24  C   UNL     1      -3.063  11.536  17.922  0.00  0.00    +0.000 A 
ATOM     25  C   UNL     1      -1.762  12.053  17.925  0.00  0.00    +0.000 A 
ATOM     26  C   UNL     1      -1.327  12.861  18.985  0.00  0.00    +0.000 A 
ATOM     27  C   UNL     1      -2.188  13.127  20.047  0.00  0.00    +0.000 A 
BRANCH  22  29
ATOM     28  C   UNL     1      -3.673  12.683  22.840  0.00  0.00    +0.000 C 
ATOM     29  S   UNL     1      -4.616  12.957  21.361  0.00  0.00    +0.000 S 
ATOM     30  O   UNL     1      -5.669  11.963  21.325  0.00  0.00    +0.000 OA
ATOM     31  O   UNL     1      -4.939  14.366  21.286  0.00  0.00    +0.000 OA
ENDBRANCH  22  29
ENDBRANCH  21  26
ENDBRANCH  20  21
ENDBRANCH   1  20
TORSDOF 5
ENDMDL
MODEL 5
REMARK VINA RESULT:      -8.3      1.036      1.205
REMARK  Name = 
REMARK  6 active torsions:
REMARK  status: ('A' for Active; 'I' for Inactive)
REMARK    1  A    between atoms: C_1  and  S_2
REMARK    2  A    between atoms: S_2  and  C_5
REMARK    3  A    between atoms: C_9  and  O_10
REMARK    4  A    between atoms: O_10  and  C_11
REMARK    5  A    between atoms: C_11  and  C_12
REMARK    6  A    between atoms: C_17  and  C_18
REMARK                            x       y       z     vdW  Elec       q    Type
REMARK                         _______ _______ _______ _____ _____    ______ ____
ROOT
ATOM      1  C   UNL     1       1.865   5.126  19.722  0.00  0.00    +0.000 C 
ATOM      2  O   UNL     1       1.162   4.615  20.597  0.00  0.00    +0.000 OA
ATOM      3  N   UNL     1       2.109   6.493  19.670  0.00  0.00    +0.000 N 
ATOM      4  C   UNL     1       1.633   7.307  20.780  0.00  0.00    +0.000 C 
ATOM      5  C   UNL     1       1.206   8.657  20.306  0.00  0.00    +0.000 C 
ATOM      6  C   UNL     1       1.403   9.125  19.060  0.00  0.00    +0.000 C 
ATOM      7  C   UNL     1       2.158   8.349  18.022  0.00  0.00    +0.000 C 
ATOM      8  C   UNL     1       2.921   7.184  18.664  0.00  0.00    +0.000 C 
ENDROOT
BRANCH   6   9
ATOM      9  C   UNL     1       0.819  10.344  18.631  0.00  0.00    +0.000 A 
ATOM     10  C   UNL     1       1.333  11.602  18.842  0.00  0.00    +0.000 A 
ATOM     11  N   UNL     1       0.387  12.485  18.378  0.00  0.00    +0.000 N 
ATOM     12  C   UNL     1      -0.823  11.833  18.306  0.00  0.00    +0.000 A 
ATOM     13  C   UNL     1      -2.138  12.294  18.366  0.00  0.00    +0.000 A 
ATOM     14  C   UNL     1      -3.140  11.341  18.175  0.00  0.00    +0.000 A 
ATOM     15  F   UNL     1      -4.419  11.695  18.364  0.00  0.00    +0.000 F 
ATOM     16  C   UNL     1      -2.853  10.027  17.816  0.00  0.00    +0.000 A 
ATOM     17  C   UNL     1      -1.530   9.580  17.789  0.00  0.00    +0.000 A 
ATOM     18  C   UNL     1      -0.516  10.484  18.157  0.00  0.00    +0.000 A 
ATOM     19  H   UNL     1       0.538  13.466  18.189  0.00  0.00    +0.000 HD
ENDBRANCH   6   9
BRANCH   1  20
ATOM     20  C   UNL     1       2.567   4.235  18.697  0.00  0.00    +0.000 C 
BRANCH  20  21
ATOM     21  O   UNL     1       3.780   3.676  19.167  0.00  0.00    +0.000 OA
BRANCH  21  26
ATOM     22  C   UNL     1       6.315   4.824  16.798  0.00  0.00    +0.000 A 
ATOM     23  C   UNL     1       7.206   5.522  17.618  0.00  0.00    +0.000 A 
ATOM     24  C   UNL     1       6.971   5.576  18.986  0.00  0.00    +0.000 A 
ATOM     25  C   UNL     1       5.849   4.950  19.541  0.00  0.00    +0.000 A 
ATOM     26  C   UNL     1       4.937   4.276  18.716  0.00  0.00    +0.000 A 
ATOM     27  C   UNL     1       5.166   4.214  17.343  0.00  0.00    +0.000 A 
BRANCH  22  29
ATOM     28  C   UNL     1       5.272   5.804  14.391  0.00  0.00    +0.000 C 
ATOM     29  S   UNL     1       6.588   4.808  15.047  0.00  0.00    +0.000 S 
ATOM     30  O   UNL     1       6.377   3.450  14.589  0.00  0.00    +0.000 OA
ATOM     31  O   UNL     1       7.841   5.483  14.779  0.00  0.00    +0.000 OA
ENDBRANCH  22  29
ENDBRANCH  21  26
ENDBRANCH  20  21
ENDBRANCH   1  20
TORSDOF 5
ENDMDL
MODEL 6
REMARK VINA RESULT:      -8.3      5.712     10.297
REMARK  Name = 
REMARK  6 active torsions:
REMARK  status: ('A' for Active; 'I' for Inactive)
REMARK    1  A    between atoms: C_1  and  S_2
REMARK    2  A    between atoms: S_2  and  C_5
REMARK    3  A    between atoms: C_9  and  O_10
REMARK    4  A    between atoms: O_10  and  C_11
REMARK    5  A    between atoms: C_11  and  C_12
REMARK    6  A    between atoms: C_17  and  C_18
REMARK                            x       y       z     vdW  Elec       q    Type
REMARK                         _______ _______ _______ _____ _____    ______ ____
ROOT
ATOM      1  C   UNL     1      -0.536  10.403  21.026  0.00  0.00    +0.000 C 
ATOM      2  O   UNL     1      -1.254  10.995  20.216  0.00  0.00    +0.000 OA
ATOM      3  N   UNL     1       0.651   9.784  20.655  0.00  0.00    +0.000 N 
ATOM      4  C   UNL     1       1.117   9.983  19.289  0.00  0.00    +0.000 C 
ATOM      5  C   UNL     1       1.808   8.761  18.779  0.00  0.00    +0.000 C 
ATOM      6  C   UNL     1       2.120   7.691  19.532  0.00  0.00    +0.000 C 
ATOM      7  C   UNL     1       1.870   7.651  21.011  0.00  0.00    +0.000 C 
ATOM      8  C   UNL     1       1.556   9.054  21.546  0.00  0.00    +0.000 C 
ENDROOT
BRANCH   6   9
ATOM      9  C   UNL     1       2.617   6.499  18.948  0.00  0.00    +0.000 A 
ATOM     10  C   UNL     1       3.382   6.419  17.808  0.00  0.00    +0.000 A 
ATOM     11  N   UNL     1       3.526   5.079  17.536  0.00  0.00    +0.000 N 
ATOM     12  C   UNL     1       2.536   4.389  18.200  0.00  0.00    +0.000 A 
ATOM     13  C   UNL     1       1.920   3.163  17.946  0.00  0.00    +0.000 A 
ATOM     14  C   UNL     1       0.992   2.727  18.892  0.00  0.00    +0.000 A 
ATOM     15  F   UNL     1       0.265   1.631  18.632  0.00  0.00    +0.000 F 
ATOM     16  C   UNL     1       0.779   3.406  20.088  0.00  0.00    +0.000 A 
ATOM     17  C   UNL     1       1.384   4.645  20.309  0.00  0.00    +0.000 A 
ATOM     18  C   UNL     1       2.183   5.186  19.284  0.00  0.00    +0.000 A 
ATOM     19  H   UNL     1       4.199   4.674  16.901  0.00  0.00    +0.000 HD
ENDBRANCH   6   9
BRANCH   1  20
ATOM     20  C   UNL     1      -0.906  10.407  22.510  0.00  0.00    +0.000 C 
BRANCH  20  21
ATOM     21  O   UNL     1      -0.544  11.600  23.183  0.00  0.00    +0.000 OA
BRANCH  21  26
ATOM     22  C   UNL     1      -3.766  13.323  23.193  0.00  0.00    +0.000 A 
ATOM     23  C   UNL     1      -3.399  14.660  23.013  0.00  0.00    +0.000 A 
ATOM     24  C   UNL     1      -2.057  14.980  22.851  0.00  0.00    +0.000 A 
ATOM     25  C   UNL     1      -1.078  13.980  22.878  0.00  0.00    +0.000 A 
ATOM     26  C   UNL     1      -1.442  12.642  23.090  0.00  0.00    +0.000 A 
ATOM     27  C   UNL     1      -2.786  12.312  23.251  0.00  0.00    +0.000 A 
BRANCH  22  29
ATOM     28  C   UNL     1      -6.239  14.498  23.782  0.00  0.00    +0.000 C 
ATOM     29  S   UNL     1      -5.474  12.929  23.459  0.00  0.00    +0.000 S 
ATOM     30  O   UNL     1      -5.551  12.146  24.676  0.00  0.00    +0.000 OA
ATOM     31  O   UNL     1      -6.016  12.409  22.221  0.00  0.00    +0.000 OA
ENDBRANCH  22  29
ENDBRANCH  21  26
ENDBRANCH  20  21
ENDBRANCH   1  20
TORSDOF 5
ENDMDL
MODEL 7
REMARK VINA RESULT:      -8.3      2.098      2.913
REMARK  Name = 
REMARK  6 active torsions:
REMARK  status: ('A' for Active; 'I' for Inactive)
REMARK    1  A    between atoms: C_1  and  S_2
REMARK    2  A    between atoms: S_2  and  C_5
REMARK    3  A    between atoms: C_9  and  O_10
REMARK    4  A    between atoms: O_10  and  C_11
REMARK    5  A    between atoms: C_11  and  C_12
REMARK    6  A    between atoms: C_17  and  C_18
REMARK                            x       y       z     vdW  Elec       q    Type
REMARK                         _______ _______ _______ _____ _____    ______ ____
ROOT
ATOM      1  C   UNL     1       1.711   8.208  19.642  0.00  0.00    +0.000 C 
ATOM      2  O   UNL     1       1.594   7.341  20.512  0.00  0.00    +0.000 OA
ATOM      3  N   UNL     1       1.216   9.496  19.805  0.00  0.00    +0.000 N 
ATOM      4  C   UNL     1       0.678   9.853  21.111  0.00  0.00    +0.000 C 
ATOM      5  C   UNL     1      -0.468  10.800  20.974  0.00  0.00    +0.000 C 
ATOM      6  C   UNL     1      -0.838  11.387  19.822  0.00  0.00    +0.000 C 
ATOM      7  C   UNL     1      -0.070  11.205  18.547  0.00  0.00    +0.000 C 
ATOM      8  C   UNL     1       1.303  10.581  18.824  0.00  0.00    +0.000 C 
ENDROOT
BRANCH   6   9
ATOM      9  C   UNL     1      -2.038  12.137  19.730  0.00  0.00    +0.000 A 
ATOM     10  C   UNL     1      -2.420  13.153  20.575  0.00  0.00    +0.000 A 
ATOM     11  N   UNL     1      -3.695  13.504  20.201  0.00  0.00    +0.000 N 
ATOM     12  C   UNL     1      -4.239  12.469  19.474  0.00  0.00    +0.000 A 
ATOM     13  C   UNL     1      -5.558  12.070  19.258  0.00  0.00    +0.000 A 
ATOM     14  C   UNL     1      -5.748  10.999  18.384  0.00  0.00    +0.000 A 
ATOM     15  F   UNL     1      -6.977  10.480  18.249  0.00  0.00    +0.000 F 
ATOM     16  C   UNL     1      -4.699  10.437  17.663  0.00  0.00    +0.000 A 
ATOM     17  C   UNL     1      -3.383  10.832  17.915  0.00  0.00    +0.000 A 
ATOM     18  C   UNL     1      -3.158  11.785  18.926  0.00  0.00    +0.000 A 
ATOM     19  H   UNL     1      -4.179  14.349  20.472  0.00  0.00    +0.000 HD
ENDBRANCH   6   9
BRANCH   1  20
ATOM     20  C   UNL     1       2.496   7.900  18.367  0.00  0.00    +0.000 C 
BRANCH  20  21
ATOM     21  O   UNL     1       2.243   6.609  17.841  0.00  0.00    +0.000 OA
BRANCH  21  26
ATOM     22  C   UNL     1       5.387   4.944  18.670  0.00  0.00    +0.000 A 
ATOM     23  C   UNL     1       4.959   3.709  19.165  0.00  0.00    +0.000 A 
ATOM     24  C   UNL     1       3.600   3.420  19.186  0.00  0.00    +0.000 A 
ATOM     25  C   UNL     1       2.666   4.357  18.729  0.00  0.00    +0.000 A 
ATOM     26  C   UNL     1       3.093   5.608  18.261  0.00  0.00    +0.000 A 
ATOM     27  C   UNL     1       4.453   5.905  18.234  0.00  0.00    +0.000 A 
BRANCH  22  29
ATOM     28  C   UNL     1       7.241   6.851  17.795  0.00  0.00    +0.000 C 
ATOM     29  S   UNL     1       7.117   5.329  18.700  0.00  0.00    +0.000 S 
ATOM     30  O   UNL     1       7.801   4.308  17.932  0.00  0.00    +0.000 OA
ATOM     31  O   UNL     1       7.499   5.589  20.072  0.00  0.00    +0.000 OA
ENDBRANCH  22  29
ENDBRANCH  21  26
ENDBRANCH  20  21
ENDBRANCH   1  20
TORSDOF 5
ENDMDL
MODEL 8
REMARK VINA RESULT:      -8.3      2.525      2.829
REMARK  Name = 
REMARK  6 active torsions:
REMARK  status: ('A' for Active; 'I' for Inactive)
REMARK    1  A    between atoms: C_1  and  S_2
REMARK    2  A    between atoms: S_2  and  C_5
REMARK    3  A    between atoms: C_9  and  O_10
REMARK    4  A    between atoms: O_10  and  C_11
REMARK    5  A    between atoms: C_11  and  C_12
REMARK    6  A    between atoms: C_17  and  C_18
REMARK                            x       y       z     vdW  Elec       q    Type
REMARK                         _______ _______ _______ _____ _____    ______ ____
ROOT
ATOM      1  C   UNL     1       1.504   4.449  19.314  0.00  0.00    +0.000 C 
ATOM      2  O   UNL     1       0.971   3.921  20.293  0.00  0.00    +0.000 OA
ATOM      3  N   UNL     1       1.978   5.755  19.339  0.00  0.00    +0.000 N 
ATOM      4  C   UNL     1       1.967   6.452  20.618  0.00  0.00    +0.000 C 
ATOM      5  C   UNL     1       1.691   7.908  20.429  0.00  0.00    +0.000 C 
ATOM      6  C   UNL     1       1.641   8.525  19.235  0.00  0.00    +0.000 C 
ATOM      7  C   UNL     1       1.941   7.812  17.950  0.00  0.00    +0.000 C 
ATOM      8  C   UNL     1       2.614   6.461  18.224  0.00  0.00    +0.000 C 
ENDROOT
BRANCH   6   9
ATOM      9  C   UNL     1       1.203   9.869  19.119  0.00  0.00    +0.000 A 
ATOM     10  C   UNL     1       1.725  10.816  18.270  0.00  0.00    +0.000 A 
ATOM     11  N   UNL     1       1.097  11.998  18.581  0.00  0.00    +0.000 N 
ATOM     12  C   UNL     1       0.557  11.888  19.842  0.00  0.00    +0.000 A 
ATOM     13  C   UNL     1       0.247  12.842  20.813  0.00  0.00    +0.000 A 
ATOM     14  C   UNL     1      -0.375  12.371  21.970  0.00  0.00    +0.000 A 
ATOM     15  F   UNL     1      -0.566  13.214  22.995  0.00  0.00    +0.000 F 
ATOM     16  C   UNL     1      -0.785  11.047  22.103  0.00  0.00    +0.000 A 
ATOM     17  C   UNL     1      -0.440  10.104  21.133  0.00  0.00    +0.000 A 
ATOM     18  C   UNL     1       0.346  10.528  20.045  0.00  0.00    +0.000 A 
ATOM     19  H   UNL     1       1.092  12.832  18.010  0.00  0.00    +0.000 HD
ENDBRANCH   6   9
BRANCH   1  20
ATOM     20  C   UNL     1       1.737   3.629  18.044  0.00  0.00    +0.000 C 
BRANCH  20  21
ATOM     21  O   UNL     1       2.878   2.793  18.108  0.00  0.00    +0.000 OA
BRANCH  21  26
ATOM     22  C   UNL     1       5.755   4.570  16.723  0.00  0.00    +0.000 A 
ATOM     23  C   UNL     1       6.526   4.836  17.858  0.00  0.00    +0.000 A 
ATOM     24  C   UNL     1       6.092   4.382  19.096  0.00  0.00    +0.000 A 
ATOM     25  C   UNL     1       4.889   3.674  19.213  0.00  0.00    +0.000 A 
ATOM     26  C   UNL     1       4.099   3.434  18.080  0.00  0.00    +0.000 A 
ATOM     27  C   UNL     1       4.528   3.884  16.834  0.00  0.00    +0.000 A 
BRANCH  22  29
ATOM     28  C   UNL     1       5.971   3.876  14.019  0.00  0.00    +0.000 C 
ATOM     29  S   UNL     1       6.285   5.203  15.154  0.00  0.00    +0.000 S 
ATOM     30  O   UNL     1       7.720   5.386  15.225  0.00  0.00    +0.000 OA
ATOM     31  O   UNL     1       5.425   6.313  14.800  0.00  0.00    +0.000 OA
ENDBRANCH  22  29
ENDBRANCH  21  26
ENDBRANCH  20  21
ENDBRANCH   1  20
TORSDOF 5
ENDMDL
MODEL 9
REMARK VINA RESULT:      -8.2      6.224      8.440
REMARK  Name = 
REMARK  6 active torsions:
REMARK  status: ('A' for Active; 'I' for Inactive)
REMARK    1  A    between atoms: C_1  and  S_2
REMARK    2  A    between atoms: S_2  and  C_5
REMARK    3  A    between atoms: C_9  and  O_10
REMARK    4  A    between atoms: O_10  and  C_11
REMARK    5  A    between atoms: C_11  and  C_12
REMARK    6  A    between atoms: C_17  and  C_18
REMARK                            x       y       z     vdW  Elec       q    Type
REMARK                         _______ _______ _______ _____ _____    ______ ____
ROOT
ATOM      1  C   UNL     1       7.750   7.070  17.268  0.00  0.00    +0.000 C 
ATOM      2  O   UNL     1       8.060   7.191  16.080  0.00  0.00    +0.000 OA
ATOM      3  N   UNL     1       7.061   5.962  17.748  0.00  0.00    +0.000 N 
ATOM      4  C   UNL     1       6.840   4.854  16.828  0.00  0.00    +0.000 C 
ATOM      5  C   UNL     1       5.530   4.192  17.097  0.00  0.00    +0.000 C 
ATOM      6  C   UNL     1       4.743   4.460  18.155  0.00  0.00    +0.000 C 
ATOM      7  C   UNL     1       5.152   5.416  19.236  0.00  0.00    +0.000 C 
ATOM      8  C   UNL     1       6.647   5.742  19.135  0.00  0.00    +0.000 C 
ENDROOT
BRANCH   6   9
ATOM      9  C   UNL     1       3.435   3.921  18.255  0.00  0.00    +0.000 A 
ATOM     10  C   UNL     1       2.365   4.250  17.456  0.00  0.00    +0.000 A 
ATOM     11  N   UNL     1       1.278   3.596  17.984  0.00  0.00    +0.000 N 
ATOM     12  C   UNL     1       1.562   3.253  19.287  0.00  0.00    +0.000 A 
ATOM     13  C   UNL     1       0.744   3.025  20.394  0.00  0.00    +0.000 A 
ATOM     14  C   UNL     1       1.382   2.612  21.563  0.00  0.00    +0.000 A 
ATOM     15  F   UNL     1       0.669   2.516  22.695  0.00  0.00    +0.000 F 
ATOM     16  C   UNL     1       2.742   2.315  21.600  0.00  0.00    +0.000 A 
ATOM     17  C   UNL     1       3.547   2.577  20.489  0.00  0.00    +0.000 A 
ATOM     18  C   UNL     1       2.949   3.166  19.359  0.00  0.00    +0.000 A 
ATOM     19  H   UNL     1       0.392   3.452  17.519  0.00  0.00    +0.000 HD
ENDBRANCH   6   9
BRANCH   1  20
ATOM     20  C   UNL     1       8.201   8.123  18.280  0.00  0.00    +0.000 C 
BRANCH  20  21
ATOM     21  O   UNL     1       8.212   9.442  17.761  0.00  0.00    +0.000 OA
BRANCH  21  26
ATOM     22  C   UNL     1       9.244  12.759  18.891  0.00  0.00    +0.000 A 
ATOM     23  C   UNL     1       9.868  12.487  20.112  0.00  0.00    +0.000 A 
ATOM     24  C   UNL     1       9.974  11.171  20.542  0.00  0.00    +0.000 A 
ATOM     25  C   UNL     1       9.453  10.125  19.770  0.00  0.00    +0.000 A 
ATOM     26  C   UNL     1       8.800  10.400  18.560  0.00  0.00    +0.000 A 
ATOM     27  C   UNL     1       8.691  11.717  18.120  0.00  0.00    +0.000 A 
BRANCH  22  29
ATOM     28  C   UNL     1      10.532  14.780  17.441  0.00  0.00    +0.000 C 
ATOM     29  S   UNL     1       9.060  14.446  18.377  0.00  0.00    +0.000 S 
ATOM     30  O   UNL     1       9.104  15.268  19.568  0.00  0.00    +0.000 OA
ATOM     31  O   UNL     1       7.927  14.523  17.478  0.00  0.00    +0.000 OA
ENDBRANCH  22  29
ENDBRANCH  21  26
ENDBRANCH  20  21
ENDBRANCH   1  20
TORSDOF 5
ENDMDL
