MODEL 1
REMARK VINA RESULT:      -9.1      0.000      0.000
REMARK  Name = 
REMARK  6 active torsions:
REMARK  status: ('A' for Active; 'I' for Inactive)
REMARK    1  A    between atoms: N_3  and  C_4
REMARK    2  A    between atoms: C_4  and  C_5
REMARK    3  A    between atoms: N_11  and  C_12
REMARK    4  A    between atoms: C_12  and  C_13
REMARK    5  A    between atoms: C_12  and  C_23
REMARK    6  A    between atoms: C_13  and  N_14
REMARK                            x       y       z     vdW  Elec       q    Type
REMARK                         _______ _______ _______ _____ _____    ______ ____
ROOT
ATOM      1  C   UNL     1       2.442   6.782  19.015  0.00  0.00    +0.000 C 
ENDROOT
BRANCH   1   2
ATOM      2  C   UNL     1       1.901   5.342  19.030  0.00  0.00    +0.000 A 
ATOM      3  C   UNL     1       1.804   4.598  17.832  0.00  0.00    +0.000 A 
ATOM      4  C   UNL     1       1.325   3.284  17.822  0.00  0.00    +0.000 A 
ATOM      5  C   UNL     1       0.985   2.673  19.017  0.00  0.00    +0.000 A 
ATOM      6  F   UNL     1       0.544   1.409  19.013  0.00  0.00    +0.000 F 
ATOM      7  C   UNL     1       1.116   3.351  20.219  0.00  0.00    +0.000 A 
ATOM      8  C   UNL     1       1.570   4.676  20.226  0.00  0.00    +0.000 A 
ENDBRANCH   1   2
BRANCH   1  12
ATOM      9  O   UNL     1       1.435   8.964  21.742  0.00  0.00    +0.000 OA
ATOM     10  C   UNL     1       1.443   8.578  20.578  0.00  0.00    +0.000 C 
ATOM     11  N   UNL     1       0.861   9.244  19.553  0.00  0.00    +0.000 N 
ATOM     12  N   UNL     1       2.157   7.472  20.279  0.00  0.00    +0.000 N 
ATOM     13  H   UNL     1       0.546   8.714  18.759  0.00  0.00    +0.000 HD
ATOM     14  H   UNL     1       2.630   7.135  21.110  0.00  0.00    +0.000 HD
BRANCH  11  15
ATOM     15  C   UNL     1       0.199  10.514  19.778  0.00  0.00    +0.000 C 
BRANCH  15  16
ATOM     16  C   UNL     1      -1.006  10.679  18.885  0.00  0.00    +0.000 A 
ATOM     17  C   UNL     1      -2.030  11.561  19.254  0.00  0.00    +0.000 A 
ATOM     18  C   UNL     1      -3.155  11.722  18.436  0.00  0.00    +0.000 A 
ATOM     19  C   UNL     1      -3.264  10.986  17.253  0.00  0.00    +0.000 A 
ATOM     20  C   UNL     1      -2.255  10.100  16.889  0.00  0.00    +0.000 A 
ATOM     21  C   UNL     1      -1.133   9.943  17.705  0.00  0.00    +0.000 A 
ENDBRANCH  15  16
ENDBRANCH  11  15
ENDBRANCH   1  12
BRANCH   1  22
ATOM     22  C   UNL     1       3.919   6.933  18.544  0.00  0.00    +0.000 C 
BRANCH  22  23
ATOM     23  N   UNL     1       4.764   5.760  18.412  0.00  0.00    +0.000 N 
ATOM     24  C   UNL     1       5.561   5.252  19.405  0.00  0.00    +0.000 A 
ATOM     25  N   UNL     1       6.624   4.649  18.926  0.00  0.00    +0.000 NA
ATOM     26  C   UNL     1       6.521   4.772  17.570  0.00  0.00    +0.000 A 
ATOM     27  C   UNL     1       7.465   4.459  16.582  0.00  0.00    +0.000 A 
ATOM     28  C   UNL     1       7.144   4.705  15.244  0.00  0.00    +0.000 A 
ATOM     29  C   UNL     1       5.882   5.188  14.892  0.00  0.00    +0.000 A 
ATOM     30  C   UNL     1       4.928   5.515  15.865  0.00  0.00    +0.000 A 
ATOM     31  C   UNL     1       5.306   5.346  17.206  0.00  0.00    +0.000 A 
ENDBRANCH  22  23
ENDBRANCH   1  22
TORSDOF 6
ENDMDL
MODEL 2
REMARK VINA RESULT:      -9.1      0.191      1.279
REMARK  Name = 
REMARK  6 active torsions:
REMARK  status: ('A' for Active; 'I' for Inactive)
REMARK    1  A    between atoms: N_3  and  C_4
REMARK    2  A    between atoms: C_4  and  C_5
REMARK    3  A    between atoms: N_11  and  C_12
REMARK    4  A    between atoms: C_12  and  C_13
REMARK    5  A    between atoms: C_12  and  C_23
REMARK    6  A    between atoms: C_13  and  N_14
REMARK                            x       y       z     vdW  Elec       q    Type
REMARK                         _______ _______ _______ _____ _____    ______ ____
ROOT
ATOM      1  C   UNL     1       2.481   6.739  19.037  0.00  0.00    +0.000 C 
ENDROOT
BRANCH   1   2
ATOM      2  C   UNL     1       1.963   5.290  19.026  0.00  0.00    +0.000 A 
ATOM      3  C   UNL     1       1.546   4.667  20.224  0.00  0.00    +0.000 A 
ATOM      4  C   UNL     1       1.061   3.355  20.238  0.00  0.00    +0.000 A 
ATOM      5  C   UNL     1       0.934   2.662  19.046  0.00  0.00    +0.000 A 
ATOM      6  F   UNL     1       0.453   1.413  19.053  0.00  0.00    +0.000 F 
ATOM      7  C   UNL     1       1.282   3.258  17.843  0.00  0.00    +0.000 A 
ATOM      8  C   UNL     1       1.793   4.562  17.833  0.00  0.00    +0.000 A 
ENDBRANCH   1   2
BRANCH   1  12
ATOM      9  O   UNL     1       1.355   8.957  21.686  0.00  0.00    +0.000 OA
ATOM     10  C   UNL     1       1.472   8.594  20.520  0.00  0.00    +0.000 C 
ATOM     11  N   UNL     1       1.089   9.334  19.453  0.00  0.00    +0.000 N 
ATOM     12  N   UNL     1       2.108   7.429  20.277  0.00  0.00    +0.000 N 
ATOM     13  H   UNL     1       0.826   8.853  18.610  0.00  0.00    +0.000 HD
ATOM     14  H   UNL     1       2.438   7.031  21.149  0.00  0.00    +0.000 HD
BRANCH  11  15
ATOM     15  C   UNL     1       0.529  10.659  19.635  0.00  0.00    +0.000 C 
BRANCH  15  16
ATOM     16  C   UNL     1      -0.819  10.789  18.971  0.00  0.00    +0.000 A 
ATOM     17  C   UNL     1      -1.112  10.023  17.835  0.00  0.00    +0.000 A 
ATOM     18  C   UNL     1      -2.358  10.134  17.206  0.00  0.00    +0.000 A 
ATOM     19  C   UNL     1      -3.310  11.027  17.707  0.00  0.00    +0.000 A 
ATOM     20  C   UNL     1      -3.019  11.799  18.827  0.00  0.00    +0.000 A 
ATOM     21  C   UNL     1      -1.776  11.684  19.453  0.00  0.00    +0.000 A 
ENDBRANCH  15  16
ENDBRANCH  11  15
ENDBRANCH   1  12
BRANCH   1  22
ATOM     22  C   UNL     1       3.982   6.911  18.657  0.00  0.00    +0.000 C 
BRANCH  22  23
ATOM     23  N   UNL     1       4.823   5.743  18.465  0.00  0.00    +0.000 N 
ATOM     24  C   UNL     1       5.666   5.219  19.411  0.00  0.00    +0.000 A 
ATOM     25  N   UNL     1       6.707   4.628  18.872  0.00  0.00    +0.000 NA
ATOM     26  C   UNL     1       6.541   4.775  17.524  0.00  0.00    +0.000 A 
ATOM     27  C   UNL     1       7.438   4.483  16.488  0.00  0.00    +0.000 A 
ATOM     28  C   UNL     1       7.055   4.752  15.171  0.00  0.00    +0.000 A 
ATOM     29  C   UNL     1       5.777   5.237  14.887  0.00  0.00    +0.000 A 
ATOM     30  C   UNL     1       4.869   5.544  15.909  0.00  0.00    +0.000 A 
ATOM     31  C   UNL     1       5.308   5.352  17.227  0.00  0.00    +0.000 A 
ENDBRANCH  22  23
ENDBRANCH   1  22
TORSDOF 6
ENDMDL
MODEL 3
REMARK VINA RESULT:      -9.0      3.568      8.850
REMARK  Name = 
REMARK  6 active torsions:
REMARK  status: ('A' for Active; 'I' for Inactive)
REMARK    1  A    between atoms: N_3  and  C_4
REMARK    2  A    between atoms: C_4  and  C_5
REMARK    3  A    between atoms: N_11  and  C_12
REMARK    4  A    between atoms: C_12  and  C_13
REMARK    5  A    between atoms: C_12  and  C_23
REMARK    6  A    between atoms: C_13  and  N_14
REMARK                            x       y       z     vdW  Elec       q    Type
REMARK                         _______ _______ _______ _____ _____    ______ ____
ROOT
ATOM      1  C   UNL     1       0.012  10.257  18.995  0.00  0.00    +0.000 C 
ENDROOT
BRANCH   1   2
ATOM      2  C   UNL     1      -1.307  10.558  18.263  0.00  0.00    +0.000 A 
ATOM      3  C   UNL     1      -1.638   9.877  17.069  0.00  0.00    +0.000 A 
ATOM      4  C   UNL     1      -2.836  10.125  16.391  0.00  0.00    +0.000 A 
ATOM      5  C   UNL     1      -3.749  11.020  16.924  0.00  0.00    +0.000 A 
ATOM      6  F   UNL     1      -4.904  11.246  16.288  0.00  0.00    +0.000 F 
ATOM      7  C   UNL     1      -3.484  11.668  18.121  0.00  0.00    +0.000 A 
ATOM      8  C   UNL     1      -2.273  11.439  18.786  0.00  0.00    +0.000 A 
ENDBRANCH   1   2
BRANCH   1  12
ATOM      9  O   UNL     1       2.696   8.595  17.194  0.00  0.00    +0.000 OA
ATOM     10  C   UNL     1       1.885   8.720  18.106  0.00  0.00    +0.000 C 
ATOM     11  N   UNL     1       1.847   7.925  19.201  0.00  0.00    +0.000 N 
ATOM     12  N   UNL     1       1.038   9.770  18.065  0.00  0.00    +0.000 N 
ATOM     13  H   UNL     1       0.966   7.802  19.670  0.00  0.00    +0.000 HD
ATOM     14  H   UNL     1       1.243  10.343  17.255  0.00  0.00    +0.000 HD
BRANCH  11  15
ATOM     15  C   UNL     1       2.821   6.865  19.380  0.00  0.00    +0.000 C 
BRANCH  15  16
ATOM     16  C   UNL     1       2.169   5.505  19.368  0.00  0.00    +0.000 A 
ATOM     17  C   UNL     1       2.043   4.804  18.162  0.00  0.00    +0.000 A 
ATOM     18  C   UNL     1       1.438   3.541  18.136  0.00  0.00    +0.000 A 
ATOM     19  C   UNL     1       0.944   2.984  19.318  0.00  0.00    +0.000 A 
ATOM     20  C   UNL     1       1.057   3.682  20.517  0.00  0.00    +0.000 A 
ATOM     21  C   UNL     1       1.662   4.940  20.540  0.00  0.00    +0.000 A 
ENDBRANCH  15  16
ENDBRANCH  11  15
ENDBRANCH   1  12
BRANCH   1  22
ATOM     22  C   UNL     1       0.519  11.384  19.944  0.00  0.00    +0.000 C 
BRANCH  22  23
ATOM     23  N   UNL     1       0.153  11.369  21.349  0.00  0.00    +0.000 N 
ATOM     24  C   UNL     1       0.213  10.269  22.164  0.00  0.00    +0.000 A 
ATOM     25  N   UNL     1      -0.689  10.309  23.117  0.00  0.00    +0.000 NA
ATOM     26  C   UNL     1      -1.367  11.478  22.916  0.00  0.00    +0.000 A 
ATOM     27  C   UNL     1      -2.536  11.937  23.537  0.00  0.00    +0.000 A 
ATOM     28  C   UNL     1      -3.071  13.165  23.137  0.00  0.00    +0.000 A 
ATOM     29  C   UNL     1      -2.417  13.951  22.187  0.00  0.00    +0.000 A 
ATOM     30  C   UNL     1      -1.252  13.505  21.548  0.00  0.00    +0.000 A 
ATOM     31  C   UNL     1      -0.784  12.230  21.899  0.00  0.00    +0.000 A 
ENDBRANCH  22  23
ENDBRANCH   1  22
TORSDOF 6
ENDMDL
MODEL 4
REMARK VINA RESULT:      -9.0      3.572      8.865
REMARK  Name = 
REMARK  6 active torsions:
REMARK  status: ('A' for Active; 'I' for Inactive)
REMARK    1  A    between atoms: N_3  and  C_4
REMARK    2  A    between atoms: C_4  and  C_5
REMARK    3  A    between atoms: N_11  and  C_12
REMARK    4  A    between atoms: C_12  and  C_13
REMARK    5  A    between atoms: C_12  and  C_23
REMARK    6  A    between atoms: C_13  and  N_14
REMARK                            x       y       z     vdW  Elec       q    Type
REMARK                         _______ _______ _______ _____ _____    ______ ____
ROOT
ATOM      1  C   UNL     1       0.032  10.226  19.020  0.00  0.00    +0.000 C 
ENDROOT
BRANCH   1   2
ATOM      2  C   UNL     1      -1.312  10.459  18.310  0.00  0.00    +0.000 A 
ATOM      3  C   UNL     1      -2.240  11.397  18.817  0.00  0.00    +0.000 A 
ATOM      4  C   UNL     1      -3.464  11.634  18.183  0.00  0.00    +0.000 A 
ATOM      5  C   UNL     1      -3.759  10.975  17.001  0.00  0.00    +0.000 A 
ATOM      6  F   UNL     1      -4.921  11.213  16.382  0.00  0.00    +0.000 F 
ATOM      7  C   UNL     1      -2.852  10.086  16.444  0.00  0.00    +0.000 A 
ATOM      8  C   UNL     1      -1.638   9.830  17.093  0.00  0.00    +0.000 A 
ENDBRANCH   1   2
BRANCH   1  12
ATOM      9  O   UNL     1       2.728   8.652  17.159  0.00  0.00    +0.000 OA
ATOM     10  C   UNL     1       1.910   8.732  18.069  0.00  0.00    +0.000 C 
ATOM     11  N   UNL     1       1.863   7.884  19.124  0.00  0.00    +0.000 N 
ATOM     12  N   UNL     1       1.065   9.784  18.075  0.00  0.00    +0.000 N 
ATOM     13  H   UNL     1       0.978   7.739  19.579  0.00  0.00    +0.000 HD
ATOM     14  H   UNL     1       1.276  10.397  17.297  0.00  0.00    +0.000 HD
BRANCH  11  15
ATOM     15  C   UNL     1       2.833   6.814  19.256  0.00  0.00    +0.000 C 
BRANCH  15  16
ATOM     16  C   UNL     1       2.166   5.463  19.318  0.00  0.00    +0.000 A 
ATOM     17  C   UNL     1       1.732   4.956  20.550  0.00  0.00    +0.000 A 
ATOM     18  C   UNL     1       1.113   3.702  20.621  0.00  0.00    +0.000 A 
ATOM     19  C   UNL     1       0.941   2.945  19.459  0.00  0.00    +0.000 A 
ATOM     20  C   UNL     1       1.382   3.439  18.235  0.00  0.00    +0.000 A 
ATOM     21  C   UNL     1       1.997   4.691  18.166  0.00  0.00    +0.000 A 
ENDBRANCH  15  16
ENDBRANCH  11  15
ENDBRANCH   1  12
BRANCH   1  22
ATOM     22  C   UNL     1       0.499  11.380  19.956  0.00  0.00    +0.000 C 
BRANCH  22  23
ATOM     23  N   UNL     1       0.125  11.375  21.359  0.00  0.00    +0.000 N 
ATOM     24  C   UNL     1       0.158  10.274  22.176  0.00  0.00    +0.000 A 
ATOM     25  N   UNL     1      -0.748  10.334  23.124  0.00  0.00    +0.000 NA
ATOM     26  C   UNL     1      -1.401  11.516  22.917  0.00  0.00    +0.000 A 
ATOM     27  C   UNL     1      -2.564  11.999  23.531  0.00  0.00    +0.000 A 
ATOM     28  C   UNL     1      -3.073  13.237  23.127  0.00  0.00    +0.000 A 
ATOM     29  C   UNL     1      -2.397  14.008  22.179  0.00  0.00    +0.000 A 
ATOM     30  C   UNL     1      -1.238  13.538  21.547  0.00  0.00    +0.000 A 
ATOM     31  C   UNL     1      -0.797  12.255  21.902  0.00  0.00    +0.000 A 
ENDBRANCH  22  23
ENDBRANCH   1  22
TORSDOF 6
ENDMDL
MODEL 5
REMARK VINA RESULT:      -8.8      3.870      8.094
REMARK  Name = 
REMARK  6 active torsions:
REMARK  status: ('A' for Active; 'I' for Inactive)
REMARK    1  A    between atoms: N_3  and  C_4
REMARK    2  A    between atoms: C_4  and  C_5
REMARK    3  A    between atoms: N_11  and  C_12
REMARK    4  A    between atoms: C_12  and  C_13
REMARK    5  A    between atoms: C_12  and  C_23
REMARK    6  A    between atoms: C_13  and  N_14
REMARK                            x       y       z     vdW  Elec       q    Type
REMARK                         _______ _______ _______ _____ _____    ______ ____
ROOT
ATOM      1  C   UNL     1       4.605   5.172  17.306  0.00  0.00    +0.000 C 
ENDROOT
BRANCH   1   2
ATOM      2  C   UNL     1       3.720   6.237  17.976  0.00  0.00    +0.000 A 
ATOM      3  C   UNL     1       3.388   7.430  17.294  0.00  0.00    +0.000 A 
ATOM      4  C   UNL     1       2.577   8.408  17.878  0.00  0.00    +0.000 A 
ATOM      5  C   UNL     1       2.039   8.186  19.135  0.00  0.00    +0.000 A 
ATOM      6  F   UNL     1       1.248   9.111  19.690  0.00  0.00    +0.000 F 
ATOM      7  C   UNL     1       2.298   7.006  19.815  0.00  0.00    +0.000 A 
ATOM      8  C   UNL     1       3.132   6.038  19.241  0.00  0.00    +0.000 A 
ENDBRANCH   1   2
BRANCH   1  12
ATOM      9  O   UNL     1       7.745   6.146  15.756  0.00  0.00    +0.000 OA
ATOM     10  C   UNL     1       6.650   5.595  15.788  0.00  0.00    +0.000 C 
ATOM     11  N   UNL     1       6.184   4.776  14.816  0.00  0.00    +0.000 N 
ATOM     12  N   UNL     1       5.900   5.733  16.901  0.00  0.00    +0.000 N 
ATOM     13  H   UNL     1       5.189   4.703  14.692  0.00  0.00    +0.000 HD
ATOM     14  H   UNL     1       6.407   6.276  17.590  0.00  0.00    +0.000 HD
BRANCH  11  15
ATOM     15  C   UNL     1       6.997   4.468  13.656  0.00  0.00    +0.000 C 
BRANCH  15  16
ATOM     16  C   UNL     1       6.252   3.607  12.667  0.00  0.00    +0.000 A 
ATOM     17  C   UNL     1       6.901   2.526  12.057  0.00  0.00    +0.000 A 
ATOM     18  C   UNL     1       6.222   1.719  11.135  0.00  0.00    +0.000 A 
ATOM     19  C   UNL     1       4.892   2.003  10.812  0.00  0.00    +0.000 A 
ATOM     20  C   UNL     1       4.247   3.083  11.406  0.00  0.00    +0.000 A 
ATOM     21  C   UNL     1       4.926   3.885  12.326  0.00  0.00    +0.000 A 
ENDBRANCH  15  16
ENDBRANCH  11  15
ENDBRANCH   1  12
BRANCH   1  22
ATOM     22  C   UNL     1       4.725   3.824  18.077  0.00  0.00    +0.000 C 
BRANCH  22  23
ATOM     23  N   UNL     1       3.555   2.983  18.258  0.00  0.00    +0.000 N 
ATOM     24  C   UNL     1       2.585   2.776  17.312  0.00  0.00    +0.000 A 
ATOM     25  N   UNL     1       1.412   2.540  17.851  0.00  0.00    +0.000 NA
ATOM     26  C   UNL     1       1.622   2.600  19.199  0.00  0.00    +0.000 A 
ATOM     27  C   UNL     1       0.682   2.592  20.239  0.00  0.00    +0.000 A 
ATOM     28  C   UNL     1       1.136   2.699  21.557  0.00  0.00    +0.000 A 
ATOM     29  C   UNL     1       2.504   2.743  21.836  0.00  0.00    +0.000 A 
ATOM     30  C   UNL     1       3.458   2.762  20.810  0.00  0.00    +0.000 A 
ATOM     31  C   UNL     1       2.975   2.746  19.493  0.00  0.00    +0.000 A 
ENDBRANCH  22  23
ENDBRANCH   1  22
TORSDOF 6
ENDMDL
MODEL 6
REMARK VINA RESULT:      -8.7      2.656      4.553
REMARK  Name = 
REMARK  6 active torsions:
REMARK  status: ('A' for Active; 'I' for Inactive)
REMARK    1  A    between atoms: N_3  and  C_4
REMARK    2  A    between atoms: C_4  and  C_5
REMARK    3  A    between atoms: N_11  and  C_12
REMARK    4  A    between atoms: C_12  and  C_13
REMARK    5  A    between atoms: C_12  and  C_23
REMARK    6  A    between atoms: C_13  and  N_14
REMARK                            x       y       z     vdW  Elec       q    Type
REMARK                         _______ _______ _______ _____ _____    ______ ____
ROOT
ATOM      1  C   UNL     1       3.178   6.964  18.408  0.00  0.00    +0.000 C 
ENDROOT
BRANCH   1   2
ATOM      2  C   UNL     1       4.452   6.259  17.912  0.00  0.00    +0.000 A 
ATOM      3  C   UNL     1       5.287   5.563  18.815  0.00  0.00    +0.000 A 
ATOM      4  C   UNL     1       6.445   4.905  18.386  0.00  0.00    +0.000 A 
ATOM      5  C   UNL     1       6.758   4.887  17.038  0.00  0.00    +0.000 A 
ATOM      6  F   UNL     1       7.855   4.243  16.621  0.00  0.00    +0.000 F 
ATOM      7  C   UNL     1       5.936   5.513  16.113  0.00  0.00    +0.000 A 
ATOM      8  C   UNL     1       4.791   6.194  16.546  0.00  0.00    +0.000 A 
ENDBRANCH   1   2
BRANCH   1  12
ATOM      9  O   UNL     1       2.196  10.254  17.217  0.00  0.00    +0.000 OA
ATOM     10  C   UNL     1       2.145   9.289  17.972  0.00  0.00    +0.000 C 
ATOM     11  N   UNL     1       1.217   9.135  18.945  0.00  0.00    +0.000 N 
ATOM     12  N   UNL     1       3.006   8.270  17.763  0.00  0.00    +0.000 N 
ATOM     13  H   UNL     1       1.459   8.586  19.752  0.00  0.00    +0.000 HD
ATOM     14  H   UNL     1       3.570   8.462  16.943  0.00  0.00    +0.000 HD
BRANCH  11  15
ATOM     15  C   UNL     1       0.172  10.123  19.133  0.00  0.00    +0.000 C 
BRANCH  15  16
ATOM     16  C   UNL     1      -0.238  10.229  20.581  0.00  0.00    +0.000 A 
ATOM     17  C   UNL     1      -0.819  11.413  21.055  0.00  0.00    +0.000 A 
ATOM     18  C   UNL     1      -1.202  11.526  22.397  0.00  0.00    +0.000 A 
ATOM     19  C   UNL     1      -0.991  10.457  23.272  0.00  0.00    +0.000 A 
ATOM     20  C   UNL     1      -0.404   9.284  22.808  0.00  0.00    +0.000 A 
ATOM     21  C   UNL     1      -0.024   9.173  21.469  0.00  0.00    +0.000 A 
ENDBRANCH  15  16
ENDBRANCH  11  15
ENDBRANCH   1  12
BRANCH   1  22
ATOM     22  C   UNL     1       1.887   6.091  18.399  0.00  0.00    +0.000 C 
BRANCH  22  23
ATOM     23  N   UNL     1       1.796   4.920  19.253  0.00  0.00    +0.000 N 
ATOM     24  C   UNL     1       1.700   4.951  20.620  0.00  0.00    +0.000 A 
ATOM     25  N   UNL     1       2.236   3.891  21.177  0.00  0.00    +0.000 NA
ATOM     26  C   UNL     1       2.704   3.141  20.137  0.00  0.00    +0.000 A 
ATOM     27  C   UNL     1       3.511   1.995  20.169  0.00  0.00    +0.000 A 
ATOM     28  C   UNL     1       3.897   1.411  18.959  0.00  0.00    +0.000 A 
ATOM     29  C   UNL     1       3.430   1.917  17.744  0.00  0.00    +0.000 A 
ATOM     30  C   UNL     1       2.630   3.066  17.691  0.00  0.00    +0.000 A 
ATOM     31  C   UNL     1       2.331   3.688  18.912  0.00  0.00    +0.000 A 
ENDBRANCH  22  23
ENDBRANCH   1  22
TORSDOF 6
ENDMDL
MODEL 7
REMARK VINA RESULT:      -8.7      3.554      8.531
REMARK  Name = 
REMARK  6 active torsions:
REMARK  status: ('A' for Active; 'I' for Inactive)
REMARK    1  A    between atoms: N_3  and  C_4
REMARK    2  A    between atoms: C_4  and  C_5
REMARK    3  A    between atoms: N_11  and  C_12
REMARK    4  A    between atoms: C_12  and  C_13
REMARK    5  A    between atoms: C_12  and  C_23
REMARK    6  A    between atoms: C_13  and  N_14
REMARK                            x       y       z     vdW  Elec       q    Type
REMARK                         _______ _______ _______ _____ _____    ______ ____
ROOT
ATOM      1  C   UNL     1       0.175  10.398  18.855  0.00  0.00    +0.000 C 
ENDROOT
BRANCH   1   2
ATOM      2  C   UNL     1      -1.220  10.606  18.242  0.00  0.00    +0.000 A 
ATOM      3  C   UNL     1      -1.624   9.866  17.107  0.00  0.00    +0.000 A 
ATOM      4  C   UNL     1      -2.891  10.030  16.537  0.00  0.00    +0.000 A 
ATOM      5  C   UNL     1      -3.795  10.899  17.125  0.00  0.00    +0.000 A 
ATOM      6  F   UNL     1      -5.015  11.045  16.593  0.00  0.00    +0.000 F 
ATOM      7  C   UNL     1      -3.455  11.604  18.269  0.00  0.00    +0.000 A 
ATOM      8  C   UNL     1      -2.177  11.459  18.824  0.00  0.00    +0.000 A 
ENDBRANCH   1   2
BRANCH   1  12
ATOM      9  O   UNL     1       2.596   8.381  17.044  0.00  0.00    +0.000 OA
ATOM     10  C   UNL     1       1.886   8.662  18.003  0.00  0.00    +0.000 C 
ATOM     11  N   UNL     1       1.924   8.016  19.192  0.00  0.00    +0.000 N 
ATOM     12  N   UNL     1       1.083   9.743  17.906  0.00  0.00    +0.000 N 
ATOM     13  H   UNL     1       1.090   8.000  19.753  0.00  0.00    +0.000 HD
ATOM     14  H   UNL     1       1.229  10.198  17.012  0.00  0.00    +0.000 HD
BRANCH  11  15
ATOM     15  C   UNL     1       2.866   6.936  19.416  0.00  0.00    +0.000 C 
BRANCH  15  16
ATOM     16  C   UNL     1       2.192   5.588  19.347  0.00  0.00    +0.000 A 
ATOM     17  C   UNL     1       1.695   4.997  20.516  0.00  0.00    +0.000 A 
ATOM     18  C   UNL     1       1.069   3.745  20.467  0.00  0.00    +0.000 A 
ATOM     19  C   UNL     1       0.954   3.074  19.246  0.00  0.00    +0.000 A 
ATOM     20  C   UNL     1       1.457   3.652  18.085  0.00  0.00    +0.000 A 
ATOM     21  C   UNL     1       2.079   4.901  18.136  0.00  0.00    +0.000 A 
ENDBRANCH  15  16
ENDBRANCH  11  15
ENDBRANCH   1  12
BRANCH   1  22
ATOM     22  C   UNL     1       0.794  11.651  19.543  0.00  0.00    +0.000 C 
BRANCH  22  23
ATOM     23  N   UNL     1       1.363  12.717  18.736  0.00  0.00    +0.000 N 
ATOM     24  C   UNL     1       2.674  12.788  18.342  0.00  0.00    +0.000 A 
ATOM     25  N   UNL     1       3.079  14.028  18.197  0.00  0.00    +0.000 NA
ATOM     26  C   UNL     1       1.995  14.796  18.512  0.00  0.00    +0.000 A 
ATOM     27  C   UNL     1       1.918  16.185  18.688  0.00  0.00    +0.000 A 
ATOM     28  C   UNL     1       0.692  16.750  19.046  0.00  0.00    +0.000 A 
ATOM     29  C   UNL     1      -0.452  15.957  19.160  0.00  0.00    +0.000 A 
ATOM     30  C   UNL     1      -0.394  14.566  18.997  0.00  0.00    +0.000 A 
ATOM     31  C   UNL     1       0.865  14.010  18.728  0.00  0.00    +0.000 A 
ENDBRANCH  22  23
ENDBRANCH   1  22
TORSDOF 6
ENDMDL
MODEL 8
REMARK VINA RESULT:      -8.6      2.658      4.539
REMARK  Name = 
REMARK  6 active torsions:
REMARK  status: ('A' for Active; 'I' for Inactive)
REMARK    1  A    between atoms: N_3  and  C_4
REMARK    2  A    between atoms: C_4  and  C_5
REMARK    3  A    between atoms: N_11  and  C_12
REMARK    4  A    between atoms: C_12  and  C_13
REMARK    5  A    between atoms: C_12  and  C_23
REMARK    6  A    between atoms: C_13  and  N_14
REMARK                            x       y       z     vdW  Elec       q    Type
REMARK                         _______ _______ _______ _____ _____    ______ ____
ROOT
ATOM      1  C   UNL     1       3.163   6.949  18.419  0.00  0.00    +0.000 C 
ENDROOT
BRANCH   1   2
ATOM      2  C   UNL     1       4.403   6.201  17.900  0.00  0.00    +0.000 A 
ATOM      3  C   UNL     1       4.781   6.292  16.541  0.00  0.00    +0.000 A 
ATOM      4  C   UNL     1       5.910   5.630  16.048  0.00  0.00    +0.000 A 
ATOM      5  C   UNL     1       6.712   4.909  16.917  0.00  0.00    +0.000 A 
ATOM      6  F   UNL     1       7.804   4.290  16.453  0.00  0.00    +0.000 F 
ATOM      7  C   UNL     1       6.405   4.840  18.268  0.00  0.00    +0.000 A 
ATOM      8  C   UNL     1       5.259   5.481  18.756  0.00  0.00    +0.000 A 
ENDBRANCH   1   2
BRANCH   1  12
ATOM      9  O   UNL     1       2.256  10.259  17.222  0.00  0.00    +0.000 OA
ATOM     10  C   UNL     1       2.184   9.297  17.980  0.00  0.00    +0.000 C 
ATOM     11  N   UNL     1       1.254   9.166  18.955  0.00  0.00    +0.000 N 
ATOM     12  N   UNL     1       3.020   8.258  17.771  0.00  0.00    +0.000 N 
ATOM     13  H   UNL     1       1.486   8.614  19.763  0.00  0.00    +0.000 HD
ATOM     14  H   UNL     1       3.586   8.435  16.949  0.00  0.00    +0.000 HD
BRANCH  11  15
ATOM     15  C   UNL     1       0.233  10.179  19.143  0.00  0.00    +0.000 C 
BRANCH  15  16
ATOM     16  C   UNL     1      -0.191  10.278  20.587  0.00  0.00    +0.000 A 
ATOM     17  C   UNL     1       0.029   9.199  21.454  0.00  0.00    +0.000 A 
ATOM     18  C   UNL     1      -0.362   9.277  22.796  0.00  0.00    +0.000 A 
ATOM     19  C   UNL     1      -0.990  10.432  23.270  0.00  0.00    +0.000 A 
ATOM     20  C   UNL     1      -1.222  11.501  22.411  0.00  0.00    +0.000 A 
ATOM     21  C   UNL     1      -0.829  11.422  21.073  0.00  0.00    +0.000 A 
ENDBRANCH  15  16
ENDBRANCH  11  15
ENDBRANCH   1  12
BRANCH   1  22
ATOM     22  C   UNL     1       1.845   6.118  18.439  0.00  0.00    +0.000 C 
BRANCH  22  23
ATOM     23  N   UNL     1       1.749   4.927  19.263  0.00  0.00    +0.000 N 
ATOM     24  C   UNL     1       1.683   4.923  20.632  0.00  0.00    +0.000 A 
ATOM     25  N   UNL     1       2.211   3.838  21.149  0.00  0.00    +0.000 NA
ATOM     26  C   UNL     1       2.643   3.108  20.080  0.00  0.00    +0.000 A 
ATOM     27  C   UNL     1       3.429   1.948  20.064  0.00  0.00    +0.000 A 
ATOM     28  C   UNL     1       3.778   1.389  18.831  0.00  0.00    +0.000 A 
ATOM     29  C   UNL     1       3.296   1.936  17.640  0.00  0.00    +0.000 A 
ATOM     30  C   UNL     1       2.516   3.100  17.635  0.00  0.00    +0.000 A 
ATOM     31  C   UNL     1       2.255   3.695  18.878  0.00  0.00    +0.000 A 
ENDBRANCH  22  23
ENDBRANCH   1  22
TORSDOF 6
ENDMDL
MODEL 9
REMARK VINA RESULT:      -8.6      1.570      2.435
REMARK  Name = 
REMARK  6 active torsions:
REMARK  status: ('A' for Active; 'I' for Inactive)
REMARK    1  A    between atoms: N_3  and  C_4
REMARK    2  A    between atoms: C_4  and  C_5
REMARK    3  A    between atoms: N_11  and  C_12
REMARK    4  A    between atoms: C_12  and  C_13
REMARK    5  A    between atoms: C_12  and  C_23
REMARK    6  A    between atoms: C_13  and  N_14
REMARK                            x       y       z     vdW  Elec       q    Type
REMARK                         _______ _______ _______ _____ _____    ______ ____
ROOT
ATOM      1  C   UNL     1       2.492   6.727  19.121  0.00  0.00    +0.000 C 
ENDROOT
BRANCH   1   2
ATOM      2  C   UNL     1       1.959   5.285  19.067  0.00  0.00    +0.000 A 
ATOM      3  C   UNL     1       1.512   4.639  20.242  0.00  0.00    +0.000 A 
ATOM      4  C   UNL     1       1.013   3.332  20.216  0.00  0.00    +0.000 A 
ATOM      5  C   UNL     1       0.903   2.668  19.006  0.00  0.00    +0.000 A 
ATOM      6  F   UNL     1       0.409   1.424  18.975  0.00  0.00    +0.000 F 
ATOM      7  C   UNL     1       1.282   3.287  17.825  0.00  0.00    +0.000 A 
ATOM      8  C   UNL     1       1.806   4.585  17.854  0.00  0.00    +0.000 A 
ENDBRANCH   1   2
BRANCH   1  12
ATOM      9  O   UNL     1       1.487   8.765  21.958  0.00  0.00    +0.000 OA
ATOM     10  C   UNL     1       1.493   8.438  20.775  0.00  0.00    +0.000 C 
ATOM     11  N   UNL     1       0.906   9.154  19.787  0.00  0.00    +0.000 N 
ATOM     12  N   UNL     1       2.209   7.351  20.419  0.00  0.00    +0.000 N 
ATOM     13  H   UNL     1       0.590   8.664  18.968  0.00  0.00    +0.000 HD
ATOM     14  H   UNL     1       2.685   6.974  21.230  0.00  0.00    +0.000 HD
BRANCH  11  15
ATOM     15  C   UNL     1       0.242  10.409  20.078  0.00  0.00    +0.000 C 
BRANCH  15  16
ATOM     16  C   UNL     1       1.123  11.591  19.760  0.00  0.00    +0.000 A 
ATOM     17  C   UNL     1       1.308  12.599  20.716  0.00  0.00    +0.000 A 
ATOM     18  C   UNL     1       2.122  13.703  20.433  0.00  0.00    +0.000 A 
ATOM     19  C   UNL     1       2.741  13.808  19.185  0.00  0.00    +0.000 A 
ATOM     20  C   UNL     1       2.551  12.815  18.229  0.00  0.00    +0.000 A 
ATOM     21  C   UNL     1       1.740  11.714  18.513  0.00  0.00    +0.000 A 
ENDBRANCH  15  16
ENDBRANCH  11  15
ENDBRANCH   1  12
BRANCH   1  22
ATOM     22  C   UNL     1       3.966   6.910  18.652  0.00  0.00    +0.000 C 
BRANCH  22  23
ATOM     23  N   UNL     1       4.824   5.751  18.482  0.00  0.00    +0.000 N 
ATOM     24  C   UNL     1       5.670   5.254  19.440  0.00  0.00    +0.000 A 
ATOM     25  N   UNL     1       6.722   4.671  18.915  0.00  0.00    +0.000 NA
ATOM     26  C   UNL     1       6.561   4.794  17.565  0.00  0.00    +0.000 A 
ATOM     27  C   UNL     1       7.468   4.499  16.538  0.00  0.00    +0.000 A 
ATOM     28  C   UNL     1       7.088   4.742  15.215  0.00  0.00    +0.000 A 
ATOM     29  C   UNL     1       5.804   5.204  14.917  0.00  0.00    +0.000 A 
ATOM     30  C   UNL     1       4.886   5.513  15.930  0.00  0.00    +0.000 A 
ATOM     31  C   UNL     1       5.322   5.348  17.253  0.00  0.00    +0.000 A 
ENDBRANCH  22  23
ENDBRANCH   1  22
TORSDOF 6
ENDMDL
