MODEL 1
REMARK VINA RESULT:      -8.1      0.000      0.000
REMARK  Name = 
REMARK  5 active torsions:
REMARK  status: ('A' for Active; 'I' for Inactive)
REMARK    1  A    between atoms: C_1  and  N_2
REMARK    2  A    between atoms: C_6  and  C_7
REMARK    3  A    between atoms: C_7  and  C_8
REMARK    4  A    between atoms: C_12  and  N_13
REMARK    5  A    between atoms: C_20  and  C_21
REMARK                            x       y       z     vdW  Elec       q    Type
REMARK                         _______ _______ _______ _____ _____    ______ ____
ROOT
ATOM      1  C   UNL     1      -4.639  11.410  17.540  0.00  0.00    +0.000 A 
ATOM      2  C   UNL     1      -4.107  11.004  16.311  0.00  0.00    +0.000 A 
ATOM      3  C   UNL     1      -2.789  10.568  16.219  0.00  0.00    +0.000 A 
ATOM      4  C   UNL     1      -1.956  10.638  17.328  0.00  0.00    +0.000 A 
ATOM      5  C   UNL     1      -2.392  11.331  18.468  0.00  0.00    +0.000 A 
ATOM      6  C   UNL     1      -3.767  11.575  18.627  0.00  0.00    +0.000 A 
ENDROOT
BRANCH   5   7
ATOM      7  N   UNL     1      -1.443  12.193  19.168  0.00  0.00    +0.000 N 
ATOM      8  C   UNL     1      -0.061  11.836  18.771  0.00  0.00    +0.000 C 
ATOM      9  C   UNL     1       0.290  10.783  19.780  0.00  0.00    +0.000 A 
ATOM     10  C   UNL     1      -0.444  11.060  20.937  0.00  0.00    +0.000 A 
ATOM     11  C   UNL     1      -0.481  10.209  22.029  0.00  0.00    +0.000 A 
ATOM     12  C   UNL     1       0.246   9.024  21.937  0.00  0.00    +0.000 A 
ATOM     13  C   UNL     1       0.965   8.713  20.767  0.00  0.00    +0.000 A 
ATOM     14  C   UNL     1       0.997   9.588  19.659  0.00  0.00    +0.000 A 
ATOM     15  C   UNL     1      -1.457  12.090  20.584  0.00  0.00    +0.000 C 
ATOM     16  O   UNL     1      -2.257  12.552  21.377  0.00  0.00    +0.000 OA
BRANCH  14  17
ATOM     17  C   UNL     1       1.665   9.130  18.387  0.00  0.00    +0.000 C 
ATOM     18  F   UNL     1       0.810   8.811  17.379  0.00  0.00    +0.000 F 
ATOM     19  F   UNL     1       2.498  10.078  17.876  0.00  0.00    +0.000 F 
ATOM     20  F   UNL     1       2.439   8.023  18.578  0.00  0.00    +0.000 F 
ENDBRANCH  14  17
ENDBRANCH   5   7
BRANCH   1  21
ATOM     21  C   UNL     1      -6.124  11.628  17.676  0.00  0.00    +0.000 C 
BRANCH  21  27
ATOM     22  C   UNL     1      -6.890  12.998  20.429  0.00  0.00    +0.000 C 
ATOM     23  N   UNL     1      -7.401  11.761  19.891  0.00  0.00    +0.000 N 
ATOM     24  C   UNL     1      -7.898  10.754  20.806  0.00  0.00    +0.000 C 
ATOM     25  N   UNL     1      -7.615   9.473  20.173  0.00  0.00    +0.000 N 
ATOM     26  N   UNL     1      -6.926   9.712  18.994  0.00  0.00    +0.000 NA
ATOM     27  C   UNL     1      -6.791  11.019  18.885  0.00  0.00    +0.000 C 
ATOM     28  H   UNL     1      -8.489   8.994  19.953  0.00  0.00    +0.000 HD
ENDBRANCH  21  27
ENDBRANCH   1  21
TORSDOF 4
ENDMDL
MODEL 2
REMARK VINA RESULT:      -7.8      4.715      7.174
REMARK  Name = 
REMARK  5 active torsions:
REMARK  status: ('A' for Active; 'I' for Inactive)
REMARK    1  A    between atoms: C_1  and  N_2
REMARK    2  A    between atoms: C_6  and  C_7
REMARK    3  A    between atoms: C_7  and  C_8
REMARK    4  A    between atoms: C_12  and  N_13
REMARK    5  A    between atoms: C_20  and  C_21
REMARK                            x       y       z     vdW  Elec       q    Type
REMARK                         _______ _______ _______ _____ _____    ______ ____
ROOT
ATOM      1  C   UNL     1       1.419   9.092  19.154  0.00  0.00    +0.000 A 
ATOM      2  C   UNL     1       1.050   8.471  20.353  0.00  0.00    +0.000 A 
ATOM      3  C   UNL     1       1.655   7.283  20.751  0.00  0.00    +0.000 A 
ATOM      4  C   UNL     1       2.552   6.644  19.905  0.00  0.00    +0.000 A 
ATOM      5  C   UNL     1       2.685   7.095  18.583  0.00  0.00    +0.000 A 
ATOM      6  C   UNL     1       2.245   8.391  18.262  0.00  0.00    +0.000 A 
ENDROOT
BRANCH   5   7
ATOM      7  N   UNL     1       2.785   6.106  17.513  0.00  0.00    +0.000 N 
ATOM      8  C   UNL     1       1.827   5.004  17.763  0.00  0.00    +0.000 C 
ATOM      9  C   UNL     1       2.648   4.060  18.590  0.00  0.00    +0.000 A 
ATOM     10  C   UNL     1       3.983   4.241  18.218  0.00  0.00    +0.000 A 
ATOM     11  C   UNL     1       5.039   3.636  18.879  0.00  0.00    +0.000 A 
ATOM     12  C   UNL     1       4.727   2.826  19.969  0.00  0.00    +0.000 A 
ATOM     13  C   UNL     1       3.391   2.658  20.379  0.00  0.00    +0.000 A 
ATOM     14  C   UNL     1       2.321   3.279  19.697  0.00  0.00    +0.000 A 
ATOM     15  C   UNL     1       4.049   5.471  17.386  0.00  0.00    +0.000 C 
ATOM     16  O   UNL     1       5.077   5.905  16.899  0.00  0.00    +0.000 OA
BRANCH  14  17
ATOM     17  C   UNL     1       0.931   3.174  20.273  0.00  0.00    +0.000 C 
ATOM     18  F   UNL     1       0.043   2.498  19.497  0.00  0.00    +0.000 F 
ATOM     19  F   UNL     1       0.922   2.542  21.479  0.00  0.00    +0.000 F 
ATOM     20  F   UNL     1       0.368   4.398  20.494  0.00  0.00    +0.000 F 
ENDBRANCH  14  17
ENDBRANCH   5   7
BRANCH   1  21
ATOM     21  C   UNL     1       0.952  10.495  18.866  0.00  0.00    +0.000 C 
BRANCH  21  27
ATOM     22  C   UNL     1      -1.263  11.941  20.611  0.00  0.00    +0.000 C 
ATOM     23  N   UNL     1      -1.327  11.611  19.209  0.00  0.00    +0.000 N 
ATOM     24  C   UNL     1      -2.624  11.414  18.595  0.00  0.00    +0.000 C 
ATOM     25  N   UNL     1      -2.420  10.420  17.550  0.00  0.00    +0.000 N 
ATOM     26  N   UNL     1      -1.098  10.003  17.598  0.00  0.00    +0.000 NA
ATOM     27  C   UNL     1      -0.518  10.674  18.574  0.00  0.00    +0.000 C 
ATOM     28  H   UNL     1      -2.602  10.835  16.636  0.00  0.00    +0.000 HD
ENDBRANCH  21  27
ENDBRANCH   1  21
TORSDOF 4
ENDMDL
MODEL 3
REMARK VINA RESULT:      -7.8      8.370     11.536
REMARK  Name = 
REMARK  5 active torsions:
REMARK  status: ('A' for Active; 'I' for Inactive)
REMARK    1  A    between atoms: C_1  and  N_2
REMARK    2  A    between atoms: C_6  and  C_7
REMARK    3  A    between atoms: C_7  and  C_8
REMARK    4  A    between atoms: C_12  and  N_13
REMARK    5  A    between atoms: C_20  and  C_21
REMARK                            x       y       z     vdW  Elec       q    Type
REMARK                         _______ _______ _______ _____ _____    ______ ____
ROOT
ATOM      1  C   UNL     1       6.287   4.405  16.687  0.00  0.00    +0.000 A 
ATOM      2  C   UNL     1       7.499   4.871  17.209  0.00  0.00    +0.000 A 
ATOM      3  C   UNL     1       7.578   5.319  18.524  0.00  0.00    +0.000 A 
ATOM      4  C   UNL     1       6.427   5.413  19.295  0.00  0.00    +0.000 A 
ATOM      5  C   UNL     1       5.177   5.247  18.680  0.00  0.00    +0.000 A 
ATOM      6  C   UNL     1       5.116   4.599  17.434  0.00  0.00    +0.000 A 
ENDROOT
BRANCH   5   7
ATOM      7  N   UNL     1       4.088   6.145  19.055  0.00  0.00    +0.000 N 
ATOM      8  C   UNL     1       3.438   5.649  20.291  0.00  0.00    +0.000 C 
ATOM      9  C   UNL     1       2.378   4.740  19.742  0.00  0.00    +0.000 A 
ATOM     10  C   UNL     1       2.026   5.233  18.481  0.00  0.00    +0.000 A 
ATOM     11  C   UNL     1       1.177   4.560  17.619  0.00  0.00    +0.000 A 
ATOM     12  C   UNL     1       0.676   3.332  18.048  0.00  0.00    +0.000 A 
ATOM     13  C   UNL     1       1.046   2.805  19.300  0.00  0.00    +0.000 A 
ATOM     14  C   UNL     1       1.912   3.500  20.173  0.00  0.00    +0.000 A 
ATOM     15  C   UNL     1       3.037   6.258  18.108  0.00  0.00    +0.000 C 
ATOM     16  O   UNL     1       3.013   6.882  17.063  0.00  0.00    +0.000 OA
BRANCH  14  17
ATOM     17  C   UNL     1       2.380   2.816  21.433  0.00  0.00    +0.000 C 
ATOM     18  F   UNL     1       3.600   2.223  21.338  0.00  0.00    +0.000 F 
ATOM     19  F   UNL     1       2.472   3.680  22.481  0.00  0.00    +0.000 F 
ATOM     20  F   UNL     1       1.524   1.834  21.839  0.00  0.00    +0.000 F 
ENDBRANCH  14  17
ENDBRANCH   5   7
BRANCH   1  21
ATOM     21  C   UNL     1       6.272   3.686  15.362  0.00  0.00    +0.000 C 
BRANCH  21  27
ATOM     22  C   UNL     1       6.184   2.965  12.277  0.00  0.00    +0.000 C 
ATOM     23  N   UNL     1       6.573   4.218  12.876  0.00  0.00    +0.000 N 
ATOM     24  C   UNL     1       7.484   5.084  12.155  0.00  0.00    +0.000 C 
ATOM     25  N   UNL     1       8.260   5.777  13.175  0.00  0.00    +0.000 N 
ATOM     26  N   UNL     1       7.880   5.291  14.417  0.00  0.00    +0.000 NA
ATOM     27  C   UNL     1       6.947   4.383  14.206  0.00  0.00    +0.000 C 
ATOM     28  H   UNL     1       8.065   6.778  13.139  0.00  0.00    +0.000 HD
ENDBRANCH  21  27
ENDBRANCH   1  21
TORSDOF 4
ENDMDL
MODEL 4
REMARK VINA RESULT:      -7.7      4.622      7.173
REMARK  Name = 
REMARK  5 active torsions:
REMARK  status: ('A' for Active; 'I' for Inactive)
REMARK    1  A    between atoms: C_1  and  N_2
REMARK    2  A    between atoms: C_6  and  C_7
REMARK    3  A    between atoms: C_7  and  C_8
REMARK    4  A    between atoms: C_12  and  N_13
REMARK    5  A    between atoms: C_20  and  C_21
REMARK                            x       y       z     vdW  Elec       q    Type
REMARK                         _______ _______ _______ _____ _____    ______ ____
ROOT
ATOM      1  C   UNL     1       1.243   9.155  19.433  0.00  0.00    +0.000 A 
ATOM      2  C   UNL     1       1.950   9.561  18.295  0.00  0.00    +0.000 A 
ATOM      3  C   UNL     1       2.671   8.639  17.543  0.00  0.00    +0.000 A 
ATOM      4  C   UNL     1       2.786   7.326  17.980  0.00  0.00    +0.000 A 
ATOM      5  C   UNL     1       2.347   6.994  19.270  0.00  0.00    +0.000 A 
ATOM      6  C   UNL     1       1.449   7.856  19.922  0.00  0.00    +0.000 A 
ENDROOT
BRANCH   5   7
ATOM      7  N   UNL     1       3.167   6.097  20.079  0.00  0.00    +0.000 N 
ATOM      8  C   UNL     1       4.373   5.700  19.314  0.00  0.00    +0.000 C 
ATOM      9  C   UNL     1       3.896   4.471  18.598  0.00  0.00    +0.000 A 
ATOM     10  C   UNL     1       2.905   3.889  19.394  0.00  0.00    +0.000 A 
ATOM     11  C   UNL     1       2.137   2.814  18.977  0.00  0.00    +0.000 A 
ATOM     12  C   UNL     1       2.377   2.320  17.696  0.00  0.00    +0.000 A 
ATOM     13  C   UNL     1       3.348   2.915  16.868  0.00  0.00    +0.000 A 
ATOM     14  C   UNL     1       4.127   4.010  17.304  0.00  0.00    +0.000 A 
ATOM     15  C   UNL     1       2.549   4.874  20.450  0.00  0.00    +0.000 C 
ATOM     16  O   UNL     1       1.713   4.669  21.311  0.00  0.00    +0.000 OA
BRANCH  14  17
ATOM     17  C   UNL     1       5.046   4.688  16.319  0.00  0.00    +0.000 C 
ATOM     18  F   UNL     1       6.347   4.750  16.706  0.00  0.00    +0.000 F 
ATOM     19  F   UNL     1       5.051   4.064  15.109  0.00  0.00    +0.000 F 
ATOM     20  F   UNL     1       4.674   5.977  16.067  0.00  0.00    +0.000 F 
ENDBRANCH  14  17
ENDBRANCH   5   7
BRANCH   1  21
ATOM     21  C   UNL     1       0.265  10.101  20.081  0.00  0.00    +0.000 C 
BRANCH  21  27
ATOM     22  C   UNL     1       0.831  13.170  20.632  0.00  0.00    +0.000 C 
ATOM     23  N   UNL     1       0.430  12.560  19.388  0.00  0.00    +0.000 N 
ATOM     24  C   UNL     1      -0.284  13.361  18.415  0.00  0.00    +0.000 C 
ATOM     25  N   UNL     1      -1.175  12.439  17.723  0.00  0.00    +0.000 N 
ATOM     26  N   UNL     1      -1.046  11.188  18.306  0.00  0.00    +0.000 NA
ATOM     27  C   UNL     1      -0.154  11.303  19.270  0.00  0.00    +0.000 C 
ATOM     28  H   UNL     1      -0.910  12.374  16.740  0.00  0.00    +0.000 HD
ENDBRANCH  21  27
ENDBRANCH   1  21
TORSDOF 4
ENDMDL
MODEL 5
REMARK VINA RESULT:      -7.7      1.985      2.637
REMARK  Name = 
REMARK  5 active torsions:
REMARK  status: ('A' for Active; 'I' for Inactive)
REMARK    1  A    between atoms: C_1  and  N_2
REMARK    2  A    between atoms: C_6  and  C_7
REMARK    3  A    between atoms: C_7  and  C_8
REMARK    4  A    between atoms: C_12  and  N_13
REMARK    5  A    between atoms: C_20  and  C_21
REMARK                            x       y       z     vdW  Elec       q    Type
REMARK                         _______ _______ _______ _____ _____    ______ ____
ROOT
ATOM      1  C   UNL     1      -3.850  11.442  17.637  0.00  0.00    +0.000 A 
ATOM      2  C   UNL     1      -3.694  10.628  16.509  0.00  0.00    +0.000 A 
ATOM      3  C   UNL     1      -2.571   9.820  16.368  0.00  0.00    +0.000 A 
ATOM      4  C   UNL     1      -1.540   9.898  17.295  0.00  0.00    +0.000 A 
ATOM      5  C   UNL     1      -1.552  10.930  18.245  0.00  0.00    +0.000 A 
ATOM      6  C   UNL     1      -2.762  11.592  18.511  0.00  0.00    +0.000 A 
ENDROOT
BRANCH   5   7
ATOM      7  N   UNL     1      -0.298  11.616  18.548  0.00  0.00    +0.000 N 
ATOM      8  C   UNL     1       0.483  10.818  19.522  0.00  0.00    +0.000 C 
ATOM      9  C   UNL     1      -0.019  11.349  20.832  0.00  0.00    +0.000 A 
ATOM     10  C   UNL     1      -0.411  12.674  20.617  0.00  0.00    +0.000 A 
ATOM     11  C   UNL     1      -1.061  13.434  21.575  0.00  0.00    +0.000 A 
ATOM     12  C   UNL     1      -1.335  12.819  22.795  0.00  0.00    +0.000 A 
ATOM     13  C   UNL     1      -0.978  11.476  23.018  0.00  0.00    +0.000 A 
ATOM     14  C   UNL     1      -0.314  10.710  22.035  0.00  0.00    +0.000 A 
ATOM     15  C   UNL     1      -0.433  12.896  19.146  0.00  0.00    +0.000 C 
ATOM     16  O   UNL     1      -0.733  13.956  18.627  0.00  0.00    +0.000 OA
BRANCH  14  17
ATOM     17  C   UNL     1      -0.089   9.240  22.284  0.00  0.00    +0.000 C 
ATOM     18  F   UNL     1      -0.381   8.826  23.545  0.00  0.00    +0.000 F 
ATOM     19  F   UNL     1      -0.838   8.459  21.457  0.00  0.00    +0.000 F 
ATOM     20  F   UNL     1       1.207   8.869  22.066  0.00  0.00    +0.000 F 
ENDBRANCH  14  17
ENDBRANCH   5   7
BRANCH   1  21
ATOM     21  C   UNL     1      -5.177  12.107  17.902  0.00  0.00    +0.000 C 
BRANCH  21  27
ATOM     22  C   UNL     1      -5.399  12.573  21.028  0.00  0.00    +0.000 C 
ATOM     23  N   UNL     1      -6.363  11.939  20.164  0.00  0.00    +0.000 N 
ATOM     24  C   UNL     1      -7.276  10.966  20.730  0.00  0.00    +0.000 C 
ATOM     25  N   UNL     1      -7.537  10.005  19.667  0.00  0.00    +0.000 N 
ATOM     26  N   UNL     1      -6.765  10.350  18.568  0.00  0.00    +0.000 NA
ATOM     27  C   UNL     1      -6.086  11.431  18.899  0.00  0.00    +0.000 C 
ATOM     28  H   UNL     1      -8.522  10.040  19.402  0.00  0.00    +0.000 HD
ENDBRANCH  21  27
ENDBRANCH   1  21
TORSDOF 4
ENDMDL
MODEL 6
REMARK VINA RESULT:      -7.7      4.627      7.319
REMARK  Name = 
REMARK  5 active torsions:
REMARK  status: ('A' for Active; 'I' for Inactive)
REMARK    1  A    between atoms: C_1  and  N_2
REMARK    2  A    between atoms: C_6  and  C_7
REMARK    3  A    between atoms: C_7  and  C_8
REMARK    4  A    between atoms: C_12  and  N_13
REMARK    5  A    between atoms: C_20  and  C_21
REMARK                            x       y       z     vdW  Elec       q    Type
REMARK                         _______ _______ _______ _____ _____    ______ ____
ROOT
ATOM      1  C   UNL     1       1.412   8.939  19.586  0.00  0.00    +0.000 A 
ATOM      2  C   UNL     1       1.996   9.270  18.357  0.00  0.00    +0.000 A 
ATOM      3  C   UNL     1       2.593   8.291  17.571  0.00  0.00    +0.000 A 
ATOM      4  C   UNL     1       2.715   6.993  18.051  0.00  0.00    +0.000 A 
ATOM      5  C   UNL     1       2.416   6.732  19.397  0.00  0.00    +0.000 A 
ATOM      6  C   UNL     1       1.629   7.655  20.108  0.00  0.00    +0.000 A 
ENDROOT
BRANCH   5   7
ATOM      7  N   UNL     1       3.293   5.838  20.148  0.00  0.00    +0.000 N 
ATOM      8  C   UNL     1       4.468   5.482  19.318  0.00  0.00    +0.000 C 
ATOM      9  C   UNL     1       3.982   4.257  18.602  0.00  0.00    +0.000 A 
ATOM     10  C   UNL     1       3.044   3.639  19.434  0.00  0.00    +0.000 A 
ATOM     11  C   UNL     1       2.279   2.555  19.034  0.00  0.00    +0.000 A 
ATOM     12  C   UNL     1       2.466   2.090  17.733  0.00  0.00    +0.000 A 
ATOM     13  C   UNL     1       3.383   2.721  16.871  0.00  0.00    +0.000 A 
ATOM     14  C   UNL     1       4.159   3.824  17.289  0.00  0.00    +0.000 A 
ATOM     15  C   UNL     1       2.720   4.596  20.525  0.00  0.00    +0.000 C 
ATOM     16  O   UNL     1       1.932   4.357  21.422  0.00  0.00    +0.000 OA
BRANCH  14  17
ATOM     17  C   UNL     1       5.014   4.541  16.274  0.00  0.00    +0.000 C 
ATOM     18  F   UNL     1       4.692   5.847  16.080  0.00  0.00    +0.000 F 
ATOM     19  F   UNL     1       6.331   4.533  16.617  0.00  0.00    +0.000 F 
ATOM     20  F   UNL     1       4.952   3.959  15.041  0.00  0.00    +0.000 F 
ENDBRANCH  14  17
ENDBRANCH   5   7
BRANCH   1  21
ATOM     21  C   UNL     1       0.547   9.948  20.297  0.00  0.00    +0.000 C 
BRANCH  21  27
ATOM     22  C   UNL     1      -1.644  10.140  18.016  0.00  0.00    +0.000 C 
ATOM     23  N   UNL     1      -1.078  11.222  18.784  0.00  0.00    +0.000 N 
ATOM     24  C   UNL     1      -1.054  12.551  18.207  0.00  0.00    +0.000 C 
ATOM     25  N   UNL     1       0.139  13.192  18.743  0.00  0.00    +0.000 N 
ATOM     26  N   UNL     1       0.814  12.270  19.527  0.00  0.00    +0.000 NA
ATOM     27  C   UNL     1       0.114  11.153  19.498  0.00  0.00    +0.000 C 
ATOM     28  H   UNL     1      -0.127  13.988  19.325  0.00  0.00    +0.000 HD
ENDBRANCH  21  27
ENDBRANCH   1  21
TORSDOF 4
ENDMDL
MODEL 7
REMARK VINA RESULT:      -7.6      4.682      7.077
REMARK  Name = 
REMARK  5 active torsions:
REMARK  status: ('A' for Active; 'I' for Inactive)
REMARK    1  A    between atoms: C_1  and  N_2
REMARK    2  A    between atoms: C_6  and  C_7
REMARK    3  A    between atoms: C_7  and  C_8
REMARK    4  A    between atoms: C_12  and  N_13
REMARK    5  A    between atoms: C_20  and  C_21
REMARK                            x       y       z     vdW  Elec       q    Type
REMARK                         _______ _______ _______ _____ _____    ______ ____
ROOT
ATOM      1  C   UNL     1       1.453   9.001  19.171  0.00  0.00    +0.000 A 
ATOM      2  C   UNL     1       2.262   9.371  18.090  0.00  0.00    +0.000 A 
ATOM      3  C   UNL     1       3.037   8.425  17.429  0.00  0.00    +0.000 A 
ATOM      4  C   UNL     1       3.099   7.122  17.907  0.00  0.00    +0.000 A 
ATOM      5  C   UNL     1       2.543   6.827  19.161  0.00  0.00    +0.000 A 
ATOM      6  C   UNL     1       1.600   7.714  19.709  0.00  0.00    +0.000 A 
ENDROOT
BRANCH   5   7
ATOM      7  N   UNL     1       3.279   5.944  20.062  0.00  0.00    +0.000 N 
ATOM      8  C   UNL     1       4.510   5.463  19.392  0.00  0.00    +0.000 C 
ATOM      9  C   UNL     1       4.026   4.217  18.712  0.00  0.00    +0.000 A 
ATOM     10  C   UNL     1       2.968   3.715  19.475  0.00  0.00    +0.000 A 
ATOM     11  C   UNL     1       2.183   2.649  19.068  0.00  0.00    +0.000 A 
ATOM     12  C   UNL     1       2.476   2.079  17.831  0.00  0.00    +0.000 A 
ATOM     13  C   UNL     1       3.517   2.592  17.033  0.00  0.00    +0.000 A 
ATOM     14  C   UNL     1       4.312   3.679  17.458  0.00  0.00    +0.000 A 
ATOM     15  C   UNL     1       2.592   4.766  20.457  0.00  0.00    +0.000 C 
ATOM     16  O   UNL     1       1.700   4.639  21.276  0.00  0.00    +0.000 OA
BRANCH  14  17
ATOM     17  C   UNL     1       5.314   4.270  16.497  0.00  0.00    +0.000 C 
ATOM     18  F   UNL     1       4.899   5.402  15.869  0.00  0.00    +0.000 F 
ATOM     19  F   UNL     1       6.483   4.598  17.113  0.00  0.00    +0.000 F 
ATOM     20  F   UNL     1       5.653   3.400  15.502  0.00  0.00    +0.000 F 
ENDBRANCH  14  17
ENDBRANCH   5   7
BRANCH   1  21
ATOM     21  C   UNL     1       0.431   9.971  19.706  0.00  0.00    +0.000 C 
BRANCH  21  27
ATOM     22  C   UNL     1      -1.677  12.311  20.062  0.00  0.00    +0.000 C 
ATOM     23  N   UNL     1      -1.230  11.712  18.829  0.00  0.00    +0.000 N 
ATOM     24  C   UNL     1      -2.108  11.745  17.677  0.00  0.00    +0.000 C 
ATOM     25  N   UNL     1      -1.823  10.529  16.928  0.00  0.00    +0.000 N 
ATOM     26  N   UNL     1      -0.889   9.790  17.637  0.00  0.00    +0.000 NA
ATOM     27  C   UNL     1      -0.603  10.474  18.727  0.00  0.00    +0.000 C 
ATOM     28  H   UNL     1      -1.432  10.767  16.016  0.00  0.00    +0.000 HD
ENDBRANCH  21  27
ENDBRANCH   1  21
TORSDOF 4
ENDMDL
MODEL 8
REMARK VINA RESULT:      -7.6      4.890      7.598
REMARK  Name = 
REMARK  5 active torsions:
REMARK  status: ('A' for Active; 'I' for Inactive)
REMARK    1  A    between atoms: C_1  and  N_2
REMARK    2  A    between atoms: C_6  and  C_7
REMARK    3  A    between atoms: C_7  and  C_8
REMARK    4  A    between atoms: C_12  and  N_13
REMARK    5  A    between atoms: C_20  and  C_21
REMARK                            x       y       z     vdW  Elec       q    Type
REMARK                         _______ _______ _______ _____ _____    ______ ____
ROOT
ATOM      1  C   UNL     1       1.812   8.937  18.699  0.00  0.00    +0.000 A 
ATOM      2  C   UNL     1       1.377   8.468  19.944  0.00  0.00    +0.000 A 
ATOM      3  C   UNL     1       1.872   7.278  20.465  0.00  0.00    +0.000 A 
ATOM      4  C   UNL     1       2.721   6.486  19.702  0.00  0.00    +0.000 A 
ATOM      5  C   UNL     1       2.908   6.795  18.346  0.00  0.00    +0.000 A 
ATOM      6  C   UNL     1       2.585   8.086  17.895  0.00  0.00    +0.000 A 
ENDROOT
BRANCH   5   7
ATOM      7  N   UNL     1       2.935   5.702  17.377  0.00  0.00    +0.000 N 
ATOM      8  C   UNL     1       1.906   4.697  17.733  0.00  0.00    +0.000 C 
ATOM      9  C   UNL     1       2.667   3.784  18.648  0.00  0.00    +0.000 A 
ATOM     10  C   UNL     1       4.010   3.838  18.260  0.00  0.00    +0.000 A 
ATOM     11  C   UNL     1       5.027   3.230  18.977  0.00  0.00    +0.000 A 
ATOM     12  C   UNL     1       4.668   2.552  20.141  0.00  0.00    +0.000 A 
ATOM     13  C   UNL     1       3.326   2.516  20.565  0.00  0.00    +0.000 A 
ATOM     14  C   UNL     1       2.296   3.137  19.825  0.00  0.00    +0.000 A 
ATOM     15  C   UNL     1       4.152   4.975  17.313  0.00  0.00    +0.000 C 
ATOM     16  O   UNL     1       5.204   5.289  16.787  0.00  0.00    +0.000 OA
BRANCH  14  17
ATOM     17  C   UNL     1       0.905   3.183  20.408  0.00  0.00    +0.000 C 
ATOM     18  F   UNL     1       0.398   4.433  20.572  0.00  0.00    +0.000 F 
ATOM     19  F   UNL     1       0.003   2.519  19.634  0.00  0.00    +0.000 F 
ATOM     20  F   UNL     1       0.839   2.594  21.638  0.00  0.00    +0.000 F 
ENDBRANCH  14  17
ENDBRANCH   5   7
BRANCH   1  21
ATOM     21  C   UNL     1       1.472  10.341  18.269  0.00  0.00    +0.000 C 
BRANCH  21  27
ATOM     22  C   UNL     1      -1.673  10.489  17.900  0.00  0.00    +0.000 C 
ATOM     23  N   UNL     1      -0.911  10.802  19.084  0.00  0.00    +0.000 N 
ATOM     24  C   UNL     1      -1.462  11.738  20.043  0.00  0.00    +0.000 C 
ATOM     25  N   UNL     1      -0.318  12.422  20.630  0.00  0.00    +0.000 N 
ATOM     26  N   UNL     1       0.831  11.968  20.000  0.00  0.00    +0.000 NA
ATOM     27  C   UNL     1       0.452  11.077  19.104  0.00  0.00    +0.000 C 
ATOM     28  H   UNL     1      -0.257  12.204  21.625  0.00  0.00    +0.000 HD
ENDBRANCH  21  27
ENDBRANCH   1  21
TORSDOF 4
ENDMDL
MODEL 9
REMARK VINA RESULT:      -7.5      4.679      7.333
REMARK  Name = 
REMARK  5 active torsions:
REMARK  status: ('A' for Active; 'I' for Inactive)
REMARK    1  A    between atoms: C_1  and  N_2
REMARK    2  A    between atoms: C_6  and  C_7
REMARK    3  A    between atoms: C_7  and  C_8
REMARK    4  A    between atoms: C_12  and  N_13
REMARK    5  A    between atoms: C_20  and  C_21
REMARK                            x       y       z     vdW  Elec       q    Type
REMARK                         _______ _______ _______ _____ _____    ______ ____
ROOT
ATOM      1  C   UNL     1       1.422   9.201  19.280  0.00  0.00    +0.000 A 
ATOM      2  C   UNL     1       1.001   8.556  20.449  0.00  0.00    +0.000 A 
ATOM      3  C   UNL     1       1.546   7.332  20.818  0.00  0.00    +0.000 A 
ATOM      4  C   UNL     1       2.434   6.683  19.969  0.00  0.00    +0.000 A 
ATOM      5  C   UNL     1       2.615   7.173  18.666  0.00  0.00    +0.000 A 
ATOM      6  C   UNL     1       2.237   8.496  18.381  0.00  0.00    +0.000 A 
ENDROOT
BRANCH   5   7
ATOM      7  N   UNL     1       2.697   6.216  17.565  0.00  0.00    +0.000 N 
ATOM      8  C   UNL     1       1.757   5.096  17.808  0.00  0.00    +0.000 C 
ATOM      9  C   UNL     1       2.611   4.138  18.585  0.00  0.00    +0.000 A 
ATOM     10  C   UNL     1       3.934   4.345  18.182  0.00  0.00    +0.000 A 
ATOM     11  C   UNL     1       5.014   3.734  18.796  0.00  0.00    +0.000 A 
ATOM     12  C   UNL     1       4.741   2.889  19.870  0.00  0.00    +0.000 A 
ATOM     13  C   UNL     1       3.418   2.694  20.310  0.00  0.00    +0.000 A 
ATOM     14  C   UNL     1       2.323   3.321  19.676  0.00  0.00    +0.000 A 
ATOM     15  C   UNL     1       3.963   5.601  17.385  0.00  0.00    +0.000 C 
ATOM     16  O   UNL     1       4.973   6.060  16.884  0.00  0.00    +0.000 OA
BRANCH  14  17
ATOM     17  C   UNL     1       0.950   3.183  20.286  0.00  0.00    +0.000 C 
ATOM     18  F   UNL     1       0.919   2.519  21.472  0.00  0.00    +0.000 F 
ATOM     19  F   UNL     1       0.373   4.392  20.525  0.00  0.00    +0.000 F 
ATOM     20  F   UNL     1       0.085   2.517  19.468  0.00  0.00    +0.000 F 
ENDBRANCH  14  17
ENDBRANCH   5   7
BRANCH   1  21
ATOM     21  C   UNL     1       1.021  10.632  19.030  0.00  0.00    +0.000 C 
BRANCH  21  27
ATOM     22  C   UNL     1      -2.023  11.513  18.966  0.00  0.00    +0.000 C 
ATOM     23  N   UNL     1      -1.186  11.330  20.125  0.00  0.00    +0.000 N 
ATOM     24  C   UNL     1      -1.498  12.062  21.336  0.00  0.00    +0.000 C 
ATOM     25  N   UNL     1      -0.220  12.311  21.988  0.00  0.00    +0.000 N 
ATOM     26  N   UNL     1       0.788  11.822  21.171  0.00  0.00    +0.000 NA
ATOM     27  C   UNL     1       0.205  11.305  20.107  0.00  0.00    +0.000 C 
ATOM     28  H   UNL     1      -0.186  11.822  22.883  0.00  0.00    +0.000 HD
ENDBRANCH  21  27
ENDBRANCH   1  21
TORSDOF 4
ENDMDL
