MODEL 1
REMARK VINA RESULT:      -8.4      0.000      0.000
REMARK  Name = 
REMARK  7 active torsions:
REMARK  status: ('A' for Active; 'I' for Inactive)
REMARK    1  A    between atoms: C_1  and  C_2
REMARK    2  A    between atoms: C_2  and  N_3
REMARK    3  A    between atoms: C_2  and  C_22
REMARK    4  A    between atoms: C_4  and  C_6
REMARK    5  A    between atoms: C_10  and  C_11
REMARK    6  A    between atoms: C_11  and  S_12
REMARK    7  A    between atoms: S_12  and  C_15
REMARK                            x       y       z     vdW  Elec       q    Type
REMARK                         _______ _______ _______ _____ _____    ______ ____
ROOT
ATOM      1  C   UNL     1       2.566   7.414  19.097  0.00  0.00    +0.000 A 
ATOM      2  C   UNL     1       2.546   8.250  17.977  0.00  0.00    +0.000 A 
ATOM      3  C   UNL     1       1.653   9.321  17.931  0.00  0.00    +0.000 A 
ATOM      4  C   UNL     1       0.767   9.551  18.988  0.00  0.00    +0.000 A 
ATOM      5  C   UNL     1       0.767   8.730  20.126  0.00  0.00    +0.000 A 
ATOM      6  C   UNL     1       1.678   7.657  20.164  0.00  0.00    +0.000 A 
ENDROOT
BRANCH   1   8
ATOM      7  N   UNL     1       4.656   6.284  18.496  0.00  0.00    +0.000 N 
ATOM      8  C   UNL     1       3.447   6.212  19.158  0.00  0.00    +0.000 C 
ATOM      9  O   UNL     1       3.074   5.224  19.782  0.00  0.00    +0.000 OA
ATOM     10  H   UNL     1       4.926   7.143  18.042  0.00  0.00    +0.000 HD
BRANCH   7  12
ATOM     11  C   UNL     1       6.865   5.371  19.175  0.00  0.00    +0.000 C 
ATOM     12  C   UNL     1       5.563   5.145  18.397  0.00  0.00    +0.000 C 
BRANCH  12  13
ATOM     13  C   UNL     1       5.860   4.840  16.938  0.00  0.00    +0.000 A 
ATOM     14  C   UNL     1       7.086   5.197  16.346  0.00  0.00    +0.000 A 
ATOM     15  C   UNL     1       7.339   4.899  15.004  0.00  0.00    +0.000 A 
ATOM     16  C   UNL     1       6.372   4.246  14.249  0.00  0.00    +0.000 A 
ATOM     17  F   UNL     1       6.619   3.963  12.965  0.00  0.00    +0.000 F 
ATOM     18  C   UNL     1       5.154   3.883  14.807  0.00  0.00    +0.000 A 
ATOM     19  C   UNL     1       4.909   4.183  16.144  0.00  0.00    +0.000 A 
ATOM     20  F   UNL     1       3.731   3.823  16.669  0.00  0.00    +0.000 F 
ENDBRANCH  12  13
ENDBRANCH   7  12
ENDBRANCH   1   8
BRANCH   5  21
ATOM     21  C   UNL     1      -0.242   8.922  21.247  0.00  0.00    +0.000 C 
BRANCH  21  22
ATOM     22  S   UNL     1       0.194  10.332  22.261  0.00  0.00    +0.000 S 
ATOM     23  O   UNL     1       0.206   9.925  23.654  0.00  0.00    +0.000 OA
ATOM     24  O   UNL     1       1.346  10.996  21.677  0.00  0.00    +0.000 OA
BRANCH  22  25
ATOM     25  C   UNL     1      -1.173  11.480  22.094  0.00  0.00    +0.000 A 
ATOM     26  C   UNL     1      -1.498  11.981  20.829  0.00  0.00    +0.000 A 
ATOM     27  C   UNL     1      -2.687  12.695  20.653  0.00  0.00    +0.000 A 
ATOM     28  C   UNL     1      -3.551  12.897  21.731  0.00  0.00    +0.000 A 
ATOM     29  C   UNL     1      -3.215  12.411  22.996  0.00  0.00    +0.000 A 
ATOM     30  C   UNL     1      -2.028  11.700  23.182  0.00  0.00    +0.000 A 
ENDBRANCH  22  25
ENDBRANCH  21  22
ENDBRANCH   5  21
TORSDOF 6
ENDMDL
MODEL 2
REMARK VINA RESULT:      -8.3      3.961      9.380
REMARK  Name = 
REMARK  7 active torsions:
REMARK  status: ('A' for Active; 'I' for Inactive)
REMARK    1  A    between atoms: C_1  and  C_2
REMARK    2  A    between atoms: C_2  and  N_3
REMARK    3  A    between atoms: C_2  and  C_22
REMARK    4  A    between atoms: C_4  and  C_6
REMARK    5  A    between atoms: C_10  and  C_11
REMARK    6  A    between atoms: C_11  and  S_12
REMARK    7  A    between atoms: S_12  and  C_15
REMARK                            x       y       z     vdW  Elec       q    Type
REMARK                         _______ _______ _______ _____ _____    ______ ____
ROOT
ATOM      1  C   UNL     1       1.886   8.154  18.995  0.00  0.00    +0.000 A 
ATOM      2  C   UNL     1       1.698   7.773  20.327  0.00  0.00    +0.000 A 
ATOM      3  C   UNL     1       2.006   6.471  20.723  0.00  0.00    +0.000 A 
ATOM      4  C   UNL     1       2.483   5.542  19.793  0.00  0.00    +0.000 A 
ATOM      5  C   UNL     1       2.685   5.898  18.451  0.00  0.00    +0.000 A 
ATOM      6  C   UNL     1       2.378   7.217  18.065  0.00  0.00    +0.000 A 
ENDROOT
BRANCH   1   8
ATOM      7  N   UNL     1       0.437  10.125  19.142  0.00  0.00    +0.000 N 
ATOM      8  C   UNL     1       1.498   9.509  18.509  0.00  0.00    +0.000 C 
ATOM      9  O   UNL     1       2.122  10.019  17.584  0.00  0.00    +0.000 OA
ATOM     10  H   UNL     1      -0.005   9.674  19.929  0.00  0.00    +0.000 HD
BRANCH   7  12
ATOM     11  C   UNL     1       0.211  12.540  19.682  0.00  0.00    +0.000 C 
ATOM     12  C   UNL     1      -0.104  11.406  18.698  0.00  0.00    +0.000 C 
BRANCH  12  13
ATOM     13  C   UNL     1      -1.603  11.291  18.478  0.00  0.00    +0.000 A 
ATOM     14  C   UNL     1      -2.517  12.064  19.218  0.00  0.00    +0.000 A 
ATOM     15  C   UNL     1      -3.892  11.947  18.993  0.00  0.00    +0.000 A 
ATOM     16  C   UNL     1      -4.358  11.060  18.029  0.00  0.00    +0.000 A 
ATOM     17  F   UNL     1      -5.675  10.951  17.817  0.00  0.00    +0.000 F 
ATOM     18  C   UNL     1      -3.479  10.286  17.285  0.00  0.00    +0.000 A 
ATOM     19  C   UNL     1      -2.112  10.407  17.516  0.00  0.00    +0.000 A 
ATOM     20  F   UNL     1      -1.276   9.656  16.786  0.00  0.00    +0.000 F 
ENDBRANCH  12  13
ENDBRANCH   7  12
ENDBRANCH   1   8
BRANCH   5  21
ATOM     21  C   UNL     1       3.131   4.878  17.415  0.00  0.00    +0.000 C 
BRANCH  21  22
ATOM     22  S   UNL     1       4.666   4.099  17.908  0.00  0.00    +0.000 S 
ATOM     23  O   UNL     1       4.498   3.518  19.227  0.00  0.00    +0.000 OA
ATOM     24  O   UNL     1       5.162   3.293  16.806  0.00  0.00    +0.000 OA
BRANCH  22  25
ATOM     25  C   UNL     1       5.839   5.440  18.104  0.00  0.00    +0.000 A 
ATOM     26  C   UNL     1       6.827   5.350  19.090  0.00  0.00    +0.000 A 
ATOM     27  C   UNL     1       7.873   6.276  19.109  0.00  0.00    +0.000 A 
ATOM     28  C   UNL     1       7.938   7.280  18.141  0.00  0.00    +0.000 A 
ATOM     29  C   UNL     1       6.941   7.379  17.169  0.00  0.00    +0.000 A 
ATOM     30  C   UNL     1       5.891   6.460  17.145  0.00  0.00    +0.000 A 
ENDBRANCH  22  25
ENDBRANCH  21  22
ENDBRANCH   5  21
TORSDOF 6
ENDMDL
MODEL 3
REMARK VINA RESULT:      -8.3      4.285      9.649
REMARK  Name = 
REMARK  7 active torsions:
REMARK  status: ('A' for Active; 'I' for Inactive)
REMARK    1  A    between atoms: C_1  and  C_2
REMARK    2  A    between atoms: C_2  and  N_3
REMARK    3  A    between atoms: C_2  and  C_22
REMARK    4  A    between atoms: C_4  and  C_6
REMARK    5  A    between atoms: C_10  and  C_11
REMARK    6  A    between atoms: C_11  and  S_12
REMARK    7  A    between atoms: S_12  and  C_15
REMARK                            x       y       z     vdW  Elec       q    Type
REMARK                         _______ _______ _______ _____ _____    ______ ____
ROOT
ATOM      1  C   UNL     1       2.902   6.913  18.423  0.00  0.00    +0.000 A 
ATOM      2  C   UNL     1       2.832   6.325  19.689  0.00  0.00    +0.000 A 
ATOM      3  C   UNL     1       3.356   5.047  19.887  0.00  0.00    +0.000 A 
ATOM      4  C   UNL     1       3.932   4.345  18.825  0.00  0.00    +0.000 A 
ATOM      5  C   UNL     1       4.019   4.911  17.544  0.00  0.00    +0.000 A 
ATOM      6  C   UNL     1       3.494   6.204  17.358  0.00  0.00    +0.000 A 
ENDROOT
BRANCH   1   8
ATOM      7  N   UNL     1       1.601   8.847  19.178  0.00  0.00    +0.000 N 
ATOM      8  C   UNL     1       2.286   8.242  18.144  0.00  0.00    +0.000 C 
ATOM      9  O   UNL     1       2.409   8.741  17.031  0.00  0.00    +0.000 OA
ATOM     10  H   UNL     1       1.577   8.408  20.086  0.00  0.00    +0.000 HD
BRANCH   7  12
ATOM     11  C   UNL     1       1.793  11.255  18.595  0.00  0.00    +0.000 C 
ATOM     12  C   UNL     1       0.872  10.100  19.007  0.00  0.00    +0.000 C 
BRANCH  12  13
ATOM     13  C   UNL     1       0.121  10.445  20.282  0.00  0.00    +0.000 A 
ATOM     14  C   UNL     1       0.347   9.746  21.483  0.00  0.00    +0.000 A 
ATOM     15  C   UNL     1      -0.350  10.087  22.645  0.00  0.00    +0.000 A 
ATOM     16  C   UNL     1      -1.274  11.125  22.614  0.00  0.00    +0.000 A 
ATOM     17  F   UNL     1      -1.940  11.447  23.729  0.00  0.00    +0.000 F 
ATOM     18  C   UNL     1      -1.518  11.830  21.444  0.00  0.00    +0.000 A 
ATOM     19  C   UNL     1      -0.821  11.485  20.291  0.00  0.00    +0.000 A 
ATOM     20  F   UNL     1      -1.063  12.178  19.170  0.00  0.00    +0.000 F 
ENDBRANCH  12  13
ENDBRANCH   7  12
ENDBRANCH   1   8
BRANCH   5  21
ATOM     21  C   UNL     1       4.574   4.130  16.363  0.00  0.00    +0.000 C 
BRANCH  21  22
ATOM     22  S   UNL     1       5.870   5.053  15.541  0.00  0.00    +0.000 S 
ATOM     23  O   UNL     1       6.665   4.139  14.742  0.00  0.00    +0.000 OA
ATOM     24  O   UNL     1       5.295   6.245  14.944  0.00  0.00    +0.000 OA
BRANCH  22  25
ATOM     25  C   UNL     1       6.949   5.630  16.852  0.00  0.00    +0.000 A 
ATOM     26  C   UNL     1       7.142   7.004  17.028  0.00  0.00    +0.000 A 
ATOM     27  C   UNL     1       7.797   7.469  18.171  0.00  0.00    +0.000 A 
ATOM     28  C   UNL     1       8.246   6.568  19.138  0.00  0.00    +0.000 A 
ATOM     29  C   UNL     1       8.069   5.196  18.951  0.00  0.00    +0.000 A 
ATOM     30  C   UNL     1       7.419   4.722  17.810  0.00  0.00    +0.000 A 
ENDBRANCH  22  25
ENDBRANCH  21  22
ENDBRANCH   5  21
TORSDOF 6
ENDMDL
MODEL 4
REMARK VINA RESULT:      -8.2      3.834      9.785
REMARK  Name = 
REMARK  7 active torsions:
REMARK  status: ('A' for Active; 'I' for Inactive)
REMARK    1  A    between atoms: C_1  and  C_2
REMARK    2  A    between atoms: C_2  and  N_3
REMARK    3  A    between atoms: C_2  and  C_22
REMARK    4  A    between atoms: C_4  and  C_6
REMARK    5  A    between atoms: C_10  and  C_11
REMARK    6  A    between atoms: C_11  and  S_12
REMARK    7  A    between atoms: S_12  and  C_15
REMARK                            x       y       z     vdW  Elec       q    Type
REMARK                         _______ _______ _______ _____ _____    ______ ____
ROOT
ATOM      1  C   UNL     1       1.754   8.117  19.240  0.00  0.00    +0.000 A 
ATOM      2  C   UNL     1       1.389   7.888  20.570  0.00  0.00    +0.000 A 
ATOM      3  C   UNL     1       1.630   6.641  21.148  0.00  0.00    +0.000 A 
ATOM      4  C   UNL     1       2.215   5.615  20.400  0.00  0.00    +0.000 A 
ATOM      5  C   UNL     1       2.594   5.817  19.064  0.00  0.00    +0.000 A 
ATOM      6  C   UNL     1       2.353   7.082  18.494  0.00  0.00    +0.000 A 
ENDROOT
BRANCH   1   8
ATOM      7  N   UNL     1       0.513  10.229  19.156  0.00  0.00    +0.000 N 
ATOM      8  C   UNL     1       1.445   9.406  18.557  0.00  0.00    +0.000 C 
ATOM      9  O   UNL     1       2.020   9.685  17.510  0.00  0.00    +0.000 OA
ATOM     10  H   UNL     1       0.111   9.965  20.043  0.00  0.00    +0.000 HD
BRANCH   7  12
ATOM     11  C   UNL     1       0.654  12.709  19.212  0.00  0.00    +0.000 C 
ATOM     12  C   UNL     1       0.051  11.468  18.540  0.00  0.00    +0.000 C 
BRANCH  12  13
ATOM     13  C   UNL     1      -1.466  11.531  18.568  0.00  0.00    +0.000 A 
ATOM     14  C   UNL     1      -2.154  12.324  19.505  0.00  0.00    +0.000 A 
ATOM     15  C   UNL     1      -3.551  12.372  19.506  0.00  0.00    +0.000 A 
ATOM     16  C   UNL     1      -4.266  11.630  18.573  0.00  0.00    +0.000 A 
ATOM     17  F   UNL     1      -5.603  11.679  18.578  0.00  0.00    +0.000 F 
ATOM     18  C   UNL     1      -3.614  10.839  17.638  0.00  0.00    +0.000 A 
ATOM     19  C   UNL     1      -2.223  10.796  17.643  0.00  0.00    +0.000 A 
ATOM     20  F   UNL     1      -1.608  10.032  16.731  0.00  0.00    +0.000 F 
ENDBRANCH  12  13
ENDBRANCH   7  12
ENDBRANCH   1   8
BRANCH   5  21
ATOM     21  C   UNL     1       3.160   4.689  18.217  0.00  0.00    +0.000 C 
BRANCH  21  22
ATOM     22  S   UNL     1       4.897   4.435  18.573  0.00  0.00    +0.000 S 
ATOM     23  O   UNL     1       5.420   5.616  19.236  0.00  0.00    +0.000 OA
ATOM     24  O   UNL     1       5.072   3.121  19.165  0.00  0.00    +0.000 OA
BRANCH  22  25
ATOM     25  C   UNL     1       5.706   4.368  16.975  0.00  0.00    +0.000 A 
ATOM     26  C   UNL     1       4.943   4.127  15.828  0.00  0.00    +0.000 A 
ATOM     27  C   UNL     1       5.520   4.290  14.566  0.00  0.00    +0.000 A 
ATOM     28  C   UNL     1       6.849   4.702  14.450  0.00  0.00    +0.000 A 
ATOM     29  C   UNL     1       7.614   4.923  15.596  0.00  0.00    +0.000 A 
ATOM     30  C   UNL     1       7.046   4.759  16.861  0.00  0.00    +0.000 A 
ENDBRANCH  22  25
ENDBRANCH  21  22
ENDBRANCH   5  21
TORSDOF 6
ENDMDL
MODEL 5
REMARK VINA RESULT:      -8.0      3.881      9.260
REMARK  Name = 
REMARK  7 active torsions:
REMARK  status: ('A' for Active; 'I' for Inactive)
REMARK    1  A    between atoms: C_1  and  C_2
REMARK    2  A    between atoms: C_2  and  N_3
REMARK    3  A    between atoms: C_2  and  C_22
REMARK    4  A    between atoms: C_4  and  C_6
REMARK    5  A    between atoms: C_10  and  C_11
REMARK    6  A    between atoms: C_11  and  S_12
REMARK    7  A    between atoms: S_12  and  C_15
REMARK                            x       y       z     vdW  Elec       q    Type
REMARK                         _______ _______ _______ _____ _____    ______ ____
ROOT
ATOM      1  C   UNL     1       1.991   7.312  19.077  0.00  0.00    +0.000 A 
ATOM      2  C   UNL     1       1.852   7.182  20.463  0.00  0.00    +0.000 A 
ATOM      3  C   UNL     1       1.900   5.916  21.046  0.00  0.00    +0.000 A 
ATOM      4  C   UNL     1       2.067   4.777  20.253  0.00  0.00    +0.000 A 
ATOM      5  C   UNL     1       2.214   4.877  18.861  0.00  0.00    +0.000 A 
ATOM      6  C   UNL     1       2.172   6.161  18.284  0.00  0.00    +0.000 A 
ENDROOT
BRANCH   1   8
ATOM      7  N   UNL     1       1.122   9.603  19.044  0.00  0.00    +0.000 N 
ATOM      8  C   UNL     1       1.868   8.636  18.401  0.00  0.00    +0.000 C 
ATOM      9  O   UNL     1       2.424   8.814  17.323  0.00  0.00    +0.000 OA
ATOM     10  H   UNL     1       0.730   9.410  19.953  0.00  0.00    +0.000 HD
BRANCH   7  12
ATOM     11  C   UNL     1       1.751  12.006  19.002  0.00  0.00    +0.000 C 
ATOM     12  C   UNL     1       0.843  10.904  18.443  0.00  0.00    +0.000 C 
BRANCH  12  13
ATOM     13  C   UNL     1      -0.619  11.266  18.639  0.00  0.00    +0.000 A 
ATOM     14  C   UNL     1      -1.018  12.244  19.569  0.00  0.00    +0.000 A 
ATOM     15  C   UNL     1      -2.369  12.566  19.726  0.00  0.00    +0.000 A 
ATOM     16  C   UNL     1      -3.326  11.915  18.956  0.00  0.00    +0.000 A 
ATOM     17  F   UNL     1      -4.618  12.226  19.110  0.00  0.00    +0.000 F 
ATOM     18  C   UNL     1      -2.962  10.946  18.032  0.00  0.00    +0.000 A 
ATOM     19  C   UNL     1      -1.615  10.631  17.881  0.00  0.00    +0.000 A 
ATOM     20  F   UNL     1      -1.278   9.697  16.982  0.00  0.00    +0.000 F 
ENDBRANCH  12  13
ENDBRANCH   7  12
ENDBRANCH   1   8
BRANCH   5  21
ATOM     21  C   UNL     1       2.321   3.643  17.980  0.00  0.00    +0.000 C 
BRANCH  21  22
ATOM     22  S   UNL     1       3.935   2.884  18.139  0.00  0.00    +0.000 S 
ATOM     23  O   UNL     1       4.193   2.613  19.541  0.00  0.00    +0.000 OA
ATOM     24  O   UNL     1       4.061   1.829  17.149  0.00  0.00    +0.000 OA
BRANCH  22  25
ATOM     25  C   UNL     1       5.107   4.153  17.658  0.00  0.00    +0.000 A 
ATOM     26  C   UNL     1       5.056   4.680  16.364  0.00  0.00    +0.000 A 
ATOM     27  C   UNL     1       5.811   5.814  16.049  0.00  0.00    +0.000 A 
ATOM     28  C   UNL     1       6.602   6.423  17.024  0.00  0.00    +0.000 A 
ATOM     29  C   UNL     1       6.665   5.884  18.310  0.00  0.00    +0.000 A 
ATOM     30  C   UNL     1       5.918   4.750  18.632  0.00  0.00    +0.000 A 
ENDBRANCH  22  25
ENDBRANCH  21  22
ENDBRANCH   5  21
TORSDOF 6
ENDMDL
MODEL 6
REMARK VINA RESULT:      -8.0      4.355      9.838
REMARK  Name = 
REMARK  7 active torsions:
REMARK  status: ('A' for Active; 'I' for Inactive)
REMARK    1  A    between atoms: C_1  and  C_2
REMARK    2  A    between atoms: C_2  and  N_3
REMARK    3  A    between atoms: C_2  and  C_22
REMARK    4  A    between atoms: C_4  and  C_6
REMARK    5  A    between atoms: C_10  and  C_11
REMARK    6  A    between atoms: C_11  and  S_12
REMARK    7  A    between atoms: S_12  and  C_15
REMARK                            x       y       z     vdW  Elec       q    Type
REMARK                         _______ _______ _______ _____ _____    ______ ____
ROOT
ATOM      1  C   UNL     1       1.923   7.733  19.281  0.00  0.00    +0.000 A 
ATOM      2  C   UNL     1       1.733   7.144  20.535  0.00  0.00    +0.000 A 
ATOM      3  C   UNL     1       2.080   5.807  20.729  0.00  0.00    +0.000 A 
ATOM      4  C   UNL     1       2.597   5.049  19.675  0.00  0.00    +0.000 A 
ATOM      5  C   UNL     1       2.802   5.614  18.407  0.00  0.00    +0.000 A 
ATOM      6  C   UNL     1       2.456   6.967  18.225  0.00  0.00    +0.000 A 
ENDROOT
BRANCH   1   8
ATOM      7  N   UNL     1       0.987   9.858  20.065  0.00  0.00    +0.000 N 
ATOM      8  C   UNL     1       1.496   9.135  19.004  0.00  0.00    +0.000 C 
ATOM      9  O   UNL     1       1.610   9.586  17.870  0.00  0.00    +0.000 OA
ATOM     10  H   UNL     1       0.964   9.446  20.985  0.00  0.00    +0.000 HD
BRANCH   7  12
ATOM     11  C   UNL     1       1.540  12.275  19.904  0.00  0.00    +0.000 C 
ATOM     12  C   UNL     1       0.443  11.203  19.905  0.00  0.00    +0.000 C 
BRANCH  12  13
ATOM     13  C   UNL     1      -0.577  11.486  20.994  0.00  0.00    +0.000 A 
ATOM     14  C   UNL     1      -0.532  10.825  22.236  0.00  0.00    +0.000 A 
ATOM     15  C   UNL     1      -1.478  11.107  23.226  0.00  0.00    +0.000 A 
ATOM     16  C   UNL     1      -2.470  12.049  22.981  0.00  0.00    +0.000 A 
ATOM     17  F   UNL     1      -3.373  12.316  23.932  0.00  0.00    +0.000 F 
ATOM     18  C   UNL     1      -2.539  12.715  21.766  0.00  0.00    +0.000 A 
ATOM     19  C   UNL     1      -1.595  12.429  20.785  0.00  0.00    +0.000 A 
ATOM     20  F   UNL     1      -1.671  13.083  19.619  0.00  0.00    +0.000 F 
ENDBRANCH  12  13
ENDBRANCH   7  12
ENDBRANCH   1   8
BRANCH   5  21
ATOM     21  C   UNL     1       3.292   4.782  17.233  0.00  0.00    +0.000 C 
BRANCH  21  22
ATOM     22  S   UNL     1       4.883   4.043  17.596  0.00  0.00    +0.000 S 
ATOM     23  O   UNL     1       4.780   3.288  18.832  0.00  0.00    +0.000 OA
ATOM     24  O   UNL     1       5.398   3.417  16.392  0.00  0.00    +0.000 OA
BRANCH  22  25
ATOM     25  C   UNL     1       5.978   5.418  17.946  0.00  0.00    +0.000 A 
ATOM     26  C   UNL     1       6.937   5.292  18.956  0.00  0.00    +0.000 A 
ATOM     27  C   UNL     1       7.933   6.263  19.089  0.00  0.00    +0.000 A 
ATOM     28  C   UNL     1       7.977   7.348  18.211  0.00  0.00    +0.000 A 
ATOM     29  C   UNL     1       7.008   7.480  17.215  0.00  0.00    +0.000 A 
ATOM     30  C   UNL     1       6.008   6.517  17.078  0.00  0.00    +0.000 A 
ENDBRANCH  22  25
ENDBRANCH  21  22
ENDBRANCH   5  21
TORSDOF 6
ENDMDL
MODEL 7
REMARK VINA RESULT:      -7.9      3.907      9.525
REMARK  Name = 
REMARK  7 active torsions:
REMARK  status: ('A' for Active; 'I' for Inactive)
REMARK    1  A    between atoms: C_1  and  C_2
REMARK    2  A    between atoms: C_2  and  N_3
REMARK    3  A    between atoms: C_2  and  C_22
REMARK    4  A    between atoms: C_4  and  C_6
REMARK    5  A    between atoms: C_10  and  C_11
REMARK    6  A    between atoms: C_11  and  S_12
REMARK    7  A    between atoms: S_12  and  C_15
REMARK                            x       y       z     vdW  Elec       q    Type
REMARK                         _______ _______ _______ _____ _____    ______ ____
ROOT
ATOM      1  C   UNL     1       2.994   6.726  18.462  0.00  0.00    +0.000 A 
ATOM      2  C   UNL     1       2.892   6.126  19.720  0.00  0.00    +0.000 A 
ATOM      3  C   UNL     1       3.408   4.845  19.918  0.00  0.00    +0.000 A 
ATOM      4  C   UNL     1       4.009   4.153  18.862  0.00  0.00    +0.000 A 
ATOM      5  C   UNL     1       4.129   4.732  17.590  0.00  0.00    +0.000 A 
ATOM      6  C   UNL     1       3.611   6.028  17.404  0.00  0.00    +0.000 A 
ENDROOT
BRANCH   1   8
ATOM      7  N   UNL     1       1.597   8.612  19.170  0.00  0.00    +0.000 N 
ATOM      8  C   UNL     1       2.388   8.060  18.181  0.00  0.00    +0.000 C 
ATOM      9  O   UNL     1       2.610   8.608  17.108  0.00  0.00    +0.000 OA
ATOM     10  H   UNL     1       1.493   8.133  20.051  0.00  0.00    +0.000 HD
BRANCH   7  12
ATOM     11  C   UNL     1       1.780  10.996  18.494  0.00  0.00    +0.000 C 
ATOM     12  C   UNL     1       0.869   9.862  18.982  0.00  0.00    +0.000 C 
BRANCH  12  13
ATOM     13  C   UNL     1       0.170  10.258  20.272  0.00  0.00    +0.000 A 
ATOM     14  C   UNL     1      -0.445  11.515  20.421  0.00  0.00    +0.000 A 
ATOM     15  C   UNL     1      -1.089  11.853  21.615  0.00  0.00    +0.000 A 
ATOM     16  C   UNL     1      -1.122  10.940  22.662  0.00  0.00    +0.000 A 
ATOM     17  F   UNL     1      -1.739  11.268  23.803  0.00  0.00    +0.000 F 
ATOM     18  C   UNL     1      -0.523   9.693  22.543  0.00  0.00    +0.000 A 
ATOM     19  C   UNL     1       0.116   9.364  21.352  0.00  0.00    +0.000 A 
ATOM     20  F   UNL     1       0.686   8.155  21.250  0.00  0.00    +0.000 F 
ENDBRANCH  12  13
ENDBRANCH   7  12
ENDBRANCH   1   8
BRANCH   5  21
ATOM     21  C   UNL     1       4.711   3.962  16.416  0.00  0.00    +0.000 C 
BRANCH  21  22
ATOM     22  S   UNL     1       5.954   4.934  15.570  0.00  0.00    +0.000 S 
ATOM     23  O   UNL     1       6.799   4.046  14.792  0.00  0.00    +0.000 OA
ATOM     24  O   UNL     1       5.315   6.077  14.943  0.00  0.00    +0.000 OA
BRANCH  22  25
ATOM     25  C   UNL     1       6.999   5.602  16.864  0.00  0.00    +0.000 A 
ATOM     26  C   UNL     1       7.202   6.983  16.939  0.00  0.00    +0.000 A 
ATOM     27  C   UNL     1       7.827   7.531  18.062  0.00  0.00    +0.000 A 
ATOM     28  C   UNL     1       8.237   6.704  19.110  0.00  0.00    +0.000 A 
ATOM     29  C   UNL     1       8.050   5.324  19.024  0.00  0.00    +0.000 A 
ATOM     30  C   UNL     1       7.430   4.768  17.904  0.00  0.00    +0.000 A 
ENDBRANCH  22  25
ENDBRANCH  21  22
ENDBRANCH   5  21
TORSDOF 6
ENDMDL
MODEL 8
REMARK VINA RESULT:      -7.8      4.440      8.647
REMARK  Name = 
REMARK  7 active torsions:
REMARK  status: ('A' for Active; 'I' for Inactive)
REMARK    1  A    between atoms: C_1  and  C_2
REMARK    2  A    between atoms: C_2  and  N_3
REMARK    3  A    between atoms: C_2  and  C_22
REMARK    4  A    between atoms: C_4  and  C_6
REMARK    5  A    between atoms: C_10  and  C_11
REMARK    6  A    between atoms: C_11  and  S_12
REMARK    7  A    between atoms: S_12  and  C_15
REMARK                            x       y       z     vdW  Elec       q    Type
REMARK                         _______ _______ _______ _____ _____    ______ ____
ROOT
ATOM      1  C   UNL     1       3.217   7.153  17.944  0.00  0.00    +0.000 A 
ATOM      2  C   UNL     1       3.886   7.758  16.876  0.00  0.00    +0.000 A 
ATOM      3  C   UNL     1       4.839   7.034  16.159  0.00  0.00    +0.000 A 
ATOM      4  C   UNL     1       5.142   5.716  16.514  0.00  0.00    +0.000 A 
ATOM      5  C   UNL     1       4.484   5.082  17.579  0.00  0.00    +0.000 A 
ATOM      6  C   UNL     1       3.518   5.820  18.290  0.00  0.00    +0.000 A 
ENDROOT
BRANCH   1   8
ATOM      7  N   UNL     1       1.666   9.029  18.228  0.00  0.00    +0.000 N 
ATOM      8  C   UNL     1       2.249   7.910  18.789  0.00  0.00    +0.000 C 
ATOM      9  O   UNL     1       2.008   7.520  19.926  0.00  0.00    +0.000 OA
ATOM     10  H   UNL     1       1.869   9.270  17.270  0.00  0.00    +0.000 HD
BRANCH   7  12
ATOM     11  C   UNL     1      -0.603  10.035  18.329  0.00  0.00    +0.000 C 
ATOM     12  C   UNL     1       0.780   9.910  18.981  0.00  0.00    +0.000 C 
BRANCH  12  13
ATOM     13  C   UNL     1       1.419  11.279  19.142  0.00  0.00    +0.000 A 
ATOM     14  C   UNL     1       2.204  11.850  18.123  0.00  0.00    +0.000 A 
ATOM     15  C   UNL     1       2.776  13.115  18.292  0.00  0.00    +0.000 A 
ATOM     16  C   UNL     1       2.566  13.813  19.475  0.00  0.00    +0.000 A 
ATOM     17  F   UNL     1       3.116  15.023  19.632  0.00  0.00    +0.000 F 
ATOM     18  C   UNL     1       1.797  13.274  20.497  0.00  0.00    +0.000 A 
ATOM     19  C   UNL     1       1.231  12.014  20.322  0.00  0.00    +0.000 A 
ATOM     20  F   UNL     1       0.487  11.509  21.315  0.00  0.00    +0.000 F 
ENDBRANCH  12  13
ENDBRANCH   7  12
ENDBRANCH   1   8
BRANCH   5  21
ATOM     21  C   UNL     1       4.857   3.677  18.023  0.00  0.00    +0.000 C 
BRANCH  21  22
ATOM     22  S   UNL     1       3.490   2.546  17.775  0.00  0.00    +0.000 S 
ATOM     23  O   UNL     1       2.606   3.091  16.759  0.00  0.00    +0.000 OA
ATOM     24  O   UNL     1       4.009   1.196  17.651  0.00  0.00    +0.000 OA
BRANCH  22  25
ATOM     25  C   UNL     1       2.560   2.579  19.307  0.00  0.00    +0.000 A 
ATOM     26  C   UNL     1       3.235   2.429  20.523  0.00  0.00    +0.000 A 
ATOM     27  C   UNL     1       2.560   2.671  21.723  0.00  0.00    +0.000 A 
ATOM     28  C   UNL     1       1.223   3.073  21.707  0.00  0.00    +0.000 A 
ATOM     29  C   UNL     1       0.547   3.204  20.493  0.00  0.00    +0.000 A 
ATOM     30  C   UNL     1       1.212   2.960  19.290  0.00  0.00    +0.000 A 
ENDBRANCH  22  25
ENDBRANCH  21  22
ENDBRANCH   5  21
TORSDOF 6
ENDMDL
MODEL 9
REMARK VINA RESULT:      -7.8      2.760      3.859
REMARK  Name = 
REMARK  7 active torsions:
REMARK  status: ('A' for Active; 'I' for Inactive)
REMARK    1  A    between atoms: C_1  and  C_2
REMARK    2  A    between atoms: C_2  and  N_3
REMARK    3  A    between atoms: C_2  and  C_22
REMARK    4  A    between atoms: C_4  and  C_6
REMARK    5  A    between atoms: C_10  and  C_11
REMARK    6  A    between atoms: C_11  and  S_12
REMARK    7  A    between atoms: S_12  and  C_15
REMARK                            x       y       z     vdW  Elec       q    Type
REMARK                         _______ _______ _______ _____ _____    ______ ____
ROOT
ATOM      1  C   UNL     1       1.409   8.890  19.548  0.00  0.00    +0.000 A 
ATOM      2  C   UNL     1       1.319   8.400  20.854  0.00  0.00    +0.000 A 
ATOM      3  C   UNL     1       0.784   9.206  21.859  0.00  0.00    +0.000 A 
ATOM      4  C   UNL     1       0.356  10.506  21.572  0.00  0.00    +0.000 A 
ATOM      5  C   UNL     1       0.431  11.023  20.269  0.00  0.00    +0.000 A 
ATOM      6  C   UNL     1       0.965  10.197  19.262  0.00  0.00    +0.000 A 
ENDROOT
BRANCH   1   8
ATOM      7  N   UNL     1       2.236   6.748  18.692  0.00  0.00    +0.000 N 
ATOM      8  C   UNL     1       2.045   8.095  18.458  0.00  0.00    +0.000 C 
ATOM      9  O   UNL     1       2.366   8.653  17.415  0.00  0.00    +0.000 OA
ATOM     10  H   UNL     1       1.906   6.338  19.552  0.00  0.00    +0.000 HD
BRANCH   7  12
ATOM     11  C   UNL     1       2.416   4.439  17.792  0.00  0.00    +0.000 C 
ATOM     12  C   UNL     1       2.935   5.881  17.748  0.00  0.00    +0.000 C 
BRANCH  12  13
ATOM     13  C   UNL     1       4.430   5.918  18.015  0.00  0.00    +0.000 A 
ATOM     14  C   UNL     1       4.986   5.349  19.176  0.00  0.00    +0.000 A 
ATOM     15  C   UNL     1       6.366   5.388  19.396  0.00  0.00    +0.000 A 
ATOM     16  C   UNL     1       7.195   5.994  18.459  0.00  0.00    +0.000 A 
ATOM     17  F   UNL     1       8.515   6.029  18.674  0.00  0.00    +0.000 F 
ATOM     18  C   UNL     1       6.675   6.564  17.306  0.00  0.00    +0.000 A 
ATOM     19  C   UNL     1       5.300   6.521  17.094  0.00  0.00    +0.000 A 
ATOM     20  F   UNL     1       4.813   7.071  15.974  0.00  0.00    +0.000 F 
ENDBRANCH  12  13
ENDBRANCH   7  12
ENDBRANCH   1   8
BRANCH   5  21
ATOM     21  C   UNL     1       0.041  12.459  19.958  0.00  0.00    +0.000 C 
BRANCH  21  22
ATOM     22  S   UNL     1      -1.700  12.730  20.283  0.00  0.00    +0.000 S 
ATOM     23  O   UNL     1      -2.111  11.881  21.387  0.00  0.00    +0.000 OA
ATOM     24  O   UNL     1      -1.957  14.158  20.317  0.00  0.00    +0.000 OA
BRANCH  22  25
ATOM     25  C   UNL     1      -2.557  12.108  18.837  0.00  0.00    +0.000 A 
ATOM     26  C   UNL     1      -1.819  11.729  17.711  0.00  0.00    +0.000 A 
ATOM     27  C   UNL     1      -2.449  11.043  16.669  0.00  0.00    +0.000 A 
ATOM     28  C   UNL     1      -3.807  10.727  16.757  0.00  0.00    +0.000 A 
ATOM     29  C   UNL     1      -4.545  11.123  17.874  0.00  0.00    +0.000 A 
ATOM     30  C   UNL     1      -3.924  11.813  18.917  0.00  0.00    +0.000 A 
ENDBRANCH  22  25
ENDBRANCH  21  22
ENDBRANCH   5  21
TORSDOF 6
ENDMDL
