MODEL 1
REMARK VINA RESULT:      -8.7      0.000      0.000
REMARK  Name = 
REMARK  8 active torsions:
REMARK  status: ('A' for Active; 'I' for Inactive)
REMARK    1  A    between atoms: C_1  and  N_2
REMARK    2  A    between atoms: C_6  and  C_7
REMARK    3  A    between atoms: C_7  and  N_8
REMARK    4  A    between atoms: N_8  and  C_9
REMARK    5  A    between atoms: C_13  and  N_14
REMARK    6  A    between atoms: C_19  and  C_20
REMARK    7  A    between atoms: C_20  and  N_21
REMARK    8  A    between atoms: C_26  and  C_27
REMARK                            x       y       z     vdW  Elec       q    Type
REMARK                         _______ _______ _______ _____ _____    ______ ____
ROOT
ATOM      1  N   UNL     1       4.336   4.429  19.031  0.00  0.00    +0.000 N 
ATOM      2  C   UNL     1       5.664   5.062  19.234  0.00  0.00    +0.000 C 
ATOM      3  C   UNL     1       6.253   4.992  17.857  0.00  0.00    +0.000 A 
ATOM      4  C   UNL     1       5.689   3.878  17.222  0.00  0.00    +0.000 A 
ATOM      5  C   UNL     1       5.823   3.633  15.867  0.00  0.00    +0.000 A 
ATOM      6  C   UNL     1       6.522   4.574  15.099  0.00  0.00    +0.000 A 
ATOM      7  C   UNL     1       7.121   5.688  15.740  0.00  0.00    +0.000 A 
ATOM      8  C   UNL     1       6.986   5.925  17.129  0.00  0.00    +0.000 A 
ATOM      9  C   UNL     1       4.554   3.418  18.061  0.00  0.00    +0.000 C 
ATOM     10  O   UNL     1       3.844   2.467  17.782  0.00  0.00    +0.000 OA
ENDROOT
BRANCH   1  15
ATOM     11  C   UNL     1       2.243   7.382  19.635  0.00  0.00    +0.000 A 
ATOM     12  C   UNL     1       2.674   8.125  18.530  0.00  0.00    +0.000 A 
ATOM     13  C   UNL     1       3.224   7.495  17.416  0.00  0.00    +0.000 A 
ATOM     14  C   UNL     1       3.485   6.133  17.454  0.00  0.00    +0.000 A 
ATOM     15  C   UNL     1       3.351   5.446  18.670  0.00  0.00    +0.000 A 
ATOM     16  C   UNL     1       2.608   6.033  19.702  0.00  0.00    +0.000 A 
BRANCH  11  17
ATOM     17  N   UNL     1       1.632   8.062  20.710  0.00  0.00    +0.000 N 
ATOM     18  H   UNL     1       2.362   8.400  21.336  0.00  0.00    +0.000 HD
BRANCH  17  19
ATOM     19  C   UNL     1       0.763   9.179  20.314  0.00  0.00    +0.000 C 
BRANCH  19  25
ATOM     20  C   UNL     1      -0.295  12.109  20.360  0.00  0.00    +0.000 C 
ATOM     21  N   UNL     1      -0.342  11.172  21.447  0.00  0.00    +0.000 N 
ATOM     22  C   UNL     1      -0.868  11.404  22.684  0.00  0.00    +0.000 A 
ATOM     23  N   UNL     1      -0.752  10.313  23.415  0.00  0.00    +0.000 NA
ATOM     24  N   UNL     1      -0.138   9.359  22.646  0.00  0.00    +0.000 NA
ATOM     25  C   UNL     1       0.113   9.875  21.462  0.00  0.00    +0.000 A 
ENDBRANCH  19  25
ENDBRANCH  17  19
ENDBRANCH  11  17
ENDBRANCH   1  15
BRANCH   8  26
ATOM     26  C   UNL     1       7.478   7.231  17.704  0.00  0.00    +0.000 C 
ATOM     27  F   UNL     1       6.487   8.103  18.038  0.00  0.00    +0.000 F 
ATOM     28  F   UNL     1       8.205   7.056  18.841  0.00  0.00    +0.000 F 
ATOM     29  F   UNL     1       8.289   7.907  16.841  0.00  0.00    +0.000 F 
ENDBRANCH   8  26
BRANCH   6  30
ATOM     30  C   UNL     1       6.449   4.518  13.583  0.00  0.00    +0.000 C 
BRANCH  30  31
ATOM     31  N   UNL     1       5.778   3.385  12.958  0.00  0.00    +0.000 N 
ATOM     32  C   UNL     1       6.441   2.789  11.824  0.00  0.00    +0.000 C 
ATOM     33  C   UNL     1       5.004   2.736  11.375  0.00  0.00    +0.000 C 
ATOM     34  N   UNL     1       4.591   3.512  12.308  0.00  0.00    +0.000 NA
ENDBRANCH  30  31
ENDBRANCH   6  30
TORSDOF 7
ENDMDL
MODEL 2
REMARK VINA RESULT:      -8.4      0.840      1.038
REMARK  Name = 
REMARK  8 active torsions:
REMARK  status: ('A' for Active; 'I' for Inactive)
REMARK    1  A    between atoms: C_1  and  N_2
REMARK    2  A    between atoms: C_6  and  C_7
REMARK    3  A    between atoms: C_7  and  N_8
REMARK    4  A    between atoms: N_8  and  C_9
REMARK    5  A    between atoms: C_13  and  N_14
REMARK    6  A    between atoms: C_19  and  C_20
REMARK    7  A    between atoms: C_20  and  N_21
REMARK    8  A    between atoms: C_26  and  C_27
REMARK                            x       y       z     vdW  Elec       q    Type
REMARK                         _______ _______ _______ _____ _____    ______ ____
ROOT
ATOM      1  N   UNL     1       4.178   4.322  19.091  0.00  0.00    +0.000 N 
ATOM      2  C   UNL     1       5.525   4.927  19.253  0.00  0.00    +0.000 C 
ATOM      3  C   UNL     1       6.049   4.897  17.849  0.00  0.00    +0.000 A 
ATOM      4  C   UNL     1       5.437   3.815  17.204  0.00  0.00    +0.000 A 
ATOM      5  C   UNL     1       5.504   3.616  15.836  0.00  0.00    +0.000 A 
ATOM      6  C   UNL     1       6.184   4.572  15.069  0.00  0.00    +0.000 A 
ATOM      7  C   UNL     1       6.829   5.654  15.719  0.00  0.00    +0.000 A 
ATOM      8  C   UNL     1       6.762   5.844  17.121  0.00  0.00    +0.000 A 
ATOM      9  C   UNL     1       4.335   3.342  18.077  0.00  0.00    +0.000 C 
ATOM     10  O   UNL     1       3.597   2.413  17.799  0.00  0.00    +0.000 OA
ENDROOT
BRANCH   1  15
ATOM     11  C   UNL     1       2.210   7.319  19.871  0.00  0.00    +0.000 A 
ATOM     12  C   UNL     1       2.576   8.062  18.742  0.00  0.00    +0.000 A 
ATOM     13  C   UNL     1       3.027   7.429  17.586  0.00  0.00    +0.000 A 
ATOM     14  C   UNL     1       3.255   6.060  17.594  0.00  0.00    +0.000 A 
ATOM     15  C   UNL     1       3.195   5.365  18.811  0.00  0.00    +0.000 A 
ATOM     16  C   UNL     1       2.545   5.961  19.900  0.00  0.00    +0.000 A 
BRANCH  11  17
ATOM     17  N   UNL     1       1.697   8.003  20.993  0.00  0.00    +0.000 N 
ATOM     18  H   UNL     1       2.398   8.671  21.313  0.00  0.00    +0.000 HD
BRANCH  17  19
ATOM     19  C   UNL     1       0.423   8.699  20.758  0.00  0.00    +0.000 C 
BRANCH  19  25
ATOM     20  C   UNL     1      -0.424  10.656  18.488  0.00  0.00    +0.000 C 
ATOM     21  N   UNL     1       0.151  11.020  19.752  0.00  0.00    +0.000 N 
ATOM     22  C   UNL     1       0.416  12.288  20.178  0.00  0.00    +0.000 A 
ATOM     23  N   UNL     1       0.923  12.240  21.394  0.00  0.00    +0.000 NA
ATOM     24  N   UNL     1       0.996  10.922  21.763  0.00  0.00    +0.000 NA
ATOM     25  C   UNL     1       0.535  10.186  20.775  0.00  0.00    +0.000 A 
ENDBRANCH  19  25
ENDBRANCH  17  19
ENDBRANCH  11  17
ENDBRANCH   1  15
BRANCH   8  26
ATOM     26  C   UNL     1       7.302   7.121  17.718  0.00  0.00    +0.000 C 
ATOM     27  F   UNL     1       6.345   8.035  18.039  0.00  0.00    +0.000 F 
ATOM     28  F   UNL     1       7.997   6.904  18.868  0.00  0.00    +0.000 F 
ATOM     29  F   UNL     1       8.161   7.766  16.877  0.00  0.00    +0.000 F 
ENDBRANCH   8  26
BRANCH   6  30
ATOM     30  C   UNL     1       6.041   4.572  13.557  0.00  0.00    +0.000 C 
BRANCH  30  31
ATOM     31  N   UNL     1       5.588   3.352  12.900  0.00  0.00    +0.000 N 
ATOM     32  C   UNL     1       6.476   2.784  11.916  0.00  0.00    +0.000 C 
ATOM     33  C   UNL     1       5.140   2.565  11.255  0.00  0.00    +0.000 C 
ATOM     34  N   UNL     1       4.512   3.330  12.070  0.00  0.00    +0.000 NA
ENDBRANCH  30  31
ENDBRANCH   6  30
TORSDOF 7
ENDMDL
MODEL 3
REMARK VINA RESULT:      -8.4      0.874      1.119
REMARK  Name = 
REMARK  8 active torsions:
REMARK  status: ('A' for Active; 'I' for Inactive)
REMARK    1  A    between atoms: C_1  and  N_2
REMARK    2  A    between atoms: C_6  and  C_7
REMARK    3  A    between atoms: C_7  and  N_8
REMARK    4  A    between atoms: N_8  and  C_9
REMARK    5  A    between atoms: C_13  and  N_14
REMARK    6  A    between atoms: C_19  and  C_20
REMARK    7  A    between atoms: C_20  and  N_21
REMARK    8  A    between atoms: C_26  and  C_27
REMARK                            x       y       z     vdW  Elec       q    Type
REMARK                         _______ _______ _______ _____ _____    ______ ____
ROOT
ATOM      1  N   UNL     1       3.866   4.356  19.441  0.00  0.00    +0.000 N 
ATOM      2  C   UNL     1       5.242   4.915  19.473  0.00  0.00    +0.000 C 
ATOM      3  C   UNL     1       5.665   4.776  18.041  0.00  0.00    +0.000 A 
ATOM      4  C   UNL     1       4.972   3.682  17.510  0.00  0.00    +0.000 A 
ATOM      5  C   UNL     1       4.935   3.395  16.157  0.00  0.00    +0.000 A 
ATOM      6  C   UNL     1       5.594   4.273  15.285  0.00  0.00    +0.000 A 
ATOM      7  C   UNL     1       6.322   5.367  15.819  0.00  0.00    +0.000 A 
ATOM      8  C   UNL     1       6.360   5.646  17.206  0.00  0.00    +0.000 A 
ATOM      9  C   UNL     1       3.916   3.310  18.485  0.00  0.00    +0.000 C 
ATOM     10  O   UNL     1       3.127   2.396  18.318  0.00  0.00    +0.000 OA
ENDROOT
BRANCH   1  15
ATOM     11  C   UNL     1       2.028   7.445  20.180  0.00  0.00    +0.000 A 
ATOM     12  C   UNL     1       2.367   8.130  19.007  0.00  0.00    +0.000 A 
ATOM     13  C   UNL     1       2.746   7.437  17.860  0.00  0.00    +0.000 A 
ATOM     14  C   UNL     1       2.932   6.063  17.914  0.00  0.00    +0.000 A 
ATOM     15  C   UNL     1       2.905   5.419  19.161  0.00  0.00    +0.000 A 
ATOM     16  C   UNL     1       2.322   6.079  20.252  0.00  0.00    +0.000 A 
BRANCH  11  17
ATOM     17  N   UNL     1       1.587   8.191  21.294  0.00  0.00    +0.000 N 
ATOM     18  H   UNL     1       2.104   9.070  21.320  0.00  0.00    +0.000 HD
BRANCH  17  19
ATOM     19  C   UNL     1       0.144   8.465  21.315  0.00  0.00    +0.000 C 
BRANCH  19  25
ATOM     20  C   UNL     1      -0.909  10.837  19.592  0.00  0.00    +0.000 C 
ATOM     21  N   UNL     1      -0.666  10.858  21.007  0.00  0.00    +0.000 N 
ATOM     22  C   UNL     1      -0.864  11.920  21.839  0.00  0.00    +0.000 A 
ATOM     23  N   UNL     1      -0.552  11.568  23.071  0.00  0.00    +0.000 NA
ATOM     24  N   UNL     1      -0.139  10.262  23.040  0.00  0.00    +0.000 NA
ATOM     25  C   UNL     1      -0.204   9.833  21.798  0.00  0.00    +0.000 A 
ENDBRANCH  19  25
ENDBRANCH  17  19
ENDBRANCH  11  17
ENDBRANCH   1  15
BRANCH   8  26
ATOM     26  C   UNL     1       6.987   6.935  17.681  0.00  0.00    +0.000 C 
ATOM     27  F   UNL     1       7.640   6.832  18.871  0.00  0.00    +0.000 F 
ATOM     28  F   UNL     1       7.906   7.420  16.803  0.00  0.00    +0.000 F 
ATOM     29  F   UNL     1       6.068   7.928  17.849  0.00  0.00    +0.000 F 
ENDBRANCH   8  26
BRANCH   6  30
ATOM     30  C   UNL     1       5.345   4.184  13.790  0.00  0.00    +0.000 C 
BRANCH  30  31
ATOM     31  N   UNL     1       6.221   3.341  12.986  0.00  0.00    +0.000 N 
ATOM     32  C   UNL     1       7.182   4.020  12.152  0.00  0.00    +0.000 C 
ATOM     33  C   UNL     1       6.757   2.898  11.241  0.00  0.00    +0.000 C 
ATOM     34  N   UNL     1       5.754   2.569  11.969  0.00  0.00    +0.000 NA
ENDBRANCH  30  31
ENDBRANCH   6  30
TORSDOF 7
ENDMDL
MODEL 4
REMARK VINA RESULT:      -8.3      0.595      1.287
REMARK  Name = 
REMARK  8 active torsions:
REMARK  status: ('A' for Active; 'I' for Inactive)
REMARK    1  A    between atoms: C_1  and  N_2
REMARK    2  A    between atoms: C_6  and  C_7
REMARK    3  A    between atoms: C_7  and  N_8
REMARK    4  A    between atoms: N_8  and  C_9
REMARK    5  A    between atoms: C_13  and  N_14
REMARK    6  A    between atoms: C_19  and  C_20
REMARK    7  A    between atoms: C_20  and  N_21
REMARK    8  A    between atoms: C_26  and  C_27
REMARK                            x       y       z     vdW  Elec       q    Type
REMARK                         _______ _______ _______ _____ _____    ______ ____
ROOT
ATOM      1  N   UNL     1       4.350   4.457  19.111  0.00  0.00    +0.000 N 
ATOM      2  C   UNL     1       5.679   5.096  19.286  0.00  0.00    +0.000 C 
ATOM      3  C   UNL     1       6.237   5.036  17.896  0.00  0.00    +0.000 A 
ATOM      4  C   UNL     1       5.664   3.923  17.269  0.00  0.00    +0.000 A 
ATOM      5  C   UNL     1       5.768   3.685  15.910  0.00  0.00    +0.000 A 
ATOM      6  C   UNL     1       6.445   4.633  15.131  0.00  0.00    +0.000 A 
ATOM      7  C   UNL     1       7.052   5.748  15.763  0.00  0.00    +0.000 A 
ATOM      8  C   UNL     1       6.948   5.977  17.156  0.00  0.00    +0.000 A 
ATOM      9  C   UNL     1       4.551   3.452  18.131  0.00  0.00    +0.000 C 
ATOM     10  O   UNL     1       3.841   2.499  17.864  0.00  0.00    +0.000 OA
ENDROOT
BRANCH   1  15
ATOM     11  C   UNL     1       2.287   7.421  19.761  0.00  0.00    +0.000 A 
ATOM     12  C   UNL     1       2.671   8.148  18.628  0.00  0.00    +0.000 A 
ATOM     13  C   UNL     1       3.173   7.502  17.501  0.00  0.00    +0.000 A 
ATOM     14  C   UNL     1       3.434   6.139  17.547  0.00  0.00    +0.000 A 
ATOM     15  C   UNL     1       3.352   5.470  18.777  0.00  0.00    +0.000 A 
ATOM     16  C   UNL     1       2.653   6.073  19.832  0.00  0.00    +0.000 A 
BRANCH  11  17
ATOM     17  N   UNL     1       1.723   8.117  20.851  0.00  0.00    +0.000 N 
ATOM     18  H   UNL     1       2.376   8.843  21.145  0.00  0.00    +0.000 HD
BRANCH  17  19
ATOM     19  C   UNL     1       0.408   8.716  20.581  0.00  0.00    +0.000 C 
BRANCH  19  25
ATOM     20  C   UNL     1      -0.781  10.253  23.016  0.00  0.00    +0.000 C 
ATOM     21  N   UNL     1      -0.167  10.841  21.859  0.00  0.00    +0.000 N 
ATOM     22  C   UNL     1       0.008  12.174  21.634  0.00  0.00    +0.000 A 
ATOM     23  N   UNL     1       0.622  12.341  20.479  0.00  0.00    +0.000 NA
ATOM     24  N   UNL     1       0.845  11.100  19.942  0.00  0.00    +0.000 NA
ATOM     25  C   UNL     1       0.368  10.195  20.769  0.00  0.00    +0.000 A 
ENDBRANCH  19  25
ENDBRANCH  17  19
ENDBRANCH  11  17
ENDBRANCH   1  15
BRANCH   8  26
ATOM     26  C   UNL     1       7.446   7.283  17.727  0.00  0.00    +0.000 C 
ATOM     27  F   UNL     1       8.150   7.153  18.886  0.00  0.00    +0.000 F 
ATOM     28  F   UNL     1       8.273   7.942  16.872  0.00  0.00    +0.000 F 
ATOM     29  F   UNL     1       6.430   8.148  18.008  0.00  0.00    +0.000 F 
ENDBRANCH   8  26
BRANCH   6  30
ATOM     30  C   UNL     1       6.338   4.585  13.617  0.00  0.00    +0.000 C 
BRANCH  30  31
ATOM     31  N   UNL     1       5.738   3.410  12.997  0.00  0.00    +0.000 N 
ATOM     32  C   UNL     1       6.477   2.803  11.917  0.00  0.00    +0.000 C 
ATOM     33  C   UNL     1       5.067   2.684  11.400  0.00  0.00    +0.000 C 
ATOM     34  N   UNL     1       4.582   3.473  12.286  0.00  0.00    +0.000 NA
ENDBRANCH  30  31
ENDBRANCH   6  30
TORSDOF 7
ENDMDL
MODEL 5
REMARK VINA RESULT:      -8.2      4.067      6.998
REMARK  Name = 
REMARK  8 active torsions:
REMARK  status: ('A' for Active; 'I' for Inactive)
REMARK    1  A    between atoms: C_1  and  N_2
REMARK    2  A    between atoms: C_6  and  C_7
REMARK    3  A    between atoms: C_7  and  N_8
REMARK    4  A    between atoms: N_8  and  C_9
REMARK    5  A    between atoms: C_13  and  N_14
REMARK    6  A    between atoms: C_19  and  C_20
REMARK    7  A    between atoms: C_20  and  N_21
REMARK    8  A    between atoms: C_26  and  C_27
REMARK                            x       y       z     vdW  Elec       q    Type
REMARK                         _______ _______ _______ _____ _____    ______ ____
ROOT
ATOM      1  N   UNL     1       6.076   5.453  15.505  0.00  0.00    +0.000 N 
ATOM      2  C   UNL     1       4.846   6.232  15.797  0.00  0.00    +0.000 C 
ATOM      3  C   UNL     1       4.162   5.362  16.809  0.00  0.00    +0.000 A 
ATOM      4  C   UNL     1       4.550   4.043  16.549  0.00  0.00    +0.000 A 
ATOM      5  C   UNL     1       4.299   2.996  17.418  0.00  0.00    +0.000 A 
ATOM      6  C   UNL     1       3.662   3.293  18.631  0.00  0.00    +0.000 A 
ATOM      7  C   UNL     1       3.240   4.622  18.888  0.00  0.00    +0.000 A 
ATOM      8  C   UNL     1       3.494   5.684  17.987  0.00  0.00    +0.000 A 
ATOM      9  C   UNL     1       5.678   4.094  15.586  0.00  0.00    +0.000 C 
ATOM     10  O   UNL     1       6.254   3.108  15.159  0.00  0.00    +0.000 OA
ENDROOT
BRANCH   1  15
ATOM     11  C   UNL     1       7.816   7.756  17.771  0.00  0.00    +0.000 A 
ATOM     12  C   UNL     1       7.878   6.895  18.874  0.00  0.00    +0.000 A 
ATOM     13  C   UNL     1       7.805   5.514  18.708  0.00  0.00    +0.000 A 
ATOM     14  C   UNL     1       7.522   4.985  17.457  0.00  0.00    +0.000 A 
ATOM     15  C   UNL     1       7.145   5.850  16.419  0.00  0.00    +0.000 A 
ATOM     16  C   UNL     1       7.427   7.218  16.540  0.00  0.00    +0.000 A 
BRANCH  11  17
ATOM     17  N   UNL     1       7.962   9.142  17.987  0.00  0.00    +0.000 N 
ATOM     18  H   UNL     1       7.068   9.516  18.304  0.00  0.00    +0.000 HD
BRANCH  17  19
ATOM     19  C   UNL     1       9.017   9.507  18.943  0.00  0.00    +0.000 C 
BRANCH  19  25
ATOM     20  C   UNL     1       9.085  11.586  21.261  0.00  0.00    +0.000 C 
ATOM     21  N   UNL     1       9.465  11.823  19.898  0.00  0.00    +0.000 N 
ATOM     22  C   UNL     1       9.931  12.998  19.387  0.00  0.00    +0.000 A 
ATOM     23  N   UNL     1      10.195  12.840  18.105  0.00  0.00    +0.000 NA
ATOM     24  N   UNL     1       9.892  11.545  17.775  0.00  0.00    +0.000 NA
ATOM     25  C   UNL     1       9.450  10.931  18.851  0.00  0.00    +0.000 A 
ENDBRANCH  19  25
ENDBRANCH  17  19
ENDBRANCH  11  17
ENDBRANCH   1  15
BRANCH   8  26
ATOM     26  C   UNL     1       3.195   7.101  18.415  0.00  0.00    +0.000 C 
ATOM     27  F   UNL     1       2.108   7.650  17.806  0.00  0.00    +0.000 F 
ATOM     28  F   UNL     1       2.951   7.200  19.750  0.00  0.00    +0.000 F 
ATOM     29  F   UNL     1       4.230   7.951  18.159  0.00  0.00    +0.000 F 
ENDBRANCH   8  26
BRANCH   6  30
ATOM     30  C   UNL     1       3.626   2.257  19.741  0.00  0.00    +0.000 C 
BRANCH  30  31
ATOM     31  N   UNL     1       2.423   2.152  20.558  0.00  0.00    +0.000 N 
ATOM     32  C   UNL     1       1.226   2.749  20.021  0.00  0.00    +0.000 C 
ATOM     33  C   UNL     1       1.097   3.113  21.477  0.00  0.00    +0.000 C 
ATOM     34  N   UNL     1       2.302   2.779  21.757  0.00  0.00    +0.000 NA
ENDBRANCH  30  31
ENDBRANCH   6  30
TORSDOF 7
ENDMDL
MODEL 6
REMARK VINA RESULT:      -8.2      7.637     10.836
REMARK  Name = 
REMARK  8 active torsions:
REMARK  status: ('A' for Active; 'I' for Inactive)
REMARK    1  A    between atoms: C_1  and  N_2
REMARK    2  A    between atoms: C_6  and  C_7
REMARK    3  A    between atoms: C_7  and  N_8
REMARK    4  A    between atoms: N_8  and  C_9
REMARK    5  A    between atoms: C_13  and  N_14
REMARK    6  A    between atoms: C_19  and  C_20
REMARK    7  A    between atoms: C_20  and  N_21
REMARK    8  A    between atoms: C_26  and  C_27
REMARK                            x       y       z     vdW  Elec       q    Type
REMARK                         _______ _______ _______ _____ _____    ______ ____
ROOT
ATOM      1  N   UNL     1      -0.205  11.473  18.529  0.00  0.00    +0.000 N 
ATOM      2  C   UNL     1       0.550  10.666  19.521  0.00  0.00    +0.000 C 
ATOM      3  C   UNL     1       0.108  11.276  20.817  0.00  0.00    +0.000 A 
ATOM      4  C   UNL     1      -0.215  12.613  20.556  0.00  0.00    +0.000 A 
ATOM      5  C   UNL     1      -0.877  13.422  21.463  0.00  0.00    +0.000 A 
ATOM      6  C   UNL     1      -1.273  12.850  22.680  0.00  0.00    +0.000 A 
ATOM      7  C   UNL     1      -0.924  11.505  22.963  0.00  0.00    +0.000 A 
ATOM      8  C   UNL     1      -0.239  10.689  22.031  0.00  0.00    +0.000 A 
ATOM      9  C   UNL     1      -0.259  12.778  19.081  0.00  0.00    +0.000 C 
ATOM     10  O   UNL     1      -0.521  13.829  18.522  0.00  0.00    +0.000 OA
ENDROOT
BRANCH   1  15
ATOM     11  C   UNL     1      -3.786  11.475  17.726  0.00  0.00    +0.000 A 
ATOM     12  C   UNL     1      -3.712  10.625  16.617  0.00  0.00    +0.000 A 
ATOM     13  C   UNL     1      -2.650   9.736  16.467  0.00  0.00    +0.000 A 
ATOM     14  C   UNL     1      -1.577   9.790  17.345  0.00  0.00    +0.000 A 
ATOM     15  C   UNL     1      -1.498  10.849  18.263  0.00  0.00    +0.000 A 
ATOM     16  C   UNL     1      -2.653  11.593  18.540  0.00  0.00    +0.000 A 
BRANCH  11  17
ATOM     17  N   UNL     1      -4.915  12.308  17.865  0.00  0.00    +0.000 N 
ATOM     18  H   UNL     1      -4.891  13.012  17.127  0.00  0.00    +0.000 HD
BRANCH  17  19
ATOM     19  C   UNL     1      -6.205  11.604  17.835  0.00  0.00    +0.000 C 
BRANCH  19  25
ATOM     20  C   UNL     1      -6.908   9.075  19.512  0.00  0.00    +0.000 C 
ATOM     21  N   UNL     1      -7.204  10.436  19.863  0.00  0.00    +0.000 N 
ATOM     22  C   UNL     1      -7.835  10.853  20.997  0.00  0.00    +0.000 A 
ATOM     23  N   UNL     1      -7.917  12.169  20.989  0.00  0.00    +0.000 NA
ATOM     24  N   UNL     1      -7.335  12.615  19.831  0.00  0.00    +0.000 NA
ATOM     25  C   UNL     1      -6.908  11.574  19.150  0.00  0.00    +0.000 A 
ENDBRANCH  19  25
ENDBRANCH  17  19
ENDBRANCH  11  17
ENDBRANCH   1  15
BRANCH   8  26
ATOM     26  C   UNL     1      -0.078   9.216  22.320  0.00  0.00    +0.000 C 
ATOM     27  F   UNL     1      -0.354   8.867  23.608  0.00  0.00    +0.000 F 
ATOM     28  F   UNL     1      -0.894   8.444  21.553  0.00  0.00    +0.000 F 
ATOM     29  F   UNL     1       1.189   8.774  22.082  0.00  0.00    +0.000 F 
ENDBRANCH   8  26
BRANCH   6  30
ATOM     30  C   UNL     1      -2.250  13.587  23.580  0.00  0.00    +0.000 C 
BRANCH  30  31
ATOM     31  N   UNL     1      -3.652  13.190  23.559  0.00  0.00    +0.000 N 
ATOM     32  C   UNL     1      -4.196  12.814  22.278  0.00  0.00    +0.000 C 
ATOM     33  C   UNL     1      -5.353  13.580  22.865  0.00  0.00    +0.000 C 
ATOM     34  N   UNL     1      -4.658  14.063  23.828  0.00  0.00    +0.000 NA
ENDBRANCH  30  31
ENDBRANCH   6  30
TORSDOF 7
ENDMDL
MODEL 7
REMARK VINA RESULT:      -8.1      3.849      8.498
REMARK  Name = 
REMARK  8 active torsions:
REMARK  status: ('A' for Active; 'I' for Inactive)
REMARK    1  A    between atoms: C_1  and  N_2
REMARK    2  A    between atoms: C_6  and  C_7
REMARK    3  A    between atoms: C_7  and  N_8
REMARK    4  A    between atoms: N_8  and  C_9
REMARK    5  A    between atoms: C_13  and  N_14
REMARK    6  A    between atoms: C_19  and  C_20
REMARK    7  A    between atoms: C_20  and  N_21
REMARK    8  A    between atoms: C_26  and  C_27
REMARK                            x       y       z     vdW  Elec       q    Type
REMARK                         _______ _______ _______ _____ _____    ______ ____
ROOT
ATOM      1  N   UNL     1       2.512   7.777  19.266  0.00  0.00    +0.000 N 
ATOM      2  C   UNL     1       2.220   8.552  20.500  0.00  0.00    +0.000 C 
ATOM      3  C   UNL     1       1.010   9.337  20.093  0.00  0.00    +0.000 A 
ATOM      4  C   UNL     1       1.088   9.529  18.708  0.00  0.00    +0.000 A 
ATOM      5  C   UNL     1       0.035  10.012  17.951  0.00  0.00    +0.000 A 
ATOM      6  C   UNL     1      -1.174  10.277  18.608  0.00  0.00    +0.000 A 
ATOM      7  C   UNL     1      -1.252  10.113  20.015  0.00  0.00    +0.000 A 
ATOM      8  C   UNL     1      -0.165   9.627  20.781  0.00  0.00    +0.000 A 
ATOM      9  C   UNL     1       2.164   8.643  18.198  0.00  0.00    +0.000 C 
ATOM     10  O   UNL     1       2.482   8.565  17.024  0.00  0.00    +0.000 OA
ENDROOT
BRANCH   1  15
ATOM     11  C   UNL     1       2.042   4.219  18.501  0.00  0.00    +0.000 A 
ATOM     12  C   UNL     1       1.856   3.784  19.819  0.00  0.00    +0.000 A 
ATOM     13  C   UNL     1       1.421   4.665  20.807  0.00  0.00    +0.000 A 
ATOM     14  C   UNL     1       1.309   6.019  20.523  0.00  0.00    +0.000 A 
ATOM     15  C   UNL     1       1.799   6.502  19.300  0.00  0.00    +0.000 A 
ATOM     16  C   UNL     1       2.029   5.597  18.256  0.00  0.00    +0.000 A 
BRANCH  11  17
ATOM     17  N   UNL     1       2.419   3.273  17.525  0.00  0.00    +0.000 N 
ATOM     18  H   UNL     1       2.472   3.744  16.621  0.00  0.00    +0.000 HD
BRANCH  17  19
ATOM     19  C   UNL     1       3.687   2.582  17.797  0.00  0.00    +0.000 C 
BRANCH  19  25
ATOM     20  C   UNL     1       5.221   4.298  15.698  0.00  0.00    +0.000 C 
ATOM     21  N   UNL     1       5.487   4.244  17.107  0.00  0.00    +0.000 N 
ATOM     22  C   UNL     1       6.452   4.944  17.769  0.00  0.00    +0.000 A 
ATOM     23  N   UNL     1       6.391   4.658  19.054  0.00  0.00    +0.000 NA
ATOM     24  N   UNL     1       5.375   3.755  19.232  0.00  0.00    +0.000 NA
ATOM     25  C   UNL     1       4.832   3.502  18.061  0.00  0.00    +0.000 A 
ENDBRANCH  19  25
ENDBRANCH  17  19
ENDBRANCH  11  17
ENDBRANCH   1  15
BRANCH   8  26
ATOM     26  C   UNL     1      -0.383   9.289  22.236  0.00  0.00    +0.000 C 
ATOM     27  F   UNL     1      -1.208  10.152  22.892  0.00  0.00    +0.000 F 
ATOM     28  F   UNL     1      -0.936   8.058  22.407  0.00  0.00    +0.000 F 
ATOM     29  F   UNL     1       0.780   9.279  22.947  0.00  0.00    +0.000 F 
ENDBRANCH   8  26
BRANCH   6  30
ATOM     30  C   UNL     1      -2.437  10.520  17.801  0.00  0.00    +0.000 C 
BRANCH  30  31
ATOM     31  N   UNL     1      -2.344  10.533  16.347  0.00  0.00    +0.000 N 
ATOM     32  C   UNL     1      -3.281  11.378  15.649  0.00  0.00    +0.000 C 
ATOM     33  C   UNL     1      -3.252  10.175  14.742  0.00  0.00    +0.000 C 
ATOM     34  N   UNL     1      -2.632   9.441  15.590  0.00  0.00    +0.000 NA
ENDBRANCH  30  31
ENDBRANCH   6  30
TORSDOF 7
ENDMDL
MODEL 8
REMARK VINA RESULT:      -8.1      7.514     10.713
REMARK  Name = 
REMARK  8 active torsions:
REMARK  status: ('A' for Active; 'I' for Inactive)
REMARK    1  A    between atoms: C_1  and  N_2
REMARK    2  A    between atoms: C_6  and  C_7
REMARK    3  A    between atoms: C_7  and  N_8
REMARK    4  A    between atoms: N_8  and  C_9
REMARK    5  A    between atoms: C_13  and  N_14
REMARK    6  A    between atoms: C_19  and  C_20
REMARK    7  A    between atoms: C_20  and  N_21
REMARK    8  A    between atoms: C_26  and  C_27
REMARK                            x       y       z     vdW  Elec       q    Type
REMARK                         _______ _______ _______ _____ _____    ______ ____
ROOT
ATOM      1  N   UNL     1      -0.149  11.498  18.381  0.00  0.00    +0.000 N 
ATOM      2  C   UNL     1       0.645  10.659  19.315  0.00  0.00    +0.000 C 
ATOM      3  C   UNL     1       0.205  11.180  20.650  0.00  0.00    +0.000 A 
ATOM      4  C   UNL     1      -0.160  12.519  20.470  0.00  0.00    +0.000 A 
ATOM      5  C   UNL     1      -0.831  13.255  21.431  0.00  0.00    +0.000 A 
ATOM      6  C   UNL     1      -1.192  12.604  22.619  0.00  0.00    +0.000 A 
ATOM      7  C   UNL     1      -0.800  11.256  22.819  0.00  0.00    +0.000 A 
ATOM      8  C   UNL     1      -0.106  10.514  21.833  0.00  0.00    +0.000 A 
ATOM      9  C   UNL     1      -0.232  12.768  19.009  0.00  0.00    +0.000 C 
ATOM     10  O   UNL     1      -0.533  13.840  18.514  0.00  0.00    +0.000 OA
ENDROOT
BRANCH   1  15
ATOM     11  C   UNL     1      -3.716  11.439  17.523  0.00  0.00    +0.000 A 
ATOM     12  C   UNL     1      -3.611  10.586  16.418  0.00  0.00    +0.000 A 
ATOM     13  C   UNL     1      -2.533   9.714  16.289  0.00  0.00    +0.000 A 
ATOM     14  C   UNL     1      -1.475   9.788  17.184  0.00  0.00    +0.000 A 
ATOM     15  C   UNL     1      -1.428  10.852  18.097  0.00  0.00    +0.000 A 
ATOM     16  C   UNL     1      -2.599  11.579  18.353  0.00  0.00    +0.000 A 
BRANCH  11  17
ATOM     17  N   UNL     1      -4.861  12.255  17.640  0.00  0.00    +0.000 N 
ATOM     18  H   UNL     1      -5.584  11.888  17.021  0.00  0.00    +0.000 HD
BRANCH  17  19
ATOM     19  C   UNL     1      -5.392  12.374  19.005  0.00  0.00    +0.000 C 
BRANCH  19  25
ATOM     20  C   UNL     1      -7.549  12.375  21.252  0.00  0.00    +0.000 C 
ATOM     21  N   UNL     1      -7.185  11.259  20.425  0.00  0.00    +0.000 N 
ATOM     22  C   UNL     1      -7.729  10.010  20.478  0.00  0.00    +0.000 A 
ATOM     23  N   UNL     1      -7.162   9.251  19.561  0.00  0.00    +0.000 NA
ATOM     24  N   UNL     1      -6.232  10.015  18.905  0.00  0.00    +0.000 NA
ATOM     25  C   UNL     1      -6.241  11.223  19.426  0.00  0.00    +0.000 A 
ENDBRANCH  19  25
ENDBRANCH  17  19
ENDBRANCH  11  17
ENDBRANCH   1  15
BRANCH   8  26
ATOM     26  C   UNL     1       0.101   9.033  22.034  0.00  0.00    +0.000 C 
ATOM     27  F   UNL     1       1.369   8.607  21.778  0.00  0.00    +0.000 F 
ATOM     28  F   UNL     1      -0.162   8.640  23.310  0.00  0.00    +0.000 F 
ATOM     29  F   UNL     1      -0.709   8.281  21.236  0.00  0.00    +0.000 F 
ENDBRANCH   8  26
BRANCH   6  30
ATOM     30  C   UNL     1      -2.175  13.258  23.573  0.00  0.00    +0.000 C 
BRANCH  30  31
ATOM     31  N   UNL     1      -3.435  12.581  23.849  0.00  0.00    +0.000 N 
ATOM     32  C   UNL     1      -4.503  12.796  22.905  0.00  0.00    +0.000 C 
ATOM     33  C   UNL     1      -5.265  12.815  24.204  0.00  0.00    +0.000 C 
ATOM     34  N   UNL     1      -4.207  12.891  24.924  0.00  0.00    +0.000 NA
ENDBRANCH  30  31
ENDBRANCH   6  30
TORSDOF 7
ENDMDL
MODEL 9
REMARK VINA RESULT:      -8.0      1.187      1.396
REMARK  Name = 
REMARK  8 active torsions:
REMARK  status: ('A' for Active; 'I' for Inactive)
REMARK    1  A    between atoms: C_1  and  N_2
REMARK    2  A    between atoms: C_6  and  C_7
REMARK    3  A    between atoms: C_7  and  N_8
REMARK    4  A    between atoms: N_8  and  C_9
REMARK    5  A    between atoms: C_13  and  N_14
REMARK    6  A    between atoms: C_19  and  C_20
REMARK    7  A    between atoms: C_20  and  N_21
REMARK    8  A    between atoms: C_26  and  C_27
REMARK                            x       y       z     vdW  Elec       q    Type
REMARK                         _______ _______ _______ _____ _____    ______ ____
ROOT
ATOM      1  N   UNL     1       2.897   3.534  19.166  0.00  0.00    +0.000 N 
ATOM      2  C   UNL     1       4.279   3.728  19.674  0.00  0.00    +0.000 C 
ATOM      3  C   UNL     1       5.059   3.869  18.402  0.00  0.00    +0.000 A 
ATOM      4  C   UNL     1       4.377   3.144  17.417  0.00  0.00    +0.000 A 
ATOM      5  C   UNL     1       4.677   3.234  16.069  0.00  0.00    +0.000 A 
ATOM      6  C   UNL     1       5.684   4.129  15.682  0.00  0.00    +0.000 A 
ATOM      7  C   UNL     1       6.397   4.845  16.676  0.00  0.00    +0.000 A 
ATOM      8  C   UNL     1       6.089   4.739  18.054  0.00  0.00    +0.000 A 
ATOM      9  C   UNL     1       3.046   2.790  17.968  0.00  0.00    +0.000 C 
ATOM     10  O   UNL     1       2.201   2.161  17.356  0.00  0.00    +0.000 OA
ENDROOT
BRANCH   1  15
ATOM     11  C   UNL     1       1.787   6.836  20.320  0.00  0.00    +0.000 A 
ATOM     12  C   UNL     1       2.359   7.581  19.282  0.00  0.00    +0.000 A 
ATOM     13  C   UNL     1       2.646   6.990  18.053  0.00  0.00    +0.000 A 
ATOM     14  C   UNL     1       2.500   5.619  17.897  0.00  0.00    +0.000 A 
ATOM     15  C   UNL     1       2.234   4.828  19.024  0.00  0.00    +0.000 A 
ATOM     16  C   UNL     1       1.746   5.444  20.185  0.00  0.00    +0.000 A 
BRANCH  11  17
ATOM     17  N   UNL     1       1.455   7.497  21.521  0.00  0.00    +0.000 N 
ATOM     18  H   UNL     1       1.951   7.043  22.288  0.00  0.00    +0.000 HD
BRANCH  17  19
ATOM     19  C   UNL     1       1.743   8.938  21.529  0.00  0.00    +0.000 C 
BRANCH  19  25
ATOM     20  C   UNL     1      -0.167  10.732  19.846  0.00  0.00    +0.000 C 
ATOM     21  N   UNL     1      -0.202  10.558  21.270  0.00  0.00    +0.000 N 
ATOM     22  C   UNL     1      -1.086  11.143  22.128  0.00  0.00    +0.000 A 
ATOM     23  N   UNL     1      -0.829  10.739  23.357  0.00  0.00    +0.000 NA
ATOM     24  N   UNL     1       0.241   9.883  23.299  0.00  0.00    +0.000 NA
ATOM     25  C   UNL     1       0.622   9.775  22.045  0.00  0.00    +0.000 A 
ENDBRANCH  19  25
ENDBRANCH  17  19
ENDBRANCH  11  17
ENDBRANCH   1  15
BRANCH   8  26
ATOM     26  C   UNL     1       6.753   5.677  19.032  0.00  0.00    +0.000 C 
ATOM     27  F   UNL     1       5.884   6.434  19.757  0.00  0.00    +0.000 F 
ATOM     28  F   UNL     1       7.513   5.019  19.949  0.00  0.00    +0.000 F 
ATOM     29  F   UNL     1       7.589   6.562  18.418  0.00  0.00    +0.000 F 
ENDBRANCH   8  26
BRANCH   6  30
ATOM     30  C   UNL     1       5.854   4.491  14.217  0.00  0.00    +0.000 C 
BRANCH  30  31
ATOM     31  N   UNL     1       5.649   3.454  13.214  0.00  0.00    +0.000 N 
ATOM     32  C   UNL     1       6.605   3.402  12.136  0.00  0.00    +0.000 C 
ATOM     33  C   UNL     1       5.326   3.112  11.396  0.00  0.00    +0.000 C 
ATOM     34  N   UNL     1       4.577   3.452  12.379  0.00  0.00    +0.000 NA
ENDBRANCH  30  31
ENDBRANCH   6  30
TORSDOF 7
ENDMDL
