MODEL 1
REMARK VINA RESULT:      -8.9      0.000      0.000
REMARK  Name = 
REMARK  5 active torsions:
REMARK  status: ('A' for Active; 'I' for Inactive)
REMARK    1  A    between atoms: C_1  and  C_2
REMARK    2  A    between atoms: C_6  and  O_7
REMARK    3  A    between atoms: C_9  and  C_10
REMARK    4  A    between atoms: N_12  and  C_13
REMARK    5  A    between atoms: C_18  and  C_19
REMARK                            x       y       z     vdW  Elec       q    Type
REMARK                         _______ _______ _______ _____ _____    ______ ____
ROOT
ATOM      1  C   UNL     1       3.663   4.122  19.495  0.00  0.00    +0.000 A 
ATOM      2  C   UNL     1       3.626   2.832  20.048  0.00  0.00    +0.000 A 
ATOM      3  C   UNL     1       2.761   2.540  21.100  0.00  0.00    +0.000 A 
ATOM      4  C   UNL     1       1.970   3.547  21.631  0.00  0.00    +0.000 A 
ATOM      5  C   UNL     1       2.000   4.827  21.072  0.00  0.00    +0.000 A 
ATOM      6  C   UNL     1       2.779   5.128  19.939  0.00  0.00    +0.000 A 
ENDROOT
BRANCH   6   7
ATOM      7  C   UNL     1       2.613   6.425  19.230  0.00  0.00    +0.000 A 
ATOM      8  N   UNL     1       3.014   6.678  17.994  0.00  0.00    +0.000 NA
ATOM      9  C   UNL     1       2.647   7.960  17.700  0.00  0.00    +0.000 A 
ATOM     10  C   UNL     1       1.963   8.522  18.750  0.00  0.00    +0.000 A 
ATOM     11  N   UNL     1       1.933   7.538  19.710  0.00  0.00    +0.000 N 
ATOM     12  C   UNL     1       1.291   7.724  21.000  0.00  0.00    +0.000 C 
ATOM     13  C   UNL     1       0.358   8.930  21.067  0.00  0.00    +0.000 C 
ATOM     14  C   UNL     1       0.996  10.143  20.395  0.00  0.00    +0.000 C 
ATOM     15  C   UNL     1       1.312   9.851  18.927  0.00  0.00    +0.000 C 
ENDBRANCH   6   7
BRANCH   1  18
ATOM     16  C   UNL     1       5.943   4.718  18.892  0.00  0.00    +0.000 C 
ATOM     17  O   UNL     1       6.307   4.873  20.058  0.00  0.00    +0.000 OA
ATOM     18  N   UNL     1       4.650   4.360  18.521  0.00  0.00    +0.000 N 
ATOM     19  H   UNL     1       4.417   4.180  17.555  0.00  0.00    +0.000 HD
BRANCH  16  27
ATOM     20  C   UNL     1       7.662   8.591  17.525  0.00  0.00    +0.000 C 
ATOM     21  C   UNL     1       7.771   7.162  17.980  0.00  0.00    +0.000 C 
ATOM     22  O   UNL     1       8.440   6.851  18.965  0.00  0.00    +0.000 OA
ATOM     23  N   UNL     1       7.065   6.239  17.245  0.00  0.00    +0.000 N 
ATOM     24  C   UNL     1       6.454   6.456  15.947  0.00  0.00    +0.000 C 
ATOM     25  C   UNL     1       5.590   5.217  15.723  0.00  0.00    +0.000 C 
ATOM     26  C   UNL     1       6.369   4.126  16.458  0.00  0.00    +0.000 C 
ATOM     27  C   UNL     1       6.911   4.852  17.691  0.00  0.00    +0.000 C 
BRANCH  25  28
ATOM     28  O   UNL     1       5.424   4.904  14.348  0.00  0.00    +0.000 OA
ATOM     29  H   UNL     1       6.182   5.259  13.854  0.00  0.00    +0.000 HD
ENDBRANCH  25  28
ENDBRANCH  16  27
ENDBRANCH   1  18
TORSDOF 4
ENDMDL
MODEL 2
REMARK VINA RESULT:      -8.4      1.121      1.365
REMARK  Name = 
REMARK  5 active torsions:
REMARK  status: ('A' for Active; 'I' for Inactive)
REMARK    1  A    between atoms: C_1  and  C_2
REMARK    2  A    between atoms: C_6  and  O_7
REMARK    3  A    between atoms: C_9  and  C_10
REMARK    4  A    between atoms: N_12  and  C_13
REMARK    5  A    between atoms: C_18  and  C_19
REMARK                            x       y       z     vdW  Elec       q    Type
REMARK                         _______ _______ _______ _____ _____    ______ ____
ROOT
ATOM      1  C   UNL     1       3.745   4.246  19.594  0.00  0.00    +0.000 A 
ATOM      2  C   UNL     1       3.790   2.943  20.113  0.00  0.00    +0.000 A 
ATOM      3  C   UNL     1       2.920   2.558  21.130  0.00  0.00    +0.000 A 
ATOM      4  C   UNL     1       2.041   3.488  21.663  0.00  0.00    +0.000 A 
ATOM      5  C   UNL     1       1.990   4.781  21.137  0.00  0.00    +0.000 A 
ATOM      6  C   UNL     1       2.776   5.171  20.037  0.00  0.00    +0.000 A 
ENDROOT
BRANCH   6   7
ATOM      7  C   UNL     1       2.532   6.471  19.356  0.00  0.00    +0.000 A 
ATOM      8  N   UNL     1       2.868   6.755  18.107  0.00  0.00    +0.000 NA
ATOM      9  C   UNL     1       2.444   8.028  17.849  0.00  0.00    +0.000 A 
ATOM     10  C   UNL     1       1.787   8.549  18.938  0.00  0.00    +0.000 A 
ATOM     11  N   UNL     1       1.835   7.552  19.882  0.00  0.00    +0.000 N 
ATOM     12  C   UNL     1       1.246   7.697  21.203  0.00  0.00    +0.000 C 
ATOM     13  C   UNL     1       0.274   8.867  21.329  0.00  0.00    +0.000 C 
ATOM     14  C   UNL     1       0.838  10.111  20.649  0.00  0.00    +0.000 C 
ATOM     15  C   UNL     1       1.099   9.852  19.164  0.00  0.00    +0.000 C 
ENDBRANCH   6   7
BRANCH   1  18
ATOM     16  C   UNL     1       4.880   3.855  17.479  0.00  0.00    +0.000 C 
ATOM     17  O   UNL     1       4.190   2.878  17.185  0.00  0.00    +0.000 OA
ATOM     18  N   UNL     1       4.738   4.584  18.656  0.00  0.00    +0.000 N 
ATOM     19  H   UNL     1       5.284   5.417  18.822  0.00  0.00    +0.000 HD
BRANCH  16  27
ATOM     20  C   UNL     1       8.032   6.720  18.776  0.00  0.00    +0.000 C 
ATOM     21  C   UNL     1       7.562   5.443  18.135  0.00  0.00    +0.000 C 
ATOM     22  O   UNL     1       7.954   4.345  18.529  0.00  0.00    +0.000 OA
ATOM     23  N   UNL     1       6.661   5.580  17.107  0.00  0.00    +0.000 N 
ATOM     24  C   UNL     1       6.325   6.809  16.413  0.00  0.00    +0.000 C 
ATOM     25  C   UNL     1       5.103   6.449  15.571  0.00  0.00    +0.000 C 
ATOM     26  C   UNL     1       5.344   4.973  15.245  0.00  0.00    +0.000 C 
ATOM     27  C   UNL     1       5.964   4.426  16.531  0.00  0.00    +0.000 C 
BRANCH  25  28
ATOM     28  O   UNL     1       4.996   7.232  14.392  0.00  0.00    +0.000 OA
ATOM     29  H   UNL     1       4.421   7.995  14.576  0.00  0.00    +0.000 HD
ENDBRANCH  25  28
ENDBRANCH  16  27
ENDBRANCH   1  18
TORSDOF 4
ENDMDL
MODEL 3
REMARK VINA RESULT:      -8.2      2.568      6.109
REMARK  Name = 
REMARK  5 active torsions:
REMARK  status: ('A' for Active; 'I' for Inactive)
REMARK    1  A    between atoms: C_1  and  C_2
REMARK    2  A    between atoms: C_6  and  O_7
REMARK    3  A    between atoms: C_9  and  C_10
REMARK    4  A    between atoms: N_12  and  C_13
REMARK    5  A    between atoms: C_18  and  C_19
REMARK                            x       y       z     vdW  Elec       q    Type
REMARK                         _______ _______ _______ _____ _____    ______ ____
ROOT
ATOM      1  C   UNL     1       2.387   4.991  20.052  0.00  0.00    +0.000 A 
ATOM      2  C   UNL     1       1.293   4.361  20.666  0.00  0.00    +0.000 A 
ATOM      3  C   UNL     1       1.113   2.986  20.546  0.00  0.00    +0.000 A 
ATOM      4  C   UNL     1       1.996   2.248  19.772  0.00  0.00    +0.000 A 
ATOM      5  C   UNL     1       3.090   2.875  19.172  0.00  0.00    +0.000 A 
ATOM      6  C   UNL     1       3.364   4.242  19.364  0.00  0.00    +0.000 A 
ENDROOT
BRANCH   6   7
ATOM      7  C   UNL     1       4.654   4.825  18.909  0.00  0.00    +0.000 A 
ATOM      8  N   UNL     1       5.552   5.403  19.692  0.00  0.00    +0.000 NA
ATOM      9  C   UNL     1       6.605   5.773  18.905  0.00  0.00    +0.000 A 
ATOM     10  C   UNL     1       6.395   5.386  17.603  0.00  0.00    +0.000 A 
ATOM     11  N   UNL     1       5.165   4.774  17.617  0.00  0.00    +0.000 N 
ATOM     12  C   UNL     1       4.559   4.211  16.422  0.00  0.00    +0.000 C 
ATOM     13  C   UNL     1       5.528   4.026  15.257  0.00  0.00    +0.000 C 
ATOM     14  C   UNL     1       6.425   5.251  15.104  0.00  0.00    +0.000 C 
ATOM     15  C   UNL     1       7.236   5.497  16.377  0.00  0.00    +0.000 C 
ENDBRANCH   6   7
BRANCH   1  18
ATOM     16  C   UNL     1       1.963   7.173  19.065  0.00  0.00    +0.000 C 
ATOM     17  O   UNL     1       1.522   6.712  18.012  0.00  0.00    +0.000 OA
ATOM     18  N   UNL     1       2.424   6.396  20.124  0.00  0.00    +0.000 N 
ATOM     19  H   UNL     1       2.714   6.820  20.993  0.00  0.00    +0.000 HD
BRANCH  16  27
ATOM     20  C   UNL     1      -0.149   9.077  22.491  0.00  0.00    +0.000 C 
ATOM     21  C   UNL     1       1.070   8.793  21.659  0.00  0.00    +0.000 C 
ATOM     22  O   UNL     1       2.082   8.294  22.151  0.00  0.00    +0.000 OA
ATOM     23  N   UNL     1       0.975   9.104  20.323  0.00  0.00    +0.000 N 
ATOM     24  C   UNL     1      -0.059   9.905  19.695  0.00  0.00    +0.000 C 
ATOM     25  C   UNL     1       0.163   9.708  18.198  0.00  0.00    +0.000 C 
ATOM     26  C   UNL     1       1.676   9.509  18.106  0.00  0.00    +0.000 C 
ATOM     27  C   UNL     1       2.000   8.693  19.359  0.00  0.00    +0.000 C 
BRANCH  25  28
ATOM     28  O   UNL     1      -0.265  10.821  17.427  0.00  0.00    +0.000 OA
ATOM     29  H   UNL     1       0.195  11.616  17.746  0.00  0.00    +0.000 HD
ENDBRANCH  25  28
ENDBRANCH  16  27
ENDBRANCH   1  18
TORSDOF 4
ENDMDL
MODEL 4
REMARK VINA RESULT:      -7.7      1.109      1.214
REMARK  Name = 
REMARK  5 active torsions:
REMARK  status: ('A' for Active; 'I' for Inactive)
REMARK    1  A    between atoms: C_1  and  C_2
REMARK    2  A    between atoms: C_6  and  O_7
REMARK    3  A    between atoms: C_9  and  C_10
REMARK    4  A    between atoms: N_12  and  C_13
REMARK    5  A    between atoms: C_18  and  C_19
REMARK                            x       y       z     vdW  Elec       q    Type
REMARK                         _______ _______ _______ _____ _____    ______ ____
ROOT
ATOM      1  C   UNL     1       3.746   4.057  19.733  0.00  0.00    +0.000 A 
ATOM      2  C   UNL     1       3.564   2.839  20.406  0.00  0.00    +0.000 A 
ATOM      3  C   UNL     1       2.493   2.670  21.281  0.00  0.00    +0.000 A 
ATOM      4  C   UNL     1       1.635   3.732  21.520  0.00  0.00    +0.000 A 
ATOM      5  C   UNL     1       1.811   4.940  20.840  0.00  0.00    +0.000 A 
ATOM      6  C   UNL     1       2.815   5.108  19.868  0.00  0.00    +0.000 A 
ENDROOT
BRANCH   6   7
ATOM      7  C   UNL     1       2.831   6.315  19.000  0.00  0.00    +0.000 A 
ATOM      8  N   UNL     1       3.366   6.382  17.790  0.00  0.00    +0.000 NA
ATOM      9  C   UNL     1       3.144   7.642  17.313  0.00  0.00    +0.000 A 
ATOM     10  C   UNL     1       2.417   8.380  18.215  0.00  0.00    +0.000 A 
ATOM     11  N   UNL     1       2.210   7.529  19.274  0.00  0.00    +0.000 N 
ATOM     12  C   UNL     1       1.470   7.923  20.460  0.00  0.00    +0.000 C 
ATOM     13  C   UNL     1       0.645   9.195  20.289  0.00  0.00    +0.000 C 
ATOM     14  C   UNL     1       1.448  10.262  19.551  0.00  0.00    +0.000 C 
ATOM     15  C   UNL     1       1.873   9.767  18.167  0.00  0.00    +0.000 C 
ENDBRANCH   6   7
BRANCH   1  18
ATOM     16  C   UNL     1       4.949   3.752  17.641  0.00  0.00    +0.000 C 
ATOM     17  O   UNL     1       3.995   3.229  17.063  0.00  0.00    +0.000 OA
ATOM     18  N   UNL     1       4.918   4.181  18.965  0.00  0.00    +0.000 N 
ATOM     19  H   UNL     1       5.704   4.665  19.373  0.00  0.00    +0.000 HD
BRANCH  16  27
ATOM     20  C   UNL     1       6.828   7.786  17.504  0.00  0.00    +0.000 C 
ATOM     21  C   UNL     1       6.839   6.311  17.796  0.00  0.00    +0.000 C 
ATOM     22  O   UNL     1       7.099   5.880  18.920  0.00  0.00    +0.000 OA
ATOM     23  N   UNL     1       6.522   5.485  16.744  0.00  0.00    +0.000 N 
ATOM     24  C   UNL     1       6.441   5.863  15.345  0.00  0.00    +0.000 C 
ATOM     25  C   UNL     1       5.803   4.656  14.662  0.00  0.00    +0.000 C 
ATOM     26  C   UNL     1       6.305   3.486  15.509  0.00  0.00    +0.000 C 
ATOM     27  C   UNL     1       6.292   4.050  16.930  0.00  0.00    +0.000 C 
BRANCH  25  28
ATOM     28  O   UNL     1       6.192   4.523  13.304  0.00  0.00    +0.000 OA
ATOM     29  H   UNL     1       5.709   3.774  12.913  0.00  0.00    +0.000 HD
ENDBRANCH  25  28
ENDBRANCH  16  27
ENDBRANCH   1  18
TORSDOF 4
ENDMDL
MODEL 5
REMARK VINA RESULT:      -7.6      2.926      6.227
REMARK  Name = 
REMARK  5 active torsions:
REMARK  status: ('A' for Active; 'I' for Inactive)
REMARK    1  A    between atoms: C_1  and  C_2
REMARK    2  A    between atoms: C_6  and  O_7
REMARK    3  A    between atoms: C_9  and  C_10
REMARK    4  A    between atoms: N_12  and  C_13
REMARK    5  A    between atoms: C_18  and  C_19
REMARK                            x       y       z     vdW  Elec       q    Type
REMARK                         _______ _______ _______ _____ _____    ______ ____
ROOT
ATOM      1  C   UNL     1       2.166   5.771  19.677  0.00  0.00    +0.000 A 
ATOM      2  C   UNL     1       1.285   5.021  20.471  0.00  0.00    +0.000 A 
ATOM      3  C   UNL     1       1.058   3.675  20.195  0.00  0.00    +0.000 A 
ATOM      4  C   UNL     1       1.671   3.093  19.096  0.00  0.00    +0.000 A 
ATOM      5  C   UNL     1       2.555   3.839  18.313  0.00  0.00    +0.000 A 
ATOM      6  C   UNL     1       2.893   5.167  18.629  0.00  0.00    +0.000 A 
ENDROOT
BRANCH   6   7
ATOM      7  C   UNL     1       4.006   5.853  17.921  0.00  0.00    +0.000 A 
ATOM      8  N   UNL     1       3.872   6.643  16.867  0.00  0.00    +0.000 NA
ATOM      9  C   UNL     1       5.116   7.102  16.538  0.00  0.00    +0.000 A 
ATOM     10  C   UNL     1       6.055   6.631  17.423  0.00  0.00    +0.000 A 
ATOM     11  N   UNL     1       5.343   5.853  18.304  0.00  0.00    +0.000 N 
ATOM     12  C   UNL     1       5.969   5.159  19.416  0.00  0.00    +0.000 C 
ATOM     13  C   UNL     1       7.379   5.643  19.742  0.00  0.00    +0.000 C 
ATOM     14  C   UNL     1       8.190   5.840  18.464  0.00  0.00    +0.000 C 
ATOM     15  C   UNL     1       7.522   6.865  17.546  0.00  0.00    +0.000 C 
ENDBRANCH   6   7
BRANCH   1  18
ATOM     16  C   UNL     1       1.661   8.078  19.094  0.00  0.00    +0.000 C 
ATOM     17  O   UNL     1       1.075   7.782  18.052  0.00  0.00    +0.000 OA
ATOM     18  N   UNL     1       2.243   7.149  19.952  0.00  0.00    +0.000 N 
ATOM     19  H   UNL     1       2.654   7.436  20.828  0.00  0.00    +0.000 HD
BRANCH  16  27
ATOM     20  C   UNL     1      -0.454   9.591  22.708  0.00  0.00    +0.000 C 
ATOM     21  C   UNL     1       0.774   9.360  21.872  0.00  0.00    +0.000 C 
ATOM     22  O   UNL     1       1.742   8.739  22.311  0.00  0.00    +0.000 OA
ATOM     23  N   UNL     1       0.738   9.863  20.593  0.00  0.00    +0.000 N 
ATOM     24  C   UNL     1      -0.232  10.804  20.064  0.00  0.00    +0.000 C 
ATOM     25  C   UNL     1       0.027  10.810  18.559  0.00  0.00    +0.000 C 
ATOM     26  C   UNL     1       1.530  10.540  18.476  0.00  0.00    +0.000 C 
ATOM     27  C   UNL     1       1.770   9.536  19.605  0.00  0.00    +0.000 C 
BRANCH  25  28
ATOM     28  O   UNL     1      -0.316  12.044  17.947  0.00  0.00    +0.000 OA
ATOM     29  H   UNL     1      -0.784  12.595  18.597  0.00  0.00    +0.000 HD
ENDBRANCH  25  28
ENDBRANCH  16  27
ENDBRANCH   1  18
TORSDOF 4
ENDMDL
MODEL 6
REMARK VINA RESULT:      -7.6      3.113      6.544
REMARK  Name = 
REMARK  5 active torsions:
REMARK  status: ('A' for Active; 'I' for Inactive)
REMARK    1  A    between atoms: C_1  and  C_2
REMARK    2  A    between atoms: C_6  and  O_7
REMARK    3  A    between atoms: C_9  and  C_10
REMARK    4  A    between atoms: N_12  and  C_13
REMARK    5  A    between atoms: C_18  and  C_19
REMARK                            x       y       z     vdW  Elec       q    Type
REMARK                         _______ _______ _______ _____ _____    ______ ____
ROOT
ATOM      1  C   UNL     1       2.139   5.904  19.931  0.00  0.00    +0.000 A 
ATOM      2  C   UNL     1       1.338   5.229  20.865  0.00  0.00    +0.000 A 
ATOM      3  C   UNL     1       1.205   3.844  20.810  0.00  0.00    +0.000 A 
ATOM      4  C   UNL     1       1.831   3.139  19.793  0.00  0.00    +0.000 A 
ATOM      5  C   UNL     1       2.637   3.812  18.872  0.00  0.00    +0.000 A 
ATOM      6  C   UNL     1       2.882   5.195  18.963  0.00  0.00    +0.000 A 
ENDROOT
BRANCH   6   7
ATOM      7  C   UNL     1       3.921   5.837  18.116  0.00  0.00    +0.000 A 
ATOM      8  N   UNL     1       3.685   6.584  17.049  0.00  0.00    +0.000 NA
ATOM      9  C   UNL     1       4.892   7.012  16.574  0.00  0.00    +0.000 A 
ATOM     10  C   UNL     1       5.914   6.567  17.377  0.00  0.00    +0.000 A 
ATOM     11  N   UNL     1       5.290   5.835  18.359  0.00  0.00    +0.000 N 
ATOM     12  C   UNL     1       6.022   5.180  19.430  0.00  0.00    +0.000 C 
ATOM     13  C   UNL     1       7.463   5.659  19.587  0.00  0.00    +0.000 C 
ATOM     14  C   UNL     1       8.138   5.792  18.226  0.00  0.00    +0.000 C 
ATOM     15  C   UNL     1       7.388   6.787  17.338  0.00  0.00    +0.000 C 
ENDBRANCH   6   7
BRANCH   1  18
ATOM     16  C   UNL     1       1.101   7.980  20.659  0.00  0.00    +0.000 C 
ATOM     17  O   UNL     1       0.160   7.419  21.221  0.00  0.00    +0.000 OA
ATOM     18  N   UNL     1       2.119   7.310  19.985  0.00  0.00    +0.000 N 
ATOM     19  H   UNL     1       2.904   7.811  19.597  0.00  0.00    +0.000 HD
BRANCH  16  27
ATOM     20  C   UNL     1      -1.320  10.723  23.195  0.00  0.00    +0.000 C 
ATOM     21  C   UNL     1      -0.020  10.159  22.694  0.00  0.00    +0.000 C 
ATOM     22  O   UNL     1       0.805   9.666  23.463  0.00  0.00    +0.000 OA
ATOM     23  N   UNL     1       0.176  10.210  21.334  0.00  0.00    +0.000 N 
ATOM     24  C   UNL     1      -0.605  10.974  20.378  0.00  0.00    +0.000 C 
ATOM     25  C   UNL     1      -0.141  10.466  19.016  0.00  0.00    +0.000 C 
ATOM     26  C   UNL     1       1.322  10.099  19.274  0.00  0.00    +0.000 C 
ATOM     27  C   UNL     1       1.293   9.517  20.688  0.00  0.00    +0.000 C 
BRANCH  25  28
ATOM     28  O   UNL     1      -0.261  11.443  17.994  0.00  0.00    +0.000 OA
ATOM     29  H   UNL     1       0.375  12.157  18.168  0.00  0.00    +0.000 HD
ENDBRANCH  25  28
ENDBRANCH  16  27
ENDBRANCH   1  18
TORSDOF 4
ENDMDL
MODEL 7
REMARK VINA RESULT:      -7.5      2.478      5.259
REMARK  Name = 
REMARK  5 active torsions:
REMARK  status: ('A' for Active; 'I' for Inactive)
REMARK    1  A    between atoms: C_1  and  C_2
REMARK    2  A    between atoms: C_6  and  O_7
REMARK    3  A    between atoms: C_9  and  C_10
REMARK    4  A    between atoms: N_12  and  C_13
REMARK    5  A    between atoms: C_18  and  C_19
REMARK                            x       y       z     vdW  Elec       q    Type
REMARK                         _______ _______ _______ _____ _____    ______ ____
ROOT
ATOM      1  C   UNL     1       4.626   4.808  17.142  0.00  0.00    +0.000 A 
ATOM      2  C   UNL     1       5.566   4.525  16.139  0.00  0.00    +0.000 A 
ATOM      3  C   UNL     1       5.934   5.505  15.220  0.00  0.00    +0.000 A 
ATOM      4  C   UNL     1       5.326   6.750  15.273  0.00  0.00    +0.000 A 
ATOM      5  C   UNL     1       4.399   7.032  16.279  0.00  0.00    +0.000 A 
ATOM      6  C   UNL     1       4.087   6.104  17.289  0.00  0.00    +0.000 A 
ENDROOT
BRANCH   6   7
ATOM      7  C   UNL     1       3.282   6.513  18.470  0.00  0.00    +0.000 A 
ATOM      8  N   UNL     1       3.230   5.864  19.623  0.00  0.00    +0.000 NA
ATOM      9  C   UNL     1       2.413   6.575  20.456  0.00  0.00    +0.000 A 
ATOM     10  C   UNL     1       1.970   7.720  19.839  0.00  0.00    +0.000 A 
ATOM     11  N   UNL     1       2.536   7.680  18.587  0.00  0.00    +0.000 N 
ATOM     12  C   UNL     1       2.319   8.722  17.598  0.00  0.00    +0.000 C 
ATOM     13  C   UNL     1       1.731  10.011  18.166  0.00  0.00    +0.000 C 
ATOM     14  C   UNL     1       0.607   9.703  19.150  0.00  0.00    +0.000 C 
ATOM     15  C   UNL     1       1.116   8.846  20.310  0.00  0.00    +0.000 C 
ENDBRANCH   6   7
BRANCH   1  18
ATOM     16  C   UNL     1       3.065   3.015  17.657  0.00  0.00    +0.000 C 
ATOM     17  O   UNL     1       2.314   3.276  16.716  0.00  0.00    +0.000 OA
ATOM     18  N   UNL     1       4.224   3.728  17.950  0.00  0.00    +0.000 N 
ATOM     19  H   UNL     1       4.843   3.433  18.691  0.00  0.00    +0.000 HD
BRANCH  16  27
ATOM     20  C   UNL     1       1.190   3.354  21.681  0.00  0.00    +0.000 C 
ATOM     21  C   UNL     1       1.300   2.775  20.297  0.00  0.00    +0.000 C 
ATOM     22  O   UNL     1       0.358   2.817  19.507  0.00  0.00    +0.000 OA
ATOM     23  N   UNL     1       2.515   2.221  19.970  0.00  0.00    +0.000 N 
ATOM     24  C   UNL     1       3.594   1.904  20.888  0.00  0.00    +0.000 C 
ATOM     25  C   UNL     1       4.778   1.574  19.983  0.00  0.00    +0.000 C 
ATOM     26  C   UNL     1       4.101   0.969  18.751  0.00  0.00    +0.000 C 
ATOM     27  C   UNL     1       2.832   1.809  18.600  0.00  0.00    +0.000 C 
BRANCH  25  28
ATOM     28  O   UNL     1       5.689   0.663  20.578  0.00  0.00    +0.000 OA
ATOM     29  H   UNL     1       6.556   0.765  20.151  0.00  0.00    +0.000 HD
ENDBRANCH  25  28
ENDBRANCH  16  27
ENDBRANCH   1  18
TORSDOF 4
ENDMDL
MODEL 8
REMARK VINA RESULT:      -7.3      3.168      6.693
REMARK  Name = 
REMARK  5 active torsions:
REMARK  status: ('A' for Active; 'I' for Inactive)
REMARK    1  A    between atoms: C_1  and  C_2
REMARK    2  A    between atoms: C_6  and  O_7
REMARK    3  A    between atoms: C_9  and  C_10
REMARK    4  A    between atoms: N_12  and  C_13
REMARK    5  A    between atoms: C_18  and  C_19
REMARK                            x       y       z     vdW  Elec       q    Type
REMARK                         _______ _______ _______ _____ _____    ______ ____
ROOT
ATOM      1  C   UNL     1       2.198   5.870  19.842  0.00  0.00    +0.000 A 
ATOM      2  C   UNL     1       1.601   5.217  20.931  0.00  0.00    +0.000 A 
ATOM      3  C   UNL     1       1.524   3.827  20.964  0.00  0.00    +0.000 A 
ATOM      4  C   UNL     1       1.997   3.093  19.887  0.00  0.00    +0.000 A 
ATOM      5  C   UNL     1       2.601   3.744  18.810  0.00  0.00    +0.000 A 
ATOM      6  C   UNL     1       2.796   5.138  18.794  0.00  0.00    +0.000 A 
ENDROOT
BRANCH   6   7
ATOM      7  C   UNL     1       3.645   5.772  17.751  0.00  0.00    +0.000 A 
ATOM      8  N   UNL     1       3.809   7.075  17.585  0.00  0.00    +0.000 NA
ATOM      9  C   UNL     1       4.685   7.249  16.551  0.00  0.00    +0.000 A 
ATOM     10  C   UNL     1       5.121   6.035  16.077  0.00  0.00    +0.000 A 
ATOM     11  N   UNL     1       4.469   5.105  16.851  0.00  0.00    +0.000 N 
ATOM     12  C   UNL     1       4.652   3.675  16.675  0.00  0.00    +0.000 C 
ATOM     13  C   UNL     1       5.871   3.299  15.836  0.00  0.00    +0.000 C 
ATOM     14  C   UNL     1       5.978   4.198  14.608  0.00  0.00    +0.000 C 
ATOM     15  C   UNL     1       6.100   5.667  15.015  0.00  0.00    +0.000 C 
ENDBRANCH   6   7
BRANCH   1  18
ATOM     16  C   UNL     1       1.139   7.938  20.560  0.00  0.00    +0.000 C 
ATOM     17  O   UNL     1       0.271   7.370  21.224  0.00  0.00    +0.000 OA
ATOM     18  N   UNL     1       2.125   7.275  19.835  0.00  0.00    +0.000 N 
ATOM     19  H   UNL     1       2.855   7.786  19.361  0.00  0.00    +0.000 HD
BRANCH  16  27
ATOM     20  C   UNL     1      -1.199  10.709  23.145  0.00  0.00    +0.000 C 
ATOM     21  C   UNL     1       0.083  10.170  22.573  0.00  0.00    +0.000 C 
ATOM     22  O   UNL     1       0.983   9.747  23.298  0.00  0.00    +0.000 OA
ATOM     23  N   UNL     1       0.175  10.162  21.201  0.00  0.00    +0.000 N 
ATOM     24  C   UNL     1      -0.706  10.848  20.274  0.00  0.00    +0.000 C 
ATOM     25  C   UNL     1      -0.323  10.292  18.904  0.00  0.00    +0.000 C 
ATOM     26  C   UNL     1       1.168   9.994  19.067  0.00  0.00    +0.000 C 
ATOM     27  C   UNL     1       1.269   9.480  20.504  0.00  0.00    +0.000 C 
BRANCH  25  28
ATOM     28  O   UNL     1      -0.560  11.213  17.851  0.00  0.00    +0.000 OA
ATOM     29  H   UNL     1      -0.882  12.047  18.232  0.00  0.00    +0.000 HD
ENDBRANCH  25  28
ENDBRANCH  16  27
ENDBRANCH   1  18
TORSDOF 4
ENDMDL
MODEL 9
REMARK VINA RESULT:      -7.2      2.832      6.133
REMARK  Name = 
REMARK  5 active torsions:
REMARK  status: ('A' for Active; 'I' for Inactive)
REMARK    1  A    between atoms: C_1  and  C_2
REMARK    2  A    between atoms: C_6  and  O_7
REMARK    3  A    between atoms: C_9  and  C_10
REMARK    4  A    between atoms: N_12  and  C_13
REMARK    5  A    between atoms: C_18  and  C_19
REMARK                            x       y       z     vdW  Elec       q    Type
REMARK                         _______ _______ _______ _____ _____    ______ ____
ROOT
ATOM      1  C   UNL     1       2.162   5.414  18.376  0.00  0.00    +0.000 A 
ATOM      2  C   UNL     1       1.162   4.595  18.925  0.00  0.00    +0.000 A 
ATOM      3  C   UNL     1       1.201   3.215  18.739  0.00  0.00    +0.000 A 
ATOM      4  C   UNL     1       2.208   2.660  17.965  0.00  0.00    +0.000 A 
ATOM      5  C   UNL     1       3.207   3.476  17.429  0.00  0.00    +0.000 A 
ATOM      6  C   UNL     1       3.261   4.858  17.689  0.00  0.00    +0.000 A 
ENDROOT
BRANCH   6   7
ATOM      7  C   UNL     1       4.457   5.654  17.303  0.00  0.00    +0.000 A 
ATOM      8  N   UNL     1       4.528   6.474  16.267  0.00  0.00    +0.000 NA
ATOM      9  C   UNL     1       5.772   7.038  16.276  0.00  0.00    +0.000 A 
ATOM     10  C   UNL     1       6.493   6.602  17.361  0.00  0.00    +0.000 A 
ATOM     11  N   UNL     1       5.648   5.737  18.014  0.00  0.00    +0.000 N 
ATOM     12  C   UNL     1       6.028   5.046  19.235  0.00  0.00    +0.000 C 
ATOM     13  C   UNL     1       7.265   5.620  19.920  0.00  0.00    +0.000 C 
ATOM     14  C   UNL     1       8.353   5.929  18.896  0.00  0.00    +0.000 C 
ATOM     15  C   UNL     1       7.857   6.939  17.860  0.00  0.00    +0.000 C 
ENDBRANCH   6   7
BRANCH   1  18
ATOM     16  C   UNL     1       1.840   7.384  19.767  0.00  0.00    +0.000 C 
ATOM     17  O   UNL     1       1.844   6.750  20.823  0.00  0.00    +0.000 OA
ATOM     18  N   UNL     1       1.979   6.803  18.509  0.00  0.00    +0.000 N 
ATOM     19  H   UNL     1       2.036   7.371  17.677  0.00  0.00    +0.000 HD
BRANCH  16  27
ATOM     20  C   UNL     1      -0.480   9.792  22.705  0.00  0.00    +0.000 C 
ATOM     21  C   UNL     1       0.771   9.444  21.948  0.00  0.00    +0.000 C 
ATOM     22  O   UNL     1       1.816   9.158  22.531  0.00  0.00    +0.000 OA
ATOM     23  N   UNL     1       0.667   9.445  20.577  0.00  0.00    +0.000 N 
ATOM     24  C   UNL     1      -0.426   9.995  19.795  0.00  0.00    +0.000 C 
ATOM     25  C   UNL     1      -0.166   9.496  18.376  0.00  0.00    +0.000 C 
ATOM     26  C   UNL     1       1.361   9.418  18.321  0.00  0.00    +0.000 C 
ATOM     27  C   UNL     1       1.738   8.928  19.720  0.00  0.00    +0.000 C 
BRANCH  25  28
ATOM     28  O   UNL     1      -0.680  10.370  17.383  0.00  0.00    +0.000 OA
ATOM     29  H   UNL     1       0.037  10.952  17.079  0.00  0.00    +0.000 HD
ENDBRANCH  25  28
ENDBRANCH  16  27
ENDBRANCH   1  18
TORSDOF 4
ENDMDL
