MODEL 1
REMARK VINA RESULT:      -8.3      0.000      0.000
REMARK  Name = 
REMARK  3 active torsions:
REMARK  status: ('A' for Active; 'I' for Inactive)
REMARK    1  A    between atoms: C_2  and  C_3
REMARK    2  A    between atoms: C_5  and  O_6
REMARK    3  A    between atoms: C_20  and  C_22
REMARK                            x       y       z     vdW  Elec       q    Type
REMARK                         _______ _______ _______ _____ _____    ______ ____
ROOT
ATOM      1  O   UNL     1      -1.629  15.036  20.958  0.00  0.00    +0.000 OA
ATOM      2  C   UNL     1      -1.831  13.829  21.118  0.00  0.00    +0.000 C 
ATOM      3  N   UNL     1      -0.811  12.911  20.896  0.00  0.00    +0.000 N 
ATOM      4  C   UNL     1       0.519  13.413  20.539  0.00  0.00    +0.000 C 
ATOM      5  C   UNL     1       1.441  12.194  20.515  0.00  0.00    +0.000 C 
ATOM      6  C   UNL     1       0.470  11.061  20.187  0.00  0.00    +0.000 C 
ATOM      7  C   UNL     1      -0.773  11.451  21.009  0.00  0.00    +0.000 C 
ATOM      8  C   UNL     1      -0.703  11.013  22.476  0.00  0.00    +0.000 C 
ATOM      9  C   UNL     1      -0.242   9.571  22.606  0.00  0.00    +0.000 C 
ATOM     10  C   UNL     1       1.056   9.307  21.852  0.00  0.00    +0.000 C 
ATOM     11  N   UNL     1       0.963   9.712  20.447  0.00  0.00    +0.000 N 
ATOM     12  C   UNL     1       1.302   8.896  19.341  0.00  0.00    +0.000 C 
ATOM     13  O   UNL     1       1.005   9.246  18.198  0.00  0.00    +0.000 OA
ENDROOT
BRANCH  12  14
ATOM     14  C   UNL     1       1.985   7.603  19.569  0.00  0.00    +0.000 A 
ATOM     15  N   UNL     1       1.755   6.843  20.658  0.00  0.00    +0.000 NA
ATOM     16  N   UNL     1       2.490   5.742  20.460  0.00  0.00    +0.000 N 
ATOM     17  C   UNL     1       3.263   5.777  19.337  0.00  0.00    +0.000 A 
ATOM     18  C   UNL     1       4.157   4.844  18.807  0.00  0.00    +0.000 A 
ATOM     19  C   UNL     1       4.826   5.200  17.635  0.00  0.00    +0.000 A 
ATOM     20  C   UNL     1       4.600   6.432  17.024  0.00  0.00    +0.000 A 
ATOM     21  C   UNL     1       3.679   7.343  17.562  0.00  0.00    +0.000 A 
ATOM     22  C   UNL     1       2.993   7.005  18.743  0.00  0.00    +0.000 A 
ATOM     23  H   UNL     1       2.425   4.992  21.139  0.00  0.00    +0.000 HD
ENDBRANCH  12  14
BRANCH   2  24
ATOM     24  C   UNL     1      -3.184  13.435  21.619  0.00  0.00    +0.000 A 
ATOM     25  C   UNL     1      -3.553  13.396  22.967  0.00  0.00    +0.000 A 
ATOM     26  C   UNL     1      -4.866  13.105  23.330  0.00  0.00    +0.000 A 
ATOM     27  C   UNL     1      -5.809  12.750  22.380  0.00  0.00    +0.000 A 
ATOM     28  C   UNL     1      -5.428  12.688  21.045  0.00  0.00    +0.000 A 
ATOM     29 CL   UNL     1      -6.564  12.174  19.859  0.00  0.00    +0.000 Cl
ATOM     30  C   UNL     1      -4.131  13.037  20.660  0.00  0.00    +0.000 A 
BRANCH  26  31
ATOM     31  O   UNL     1      -5.262  13.152  24.635  0.00  0.00    +0.000 OA
ATOM     32  H   UNL     1      -4.932  13.969  25.046  0.00  0.00    +0.000 HD
ENDBRANCH  26  31
ENDBRANCH   2  24
TORSDOF 3
ENDMDL
MODEL 2
REMARK VINA RESULT:      -8.0      1.426      1.678
REMARK  Name = 
REMARK  3 active torsions:
REMARK  status: ('A' for Active; 'I' for Inactive)
REMARK    1  A    between atoms: C_2  and  C_3
REMARK    2  A    between atoms: C_5  and  O_6
REMARK    3  A    between atoms: C_20  and  C_22
REMARK                            x       y       z     vdW  Elec       q    Type
REMARK                         _______ _______ _______ _____ _____    ______ ____
ROOT
ATOM      1  O   UNL     1      -1.597  14.782  20.231  0.00  0.00    +0.000 OA
ATOM      2  C   UNL     1      -1.802  13.576  20.391  0.00  0.00    +0.000 C 
ATOM      3  N   UNL     1      -0.755  12.668  20.297  0.00  0.00    +0.000 N 
ATOM      4  C   UNL     1       0.601  13.180  20.076  0.00  0.00    +0.000 C 
ATOM      5  C   UNL     1       1.533  11.972  20.174  0.00  0.00    +0.000 C 
ATOM      6  C   UNL     1       0.615  10.821  19.765  0.00  0.00    +0.000 C 
ATOM      7  C   UNL     1      -0.714  11.210  20.441  0.00  0.00    +0.000 C 
ATOM      8  C   UNL     1      -0.798  10.799  21.915  0.00  0.00    +0.000 C 
ATOM      9  C   UNL     1      -0.338   9.366  22.121  0.00  0.00    +0.000 C 
ATOM     10  C   UNL     1       1.037   9.105  21.516  0.00  0.00    +0.000 C 
ATOM     11  N   UNL     1       1.091   9.483  20.101  0.00  0.00    +0.000 N 
ATOM     12  C   UNL     1       1.555   8.652  19.053  0.00  0.00    +0.000 C 
ATOM     13  O   UNL     1       1.380   8.979  17.879  0.00  0.00    +0.000 OA
ENDROOT
BRANCH  12  14
ATOM     14  C   UNL     1       2.223   7.372  19.378  0.00  0.00    +0.000 A 
ATOM     15  N   UNL     1       1.921   6.654  20.478  0.00  0.00    +0.000 NA
ATOM     16  N   UNL     1       2.670   5.549  20.373  0.00  0.00    +0.000 N 
ATOM     17  C   UNL     1       3.518   5.544  19.305  0.00  0.00    +0.000 A 
ATOM     18  C   UNL     1       4.446   4.595  18.874  0.00  0.00    +0.000 A 
ATOM     19  C   UNL     1       5.193   4.907  17.737  0.00  0.00    +0.000 A 
ATOM     20  C   UNL     1       5.007   6.114  17.064  0.00  0.00    +0.000 A 
ATOM     21  C   UNL     1       4.050   7.041  17.502  0.00  0.00    +0.000 A 
ATOM     22  C   UNL     1       3.286   6.747  18.647  0.00  0.00    +0.000 A 
ATOM     23  H   UNL     1       2.560   4.826  21.076  0.00  0.00    +0.000 HD
ENDBRANCH  12  14
BRANCH   2  24
ATOM     24  C   UNL     1      -3.197  13.174  20.751  0.00  0.00    +0.000 A 
ATOM     25  C   UNL     1      -4.158  12.732  19.838  0.00  0.00    +0.000 A 
ATOM     26  C   UNL     1      -5.403  12.291  20.283  0.00  0.00    +0.000 A 
ATOM     27  C   UNL     1      -5.754  12.373  21.621  0.00  0.00    +0.000 A 
ATOM     28  C   UNL     1      -4.842  12.904  22.525  0.00  0.00    +0.000 A 
ATOM     29 CL   UNL     1      -5.289  13.085  24.176  0.00  0.00    +0.000 Cl
ATOM     30  C   UNL     1      -3.568  13.292  22.102  0.00  0.00    +0.000 A 
BRANCH  26  31
ATOM     31  O   UNL     1      -6.317  11.773  19.413  0.00  0.00    +0.000 OA
ATOM     32  H   UNL     1      -7.079  12.373  19.345  0.00  0.00    +0.000 HD
ENDBRANCH  26  31
ENDBRANCH   2  24
TORSDOF 3
ENDMDL
MODEL 3
REMARK VINA RESULT:      -7.9      3.422      5.062
REMARK  Name = 
REMARK  3 active torsions:
REMARK  status: ('A' for Active; 'I' for Inactive)
REMARK    1  A    between atoms: C_2  and  C_3
REMARK    2  A    between atoms: C_5  and  O_6
REMARK    3  A    between atoms: C_20  and  C_22
REMARK                            x       y       z     vdW  Elec       q    Type
REMARK                         _______ _______ _______ _____ _____    ______ ____
ROOT
ATOM      1  O   UNL     1      -1.303  14.129  20.366  0.00  0.00    +0.000 OA
ATOM      2  C   UNL     1      -0.194  13.625  20.170  0.00  0.00    +0.000 C 
ATOM      3  N   UNL     1      -0.076  12.263  19.922  0.00  0.00    +0.000 N 
ATOM      4  C   UNL     1      -1.298  11.459  19.827  0.00  0.00    +0.000 C 
ATOM      5  C   UNL     1      -0.854  10.060  19.400  0.00  0.00    +0.000 C 
ATOM      6  C   UNL     1       0.574   9.995  19.940  0.00  0.00    +0.000 C 
ATOM      7  C   UNL     1       1.092  11.418  19.660  0.00  0.00    +0.000 C 
ATOM      8  C   UNL     1       1.605  11.615  18.229  0.00  0.00    +0.000 C 
ATOM      9  C   UNL     1       2.515  10.477  17.801  0.00  0.00    +0.000 C 
ATOM     10  C   UNL     1       1.873   9.110  18.012  0.00  0.00    +0.000 C 
ATOM     11  N   UNL     1       1.409   8.931  19.390  0.00  0.00    +0.000 N 
ATOM     12  C   UNL     1       1.718   7.824  20.216  0.00  0.00    +0.000 C 
ATOM     13  O   UNL     1       1.451   7.853  21.418  0.00  0.00    +0.000 OA
ENDROOT
BRANCH  12  14
ATOM     14  C   UNL     1       2.393   6.644  19.632  0.00  0.00    +0.000 A 
ATOM     15  N   UNL     1       3.432   6.750  18.779  0.00  0.00    +0.000 NA
ATOM     16  N   UNL     1       3.804   5.486  18.545  0.00  0.00    +0.000 N 
ATOM     17  C   UNL     1       3.006   4.547  19.131  0.00  0.00    +0.000 A 
ATOM     18  C   UNL     1       3.061   3.152  19.110  0.00  0.00    +0.000 A 
ATOM     19  C   UNL     1       2.060   2.466  19.801  0.00  0.00    +0.000 A 
ATOM     20  C   UNL     1       1.059   3.154  20.484  0.00  0.00    +0.000 A 
ATOM     21  C   UNL     1       1.039   4.556  20.512  0.00  0.00    +0.000 A 
ATOM     22  C   UNL     1       2.038   5.268  19.821  0.00  0.00    +0.000 A 
ATOM     23  H   UNL     1       4.619   5.324  17.965  0.00  0.00    +0.000 HD
ENDBRANCH  12  14
BRANCH   2  24
ATOM     24  C   UNL     1       0.974  14.559  20.150  0.00  0.00    +0.000 A 
ATOM     25  C   UNL     1       1.791  14.835  21.249  0.00  0.00    +0.000 A 
ATOM     26  C   UNL     1       2.913  15.649  21.107  0.00  0.00    +0.000 A 
ATOM     27  C   UNL     1       3.190  16.282  19.906  0.00  0.00    +0.000 A 
ATOM     28  C   UNL     1       2.327  16.095  18.833  0.00  0.00    +0.000 A 
ATOM     29 CL   UNL     1       2.611  16.934  17.358  0.00  0.00    +0.000 Cl
ATOM     30  C   UNL     1       1.234  15.232  18.943  0.00  0.00    +0.000 A 
BRANCH  26  31
ATOM     31  O   UNL     1       3.770  15.854  22.149  0.00  0.00    +0.000 OA
ATOM     32  H   UNL     1       4.687  15.836  21.826  0.00  0.00    +0.000 HD
ENDBRANCH  26  31
ENDBRANCH   2  24
TORSDOF 3
ENDMDL
MODEL 4
REMARK VINA RESULT:      -7.8      3.521      5.296
REMARK  Name = 
REMARK  3 active torsions:
REMARK  status: ('A' for Active; 'I' for Inactive)
REMARK    1  A    between atoms: C_2  and  C_3
REMARK    2  A    between atoms: C_5  and  O_6
REMARK    3  A    between atoms: C_20  and  C_22
REMARK                            x       y       z     vdW  Elec       q    Type
REMARK                         _______ _______ _______ _____ _____    ______ ____
ROOT
ATOM      1  O   UNL     1      -1.177  14.154  20.420  0.00  0.00    +0.000 OA
ATOM      2  C   UNL     1      -0.076  13.635  20.216  0.00  0.00    +0.000 C 
ATOM      3  N   UNL     1       0.020  12.274  19.949  0.00  0.00    +0.000 N 
ATOM      4  C   UNL     1      -1.214  11.491  19.846  0.00  0.00    +0.000 C 
ATOM      5  C   UNL     1      -0.792  10.091  19.399  0.00  0.00    +0.000 C 
ATOM      6  C   UNL     1       0.635   9.996  19.936  0.00  0.00    +0.000 C 
ATOM      7  C   UNL     1       1.175  11.415  19.674  0.00  0.00    +0.000 C 
ATOM      8  C   UNL     1       1.689  11.624  18.245  0.00  0.00    +0.000 C 
ATOM      9  C   UNL     1       2.581  10.478  17.801  0.00  0.00    +0.000 C 
ATOM     10  C   UNL     1       1.918   9.118  17.994  0.00  0.00    +0.000 C 
ATOM     11  N   UNL     1       1.453   8.928  19.370  0.00  0.00    +0.000 N 
ATOM     12  C   UNL     1       1.746   7.805  20.180  0.00  0.00    +0.000 C 
ATOM     13  O   UNL     1       1.481   7.822  21.383  0.00  0.00    +0.000 OA
ENDROOT
BRANCH  12  14
ATOM     14  C   UNL     1       2.403   6.623  19.580  0.00  0.00    +0.000 A 
ATOM     15  N   UNL     1       3.417   6.725  18.697  0.00  0.00    +0.000 NA
ATOM     16  N   UNL     1       3.779   5.460  18.455  0.00  0.00    +0.000 N 
ATOM     17  C   UNL     1       2.997   4.524  19.065  0.00  0.00    +0.000 A 
ATOM     18  C   UNL     1       3.048   3.129  19.045  0.00  0.00    +0.000 A 
ATOM     19  C   UNL     1       2.067   2.446  19.765  0.00  0.00    +0.000 A 
ATOM     20  C   UNL     1       1.087   3.137  20.476  0.00  0.00    +0.000 A 
ATOM     21  C   UNL     1       1.070   4.539  20.502  0.00  0.00    +0.000 A 
ATOM     22  C   UNL     1       2.050   5.248  19.782  0.00  0.00    +0.000 A 
ATOM     23  H   UNL     1       4.578   5.296  17.852  0.00  0.00    +0.000 HD
ENDBRANCH  12  14
BRANCH   2  24
ATOM     24  C   UNL     1       1.106  14.551  20.206  0.00  0.00    +0.000 A 
ATOM     25  C   UNL     1       1.461  15.379  19.138  0.00  0.00    +0.000 A 
ATOM     26  C   UNL     1       2.529  16.267  19.259  0.00  0.00    +0.000 A 
ATOM     27  C   UNL     1       3.323  16.280  20.395  0.00  0.00    +0.000 A 
ATOM     28  C   UNL     1       3.040  15.389  21.424  0.00  0.00    +0.000 A 
ATOM     29 CL   UNL     1       4.061  15.338  22.807  0.00  0.00    +0.000 Cl
ATOM     30  C   UNL     1       1.936  14.538  21.341  0.00  0.00    +0.000 A 
BRANCH  26  31
ATOM     31  O   UNL     1       2.830  17.145  18.259  0.00  0.00    +0.000 OA
ATOM     32  H   UNL     1       3.726  16.966  17.927  0.00  0.00    +0.000 HD
ENDBRANCH  26  31
ENDBRANCH   2  24
TORSDOF 3
ENDMDL
MODEL 5
REMARK VINA RESULT:      -7.8      1.414      1.608
REMARK  Name = 
REMARK  3 active torsions:
REMARK  status: ('A' for Active; 'I' for Inactive)
REMARK    1  A    between atoms: C_2  and  C_3
REMARK    2  A    between atoms: C_5  and  O_6
REMARK    3  A    between atoms: C_20  and  C_22
REMARK                            x       y       z     vdW  Elec       q    Type
REMARK                         _______ _______ _______ _____ _____    ______ ____
ROOT
ATOM      1  O   UNL     1      -1.323  15.516  20.469  0.00  0.00    +0.000 OA
ATOM      2  C   UNL     1      -1.589  14.341  20.734  0.00  0.00    +0.000 C 
ATOM      3  N   UNL     1      -0.630  13.349  20.568  0.00  0.00    +0.000 N 
ATOM      4  C   UNL     1       0.717  13.740  20.142  0.00  0.00    +0.000 C 
ATOM      5  C   UNL     1       1.567  12.471  20.201  0.00  0.00    +0.000 C 
ATOM      6  C   UNL     1       0.524  11.374  19.991  0.00  0.00    +0.000 C 
ATOM      7  C   UNL     1      -0.672  11.904  20.803  0.00  0.00    +0.000 C 
ATOM      8  C   UNL     1      -0.589  11.586  22.300  0.00  0.00    +0.000 C 
ATOM      9  C   UNL     1      -0.208  10.135  22.542  0.00  0.00    +0.000 C 
ATOM     10  C   UNL     1       1.053   9.733  21.785  0.00  0.00    +0.000 C 
ATOM     11  N   UNL     1       0.946  10.024  20.353  0.00  0.00    +0.000 N 
ATOM     12  C   UNL     1       1.208   9.100  19.313  0.00  0.00    +0.000 C 
ATOM     13  O   UNL     1       0.902   9.371  18.151  0.00  0.00    +0.000 OA
ENDROOT
BRANCH  12  14
ATOM     14  C   UNL     1       1.821   7.793  19.635  0.00  0.00    +0.000 A 
ATOM     15  N   UNL     1       1.519   7.105  20.754  0.00  0.00    +0.000 NA
ATOM     16  N   UNL     1       2.208   5.963  20.642  0.00  0.00    +0.000 N 
ATOM     17  C   UNL     1       3.020   5.901  19.548  0.00  0.00    +0.000 A 
ATOM     18  C   UNL     1       3.887   4.901  19.102  0.00  0.00    +0.000 A 
ATOM     19  C   UNL     1       4.612   5.161  17.938  0.00  0.00    +0.000 A 
ATOM     20  C   UNL     1       4.464   6.367  17.254  0.00  0.00    +0.000 A 
ATOM     21  C   UNL     1       3.569   7.347  17.708  0.00  0.00    +0.000 A 
ATOM     22  C   UNL     1       2.828   7.106  18.880  0.00  0.00    +0.000 A 
ATOM     23  H   UNL     1       2.085   5.255  21.358  0.00  0.00    +0.000 HD
ENDBRANCH  12  14
BRANCH   2  24
ATOM     24  C   UNL     1      -2.948  14.071  21.296  0.00  0.00    +0.000 A 
ATOM     25  C   UNL     1      -3.824  13.090  20.823  0.00  0.00    +0.000 A 
ATOM     26  C   UNL     1      -5.034  12.852  21.472  0.00  0.00    +0.000 A 
ATOM     27  C   UNL     1      -5.443  13.642  22.534  0.00  0.00    +0.000 A 
ATOM     28  C   UNL     1      -4.625  14.686  22.950  0.00  0.00    +0.000 A 
ATOM     29 CL   UNL     1      -5.151  15.725  24.216  0.00  0.00    +0.000 Cl
ATOM     30  C   UNL     1      -3.382  14.896  22.348  0.00  0.00    +0.000 A 
BRANCH  26  31
ATOM     31  O   UNL     1      -5.857  11.838  21.077  0.00  0.00    +0.000 OA
ATOM     32  H   UNL     1      -5.596  11.533  20.192  0.00  0.00    +0.000 HD
ENDBRANCH  26  31
ENDBRANCH   2  24
TORSDOF 3
ENDMDL
MODEL 6
REMARK VINA RESULT:      -7.6      6.105      7.321
REMARK  Name = 
REMARK  3 active torsions:
REMARK  status: ('A' for Active; 'I' for Inactive)
REMARK    1  A    between atoms: C_2  and  C_3
REMARK    2  A    between atoms: C_5  and  O_6
REMARK    3  A    between atoms: C_20  and  C_22
REMARK                            x       y       z     vdW  Elec       q    Type
REMARK                         _______ _______ _______ _____ _____    ______ ____
ROOT
ATOM      1  O   UNL     1       0.153  15.695  18.936  0.00  0.00    +0.000 OA
ATOM      2  C   UNL     1       1.010  14.902  19.336  0.00  0.00    +0.000 C 
ATOM      3  N   UNL     1       2.355  15.253  19.316  0.00  0.00    +0.000 N 
ATOM      4  C   UNL     1       2.721  16.603  18.878  0.00  0.00    +0.000 C 
ATOM      5  C   UNL     1       4.226  16.733  19.113  0.00  0.00    +0.000 C 
ATOM      6  C   UNL     1       4.694  15.282  19.013  0.00  0.00    +0.000 C 
ATOM      7  C   UNL     1       3.558  14.524  19.725  0.00  0.00    +0.000 C 
ATOM      8  C   UNL     1       3.696  14.500  21.251  0.00  0.00    +0.000 C 
ATOM      9  C   UNL     1       5.109  14.139  21.677  0.00  0.00    +0.000 C 
ATOM     10  C   UNL     1       6.160  15.017  21.006  0.00  0.00    +0.000 C 
ATOM     11  N   UNL     1       6.025  15.010  19.547  0.00  0.00    +0.000 N 
ATOM     12  C   UNL     1       7.076  14.751  18.634  0.00  0.00    +0.000 C 
ATOM     13  O   UNL     1       6.830  14.571  17.441  0.00  0.00    +0.000 OA
ENDROOT
BRANCH  12  14
ATOM     14  C   UNL     1       8.468  14.666  19.128  0.00  0.00    +0.000 A 
ATOM     15  N   UNL     1       9.136  15.735  19.606  0.00  0.00    +0.000 NA
ATOM     16  N   UNL     1      10.310  15.241  20.016  0.00  0.00    +0.000 N 
ATOM     17  C   UNL     1      10.485  13.914  19.752  0.00  0.00    +0.000 A 
ATOM     18  C   UNL     1      11.559  13.060  20.010  0.00  0.00    +0.000 A 
ATOM     19  C   UNL     1      11.436  11.737  19.580  0.00  0.00    +0.000 A 
ATOM     20  C   UNL     1      10.285  11.298  18.928  0.00  0.00    +0.000 A 
ATOM     21  C   UNL     1       9.209  12.168  18.703  0.00  0.00    +0.000 A 
ATOM     22  C   UNL     1       9.311  13.506  19.127  0.00  0.00    +0.000 A 
ATOM     23  H   UNL     1      10.962  15.869  20.472  0.00  0.00    +0.000 HD
ENDBRANCH  12  14
BRANCH   2  24
ATOM     24  C   UNL     1       0.517  13.605  19.893  0.00  0.00    +0.000 A 
ATOM     25  C   UNL     1       0.306  13.352  21.252  0.00  0.00    +0.000 A 
ATOM     26  C   UNL     1      -0.244  12.140  21.665  0.00  0.00    +0.000 A 
ATOM     27  C   UNL     1      -0.500  11.124  20.759  0.00  0.00    +0.000 A 
ATOM     28  C   UNL     1      -0.199  11.328  19.417  0.00  0.00    +0.000 A 
ATOM     29 CL   UNL     1      -0.438  10.051  18.289  0.00  0.00    +0.000 Cl
ATOM     30  C   UNL     1       0.294  12.560  18.980  0.00  0.00    +0.000 A 
BRANCH  26  31
ATOM     31  O   UNL     1      -0.540  11.914  22.978  0.00  0.00    +0.000 OA
ATOM     32  H   UNL     1      -1.198  11.201  23.046  0.00  0.00    +0.000 HD
ENDBRANCH  26  31
ENDBRANCH   2  24
TORSDOF 3
ENDMDL
MODEL 7
REMARK VINA RESULT:      -7.6      2.544      3.334
REMARK  Name = 
REMARK  3 active torsions:
REMARK  status: ('A' for Active; 'I' for Inactive)
REMARK    1  A    between atoms: C_2  and  C_3
REMARK    2  A    between atoms: C_5  and  O_6
REMARK    3  A    between atoms: C_20  and  C_22
REMARK                            x       y       z     vdW  Elec       q    Type
REMARK                         _______ _______ _______ _____ _____    ______ ____
ROOT
ATOM      1  O   UNL     1      -0.598  13.709  18.222  0.00  0.00    +0.000 OA
ATOM      2  C   UNL     1      -0.879  12.539  18.493  0.00  0.00    +0.000 C 
ATOM      3  N   UNL     1       0.128  11.598  18.670  0.00  0.00    +0.000 N 
ATOM      4  C   UNL     1       1.523  12.041  18.598  0.00  0.00    +0.000 C 
ATOM      5  C   UNL     1       2.374  10.831  18.982  0.00  0.00    +0.000 C 
ATOM      6  C   UNL     1       1.475   9.663  18.580  0.00  0.00    +0.000 C 
ATOM      7  C   UNL     1       0.080  10.170  18.993  0.00  0.00    +0.000 C 
ATOM      8  C   UNL     1      -0.239   9.950  20.476  0.00  0.00    +0.000 C 
ATOM      9  C   UNL     1       0.119   8.543  20.921  0.00  0.00    +0.000 C 
ATOM     10  C   UNL     1       1.555   8.170  20.568  0.00  0.00    +0.000 C 
ATOM     11  N   UNL     1       1.835   8.365  19.143  0.00  0.00    +0.000 N 
ATOM     12  C   UNL     1       2.410   7.396  18.287  0.00  0.00    +0.000 C 
ATOM     13  O   UNL     1       2.425   7.576  17.068  0.00  0.00    +0.000 OA
ENDROOT
BRANCH  12  14
ATOM     14  C   UNL     1       2.963   6.150  18.862  0.00  0.00    +0.000 A 
ATOM     15  N   UNL     1       4.166   6.102  19.467  0.00  0.00    +0.000 NA
ATOM     16  N   UNL     1       4.268   4.843  19.912  0.00  0.00    +0.000 N 
ATOM     17  C   UNL     1       3.230   4.034  19.552  0.00  0.00    +0.000 A 
ATOM     18  C   UNL     1       2.986   2.684  19.808  0.00  0.00    +0.000 A 
ATOM     19  C   UNL     1       1.824   2.134  19.264  0.00  0.00    +0.000 A 
ATOM     20  C   UNL     1       0.949   2.910  18.506  0.00  0.00    +0.000 A 
ATOM     21  C   UNL     1       1.202   4.271  18.283  0.00  0.00    +0.000 A 
ATOM     22  C   UNL     1       2.369   4.846  18.821  0.00  0.00    +0.000 A 
ATOM     23  H   UNL     1       5.083   4.591  20.459  0.00  0.00    +0.000 HD
ENDBRANCH  12  14
BRANCH   2  24
ATOM     24  C   UNL     1      -2.329  12.224  18.683  0.00  0.00    +0.000 A 
ATOM     25  C   UNL     1      -3.156  11.666  17.704  0.00  0.00    +0.000 A 
ATOM     26  C   UNL     1      -4.473  11.323  18.006  0.00  0.00    +0.000 A 
ATOM     27  C   UNL     1      -5.022  11.613  19.244  0.00  0.00    +0.000 A 
ATOM     28  C   UNL     1      -4.238  12.259  20.193  0.00  0.00    +0.000 A 
ATOM     29 CL   UNL     1      -4.925  12.698  21.707  0.00  0.00    +0.000 Cl
ATOM     30  C   UNL     1      -2.899  12.554  19.925  0.00  0.00    +0.000 A 
BRANCH  26  31
ATOM     31  O   UNL     1      -5.263  10.695  17.088  0.00  0.00    +0.000 OA
ATOM     32  H   UNL     1      -5.159  11.123  16.222  0.00  0.00    +0.000 HD
ENDBRANCH  26  31
ENDBRANCH   2  24
TORSDOF 3
ENDMDL
MODEL 8
REMARK VINA RESULT:      -7.6      1.042      1.174
REMARK  Name = 
REMARK  3 active torsions:
REMARK  status: ('A' for Active; 'I' for Inactive)
REMARK    1  A    between atoms: C_2  and  C_3
REMARK    2  A    between atoms: C_5  and  O_6
REMARK    3  A    between atoms: C_20  and  C_22
REMARK                            x       y       z     vdW  Elec       q    Type
REMARK                         _______ _______ _______ _____ _____    ______ ____
ROOT
ATOM      1  O   UNL     1      -2.532  15.811  21.140  0.00  0.00    +0.000 OA
ATOM      2  C   UNL     1      -2.708  14.599  21.292  0.00  0.00    +0.000 C 
ATOM      3  N   UNL     1      -1.654  13.710  21.121  0.00  0.00    +0.000 N 
ATOM      4  C   UNL     1      -0.322  14.248  20.829  0.00  0.00    +0.000 C 
ATOM      5  C   UNL     1       0.634  13.055  20.852  0.00  0.00    +0.000 C 
ATOM      6  C   UNL     1      -0.289  11.895  20.478  0.00  0.00    +0.000 C 
ATOM      7  C   UNL     1      -1.581  12.251  21.237  0.00  0.00    +0.000 C 
ATOM      8  C   UNL     1      -1.571  11.815  22.707  0.00  0.00    +0.000 C 
ATOM      9  C   UNL     1      -1.077  10.387  22.862  0.00  0.00    +0.000 C 
ATOM     10  C   UNL     1       0.264  10.159  22.172  0.00  0.00    +0.000 C 
ATOM     11  N   UNL     1       0.228  10.560  20.763  0.00  0.00    +0.000 N 
ATOM     12  C   UNL     1       0.643   9.754  19.676  0.00  0.00    +0.000 C 
ATOM     13  O   UNL     1       0.393  10.096  18.520  0.00  0.00    +0.000 OA
ENDROOT
BRANCH  12  14
ATOM     14  C   UNL     1       1.349   8.481  19.940  0.00  0.00    +0.000 A 
ATOM     15  N   UNL     1       1.218   7.803  21.098  0.00  0.00    +0.000 NA
ATOM     16  N   UNL     1       1.938   6.690  20.918  0.00  0.00    +0.000 N 
ATOM     17  C   UNL     1       2.612   6.640  19.733  0.00  0.00    +0.000 A 
ATOM     18  C   UNL     1       3.461   5.670  19.199  0.00  0.00    +0.000 A 
ATOM     19  C   UNL     1       4.026   5.937  17.950  0.00  0.00    +0.000 A 
ATOM     20  C   UNL     1       3.741   7.121  17.272  0.00  0.00    +0.000 A 
ATOM     21  C   UNL     1       2.865   8.071  17.818  0.00  0.00    +0.000 A 
ATOM     22  C   UNL     1       2.285   7.822  19.076  0.00  0.00    +0.000 A 
ATOM     23  H   UNL     1       1.936   5.992  21.654  0.00  0.00    +0.000 HD
ENDBRANCH  12  14
BRANCH   2  24
ATOM     24  C   UNL     1      -4.072  14.167  21.727  0.00  0.00    +0.000 A 
ATOM     25  C   UNL     1      -4.435  13.890  23.047  0.00  0.00    +0.000 A 
ATOM     26  C   UNL     1      -5.757  13.584  23.366  0.00  0.00    +0.000 A 
ATOM     27  C   UNL     1      -6.718  13.449  22.377  0.00  0.00    +0.000 A 
ATOM     28  C   UNL     1      -6.346  13.624  21.049  0.00  0.00    +0.000 A 
ATOM     29 CL   UNL     1      -7.508  13.384  19.803  0.00  0.00    +0.000 Cl
ATOM     30  C   UNL     1      -5.039  13.992  20.721  0.00  0.00    +0.000 A 
BRANCH  26  31
ATOM     31  O   UNL     1      -6.144  13.401  24.661  0.00  0.00    +0.000 OA
ATOM     32  H   UNL     1      -7.113  13.441  24.721  0.00  0.00    +0.000 HD
ENDBRANCH  26  31
ENDBRANCH   2  24
TORSDOF 3
ENDMDL
MODEL 9
REMARK VINA RESULT:      -7.5      1.406      1.621
REMARK  Name = 
REMARK  3 active torsions:
REMARK  status: ('A' for Active; 'I' for Inactive)
REMARK    1  A    between atoms: C_2  and  C_3
REMARK    2  A    between atoms: C_5  and  O_6
REMARK    3  A    between atoms: C_20  and  C_22
REMARK                            x       y       z     vdW  Elec       q    Type
REMARK                         _______ _______ _______ _____ _____    ______ ____
ROOT
ATOM      1  O   UNL     1      -1.932  15.541  20.648  0.00  0.00    +0.000 OA
ATOM      2  C   UNL     1      -2.118  14.345  20.885  0.00  0.00    +0.000 C 
ATOM      3  N   UNL     1      -1.098  13.422  20.686  0.00  0.00    +0.000 N 
ATOM      4  C   UNL     1       0.216  13.911  20.258  0.00  0.00    +0.000 C 
ATOM      5  C   UNL     1       1.147  12.698  20.277  0.00  0.00    +0.000 C 
ATOM      6  C   UNL     1       0.176  11.541  20.048  0.00  0.00    +0.000 C 
ATOM      7  C   UNL     1      -1.044  11.972  20.884  0.00  0.00    +0.000 C 
ATOM      8  C   UNL     1      -0.925  11.623  22.371  0.00  0.00    +0.000 C 
ATOM      9  C   UNL     1      -0.448  10.194  22.573  0.00  0.00    +0.000 C 
ATOM     10  C   UNL     1       0.829   9.894  21.795  0.00  0.00    +0.000 C 
ATOM     11  N   UNL     1       0.688  10.213  20.371  0.00  0.00    +0.000 N 
ATOM     12  C   UNL     1       0.999   9.335  19.306  0.00  0.00    +0.000 C 
ATOM     13  O   UNL     1       0.664   9.614  18.154  0.00  0.00    +0.000 OA
ENDROOT
BRANCH  12  14
ATOM     14  C   UNL     1       1.700   8.063  19.589  0.00  0.00    +0.000 A 
ATOM     15  N   UNL     1       1.486   7.351  20.713  0.00  0.00    +0.000 NA
ATOM     16  N   UNL     1       2.234   6.251  20.561  0.00  0.00    +0.000 N 
ATOM     17  C   UNL     1       3.000   6.244  19.432  0.00  0.00    +0.000 A 
ATOM     18  C   UNL     1       3.902   5.299  18.941  0.00  0.00    +0.000 A 
ATOM     19  C   UNL     1       4.560   5.609  17.749  0.00  0.00    +0.000 A 
ATOM     20  C   UNL     1       4.315   6.809  17.084  0.00  0.00    +0.000 A 
ATOM     21  C   UNL     1       3.385   7.732  17.585  0.00  0.00    +0.000 A 
ATOM     22  C   UNL     1       2.711   7.440  18.785  0.00  0.00    +0.000 A 
ATOM     23  H   UNL     1       2.182   5.532  21.274  0.00  0.00    +0.000 HD
ENDBRANCH  12  14
BRANCH   2  24
ATOM     24  C   UNL     1      -3.451  13.972  21.452  0.00  0.00    +0.000 A 
ATOM     25  C   UNL     1      -4.674  14.173  20.805  0.00  0.00    +0.000 A 
ATOM     26  C   UNL     1      -5.858  13.708  21.376  0.00  0.00    +0.000 A 
ATOM     27  C   UNL     1      -5.865  13.127  22.633  0.00  0.00    +0.000 A 
ATOM     28  C   UNL     1      -4.668  13.013  23.329  0.00  0.00    +0.000 A 
ATOM     29 CL   UNL     1      -4.669  12.367  24.923  0.00  0.00    +0.000 Cl
ATOM     30  C   UNL     1      -3.466  13.419  22.744  0.00  0.00    +0.000 A 
BRANCH  26  31
ATOM     31  O   UNL     1      -7.046  13.816  20.715  0.00  0.00    +0.000 OA
ATOM     32  H   UNL     1      -7.046  13.223  19.945  0.00  0.00    +0.000 HD
ENDBRANCH  26  31
ENDBRANCH   2  24
TORSDOF 3
ENDMDL
