MODEL 1
REMARK VINA RESULT:      -8.6      0.000      0.000
REMARK  Name = 
REMARK  5 active torsions:
REMARK  status: ('A' for Active; 'I' for Inactive)
REMARK    1  A    between atoms: C_2  and  C_14
REMARK    2  A    between atoms: N_3  and  C_4
REMARK    3  A    between atoms: C_18  and  O_19
REMARK    4  A    between atoms: O_19  and  C_20
REMARK    5  A    between atoms: C_20  and  C_21
REMARK                            x       y       z     vdW  Elec       q    Type
REMARK                         _______ _______ _______ _____ _____    ______ ____
ROOT
ATOM      1  O   UNL     1       1.783   8.344  17.659  0.00  0.00    +0.000 OA
ATOM      2  C   UNL     1       1.890   8.112  18.856  0.00  0.00    +0.000 C 
ATOM      3  N   UNL     1       2.486   7.013  19.457  0.00  0.00    +0.000 N 
ATOM      4  H   UNL     1       2.295   6.854  20.442  0.00  0.00    +0.000 HD
ENDROOT
BRANCH   3   5
ATOM      5  C   UNL     1       3.075   5.930  18.729  0.00  0.00    +0.000 A 
ATOM      6  C   UNL     1       4.210   6.170  17.939  0.00  0.00    +0.000 A 
ATOM      7  C   UNL     1       4.760   5.180  17.143  0.00  0.00    +0.000 A 
ATOM      8  C   UNL     1       4.197   3.913  17.144  0.00  0.00    +0.000 A 
ATOM      9  C   UNL     1       3.088   3.621  17.949  0.00  0.00    +0.000 A 
ATOM     10  C   UNL     1       2.541   2.330  17.910  0.00  0.00    +0.000 A 
ATOM     11  C   UNL     1       1.430   1.998  18.679  0.00  0.00    +0.000 A 
ATOM     12  C   UNL     1       0.854   2.955  19.503  0.00  0.00    +0.000 A 
ATOM     13  C   UNL     1       1.386   4.249  19.552  0.00  0.00    +0.000 A 
ATOM     14  C   UNL     1       2.512   4.626  18.777  0.00  0.00    +0.000 A 
ENDBRANCH   3   5
BRANCH   2  15
ATOM     15  C   UNL     1       1.250   9.082  19.761  0.00  0.00    +0.000 A 
ATOM     16  C   UNL     1       1.227   8.796  21.126  0.00  0.00    +0.000 A 
ATOM     17  C   UNL     1       0.584   9.656  22.011  0.00  0.00    +0.000 A 
ATOM     18  C   UNL     1      -0.057  10.803  21.522  0.00  0.00    +0.000 A 
ATOM     19  C   UNL     1      -0.066  11.070  20.152  0.00  0.00    +0.000 A 
ATOM     20  C   UNL     1       0.602  10.212  19.271  0.00  0.00    +0.000 A 
BRANCH  19  21
ATOM     21  O   UNL     1      -0.744  12.179  19.709  0.00  0.00    +0.000 OA
BRANCH  21  22
ATOM     22  C   UNL     1      -2.166  12.092  19.876  0.00  0.00    +0.000 C 
BRANCH  22  23
ATOM     23  C   UNL     1      -2.812  11.718  18.583  0.00  0.00    +0.000 A 
ATOM     24  C   UNL     1      -2.045  11.473  17.438  0.00  0.00    +0.000 A 
ATOM     25  C   UNL     1      -2.685  11.133  16.250  0.00  0.00    +0.000 A 
ATOM     26  C   UNL     1      -4.064  11.061  16.254  0.00  0.00    +0.000 A 
ATOM     27  N   UNL     1      -4.838  11.309  17.333  0.00  0.00    +0.000 NA
ATOM     28  C   UNL     1      -4.191  11.628  18.476  0.00  0.00    +0.000 A 
ENDBRANCH  22  23
ENDBRANCH  21  22
ENDBRANCH  19  21
ENDBRANCH   2  15
TORSDOF 5
ENDMDL
MODEL 2
REMARK VINA RESULT:      -8.6      0.959      1.119
REMARK  Name = 
REMARK  5 active torsions:
REMARK  status: ('A' for Active; 'I' for Inactive)
REMARK    1  A    between atoms: C_2  and  C_14
REMARK    2  A    between atoms: N_3  and  C_4
REMARK    3  A    between atoms: C_18  and  O_19
REMARK    4  A    between atoms: O_19  and  C_20
REMARK    5  A    between atoms: C_20  and  C_21
REMARK                            x       y       z     vdW  Elec       q    Type
REMARK                         _______ _______ _______ _____ _____    ______ ____
ROOT
ATOM      1  O   UNL     1       1.479   8.881  18.572  0.00  0.00    +0.000 OA
ATOM      2  C   UNL     1       1.515   8.417  19.704  0.00  0.00    +0.000 C 
ATOM      3  N   UNL     1       2.061   7.207  20.107  0.00  0.00    +0.000 N 
ATOM      4  H   UNL     1       1.812   6.864  21.030  0.00  0.00    +0.000 HD
ENDROOT
BRANCH   3   5
ATOM      5  C   UNL     1       2.676   6.274  19.212  0.00  0.00    +0.000 A 
ATOM      6  C   UNL     1       3.704   6.711  18.362  0.00  0.00    +0.000 A 
ATOM      7  C   UNL     1       4.265   5.873  17.414  0.00  0.00    +0.000 A 
ATOM      8  C   UNL     1       3.824   4.562  17.317  0.00  0.00    +0.000 A 
ATOM      9  C   UNL     1       2.828   4.075  18.173  0.00  0.00    +0.000 A 
ATOM     10  C   UNL     1       2.401   2.745  18.033  0.00  0.00    +0.000 A 
ATOM     11  C   UNL     1       1.404   2.222  18.849  0.00  0.00    +0.000 A 
ATOM     12  C   UNL     1       0.824   3.022  19.823  0.00  0.00    +0.000 A 
ATOM     13  C   UNL     1       1.235   4.351  19.976  0.00  0.00    +0.000 A 
ATOM     14  C   UNL     1       2.243   4.921  19.157  0.00  0.00    +0.000 A 
ENDBRANCH   3   5
BRANCH   2  15
ATOM     15  C   UNL     1       0.837   9.206  20.747  0.00  0.00    +0.000 A 
ATOM     16  C   UNL     1       0.960   8.790  22.072  0.00  0.00    +0.000 A 
ATOM     17  C   UNL     1       0.291   9.473  23.084  0.00  0.00    +0.000 A 
ATOM     18  C   UNL     1      -0.521  10.570  22.763  0.00  0.00    +0.000 A 
ATOM     19  C   UNL     1      -0.672  10.963  21.432  0.00  0.00    +0.000 A 
ATOM     20  C   UNL     1       0.021  10.285  20.423  0.00  0.00    +0.000 A 
BRANCH  19  21
ATOM     21  O   UNL     1      -1.512  12.014  21.155  0.00  0.00    +0.000 OA
BRANCH  21  22
ATOM     22  C   UNL     1      -1.499  12.416  19.778  0.00  0.00    +0.000 C 
BRANCH  22  23
ATOM     23  C   UNL     1      -2.794  12.056  19.127  0.00  0.00    +0.000 A 
ATOM     24  C   UNL     1      -2.821  11.379  17.902  0.00  0.00    +0.000 A 
ATOM     25  C   UNL     1      -4.048  11.066  17.324  0.00  0.00    +0.000 A 
ATOM     26  C   UNL     1      -5.195  11.450  17.990  0.00  0.00    +0.000 A 
ATOM     27  N   UNL     1      -5.208  12.120  19.163  0.00  0.00    +0.000 NA
ATOM     28  C   UNL     1      -4.004  12.404  19.707  0.00  0.00    +0.000 A 
ENDBRANCH  22  23
ENDBRANCH  21  22
ENDBRANCH  19  21
ENDBRANCH   2  15
TORSDOF 5
ENDMDL
MODEL 3
REMARK VINA RESULT:      -8.6      2.316      3.094
REMARK  Name = 
REMARK  5 active torsions:
REMARK  status: ('A' for Active; 'I' for Inactive)
REMARK    1  A    between atoms: C_2  and  C_14
REMARK    2  A    between atoms: N_3  and  C_4
REMARK    3  A    between atoms: C_18  and  O_19
REMARK    4  A    between atoms: O_19  and  C_20
REMARK    5  A    between atoms: C_20  and  C_21
REMARK                            x       y       z     vdW  Elec       q    Type
REMARK                         _______ _______ _______ _____ _____    ______ ____
ROOT
ATOM      1  O   UNL     1       1.581   8.800  18.500  0.00  0.00    +0.000 OA
ATOM      2  C   UNL     1       1.609   8.333  19.631  0.00  0.00    +0.000 C 
ATOM      3  N   UNL     1       2.144   7.118  20.033  0.00  0.00    +0.000 N 
ATOM      4  H   UNL     1       1.890   6.774  20.954  0.00  0.00    +0.000 HD
ENDROOT
BRANCH   3   5
ATOM      5  C   UNL     1       2.756   6.183  19.139  0.00  0.00    +0.000 A 
ATOM      6  C   UNL     1       3.805   6.608  18.309  0.00  0.00    +0.000 A 
ATOM      7  C   UNL     1       4.365   5.769  17.362  0.00  0.00    +0.000 A 
ATOM      8  C   UNL     1       3.901   4.468  17.244  0.00  0.00    +0.000 A 
ATOM      9  C   UNL     1       2.883   3.991  18.080  0.00  0.00    +0.000 A 
ATOM     10  C   UNL     1       2.433   2.671  17.919  0.00  0.00    +0.000 A 
ATOM     11  C   UNL     1       1.414   2.159  18.715  0.00  0.00    +0.000 A 
ATOM     12  C   UNL     1       0.833   2.960  19.688  0.00  0.00    +0.000 A 
ATOM     13  C   UNL     1       1.267   4.279  19.861  0.00  0.00    +0.000 A 
ATOM     14  C   UNL     1       2.298   4.838  19.063  0.00  0.00    +0.000 A 
ENDBRANCH   3   5
BRANCH   2  15
ATOM     15  C   UNL     1       0.933   9.125  20.673  0.00  0.00    +0.000 A 
ATOM     16  C   UNL     1       1.156   8.786  22.007  0.00  0.00    +0.000 A 
ATOM     17  C   UNL     1       0.496   9.471  23.023  0.00  0.00    +0.000 A 
ATOM     18  C   UNL     1      -0.409  10.491  22.698  0.00  0.00    +0.000 A 
ATOM     19  C   UNL     1      -0.659  10.805  21.361  0.00  0.00    +0.000 A 
ATOM     20  C   UNL     1       0.025  10.127  20.346  0.00  0.00    +0.000 A 
BRANCH  19  21
ATOM     21  O   UNL     1      -1.587  11.780  21.084  0.00  0.00    +0.000 OA
BRANCH  21  22
ATOM     22  C   UNL     1      -1.733  12.751  22.130  0.00  0.00    +0.000 C 
BRANCH  22  23
ATOM     23  C   UNL     1      -3.120  12.704  22.683  0.00  0.00    +0.000 A 
ATOM     24  C   UNL     1      -3.343  12.559  24.057  0.00  0.00    +0.000 A 
ATOM     25  C   UNL     1      -4.650  12.513  24.532  0.00  0.00    +0.000 A 
ATOM     26  C   UNL     1      -5.678  12.605  23.615  0.00  0.00    +0.000 A 
ATOM     27  N   UNL     1      -5.501  12.726  22.281  0.00  0.00    +0.000 NA
ATOM     28  C   UNL     1      -4.222  12.777  21.847  0.00  0.00    +0.000 A 
ENDBRANCH  22  23
ENDBRANCH  21  22
ENDBRANCH  19  21
ENDBRANCH   2  15
TORSDOF 5
ENDMDL
MODEL 4
REMARK VINA RESULT:      -8.3      1.205      1.685
REMARK  Name = 
REMARK  5 active torsions:
REMARK  status: ('A' for Active; 'I' for Inactive)
REMARK    1  A    between atoms: C_2  and  C_14
REMARK    2  A    between atoms: N_3  and  C_4
REMARK    3  A    between atoms: C_18  and  O_19
REMARK    4  A    between atoms: O_19  and  C_20
REMARK    5  A    between atoms: C_20  and  C_21
REMARK                            x       y       z     vdW  Elec       q    Type
REMARK                         _______ _______ _______ _____ _____    ______ ____
ROOT
ATOM      1  O   UNL     1       2.274   9.212  17.221  0.00  0.00    +0.000 OA
ATOM      2  C   UNL     1       1.971   8.734  18.306  0.00  0.00    +0.000 C 
ATOM      3  N   UNL     1       2.343   7.503  18.824  0.00  0.00    +0.000 N 
ATOM      4  H   UNL     1       1.831   7.158  19.630  0.00  0.00    +0.000 HD
ENDROOT
BRANCH   3   5
ATOM      5  C   UNL     1       3.163   6.560  18.125  0.00  0.00    +0.000 A 
ATOM      6  C   UNL     1       4.290   7.015  17.422  0.00  0.00    +0.000 A 
ATOM      7  C   UNL     1       5.058   6.158  16.654  0.00  0.00    +0.000 A 
ATOM      8  C   UNL     1       4.727   4.813  16.595  0.00  0.00    +0.000 A 
ATOM      9  C   UNL     1       3.635   4.311  17.313  0.00  0.00    +0.000 A 
ATOM     10  C   UNL     1       3.326   2.946  17.216  0.00  0.00    +0.000 A 
ATOM     11  C   UNL     1       2.241   2.404  17.897  0.00  0.00    +0.000 A 
ATOM     12  C   UNL     1       1.451   3.224  18.691  0.00  0.00    +0.000 A 
ATOM     13  C   UNL     1       1.742   4.588  18.798  0.00  0.00    +0.000 A 
ATOM     14  C   UNL     1       2.835   5.176  18.112  0.00  0.00    +0.000 A 
ENDBRANCH   3   5
BRANCH   2  15
ATOM     15  C   UNL     1       1.045   9.534  19.127  0.00  0.00    +0.000 A 
ATOM     16  C   UNL     1       0.964   9.254  20.490  0.00  0.00    +0.000 A 
ATOM     17  C   UNL     1       0.062   9.947  21.294  0.00  0.00    +0.000 A 
ATOM     18  C   UNL     1      -0.776  10.914  20.723  0.00  0.00    +0.000 A 
ATOM     19  C   UNL     1      -0.720  11.167  19.351  0.00  0.00    +0.000 A 
ATOM     20  C   UNL     1       0.204  10.483  18.554  0.00  0.00    +0.000 A 
BRANCH  19  21
ATOM     21  O   UNL     1      -1.590  12.090  18.823  0.00  0.00    +0.000 OA
BRANCH  21  22
ATOM     22  C   UNL     1      -2.486  11.545  17.844  0.00  0.00    +0.000 C 
BRANCH  22  23
ATOM     23  C   UNL     1      -3.893  11.622  18.338  0.00  0.00    +0.000 A 
ATOM     24  C   UNL     1      -4.950  11.088  17.591  0.00  0.00    +0.000 A 
ATOM     25  C   UNL     1      -6.248  11.186  18.083  0.00  0.00    +0.000 A 
ATOM     26  C   UNL     1      -6.437  11.819  19.295  0.00  0.00    +0.000 A 
ATOM     27  N   UNL     1      -5.445  12.363  20.034  0.00  0.00    +0.000 NA
ATOM     28  C   UNL     1      -4.193  12.247  19.538  0.00  0.00    +0.000 A 
ENDBRANCH  22  23
ENDBRANCH  21  22
ENDBRANCH  19  21
ENDBRANCH   2  15
TORSDOF 5
ENDMDL
MODEL 5
REMARK VINA RESULT:      -8.3      3.010      8.687
REMARK  Name = 
REMARK  5 active torsions:
REMARK  status: ('A' for Active; 'I' for Inactive)
REMARK    1  A    between atoms: C_2  and  C_14
REMARK    2  A    between atoms: N_3  and  C_4
REMARK    3  A    between atoms: C_18  and  O_19
REMARK    4  A    between atoms: O_19  and  C_20
REMARK    5  A    between atoms: C_20  and  C_21
REMARK                            x       y       z     vdW  Elec       q    Type
REMARK                         _______ _______ _______ _____ _____    ______ ____
ROOT
ATOM      1  O   UNL     1       2.655   8.029  18.163  0.00  0.00    +0.000 OA
ATOM      2  C   UNL     1       2.196   7.577  19.203  0.00  0.00    +0.000 C 
ATOM      3  N   UNL     1       1.405   8.231  20.136  0.00  0.00    +0.000 N 
ATOM      4  H   UNL     1       1.295   7.796  21.047  0.00  0.00    +0.000 HD
ENDROOT
BRANCH   3   5
ATOM      5  C   UNL     1       1.005   9.600  20.019  0.00  0.00    +0.000 A 
ATOM      6  C   UNL     1       1.403  10.341  18.896  0.00  0.00    +0.000 A 
ATOM      7  C   UNL     1       1.123  11.692  18.782  0.00  0.00    +0.000 A 
ATOM      8  C   UNL     1       0.409  12.327  19.787  0.00  0.00    +0.000 A 
ATOM      9  C   UNL     1      -0.042  11.615  20.906  0.00  0.00    +0.000 A 
ATOM     10  C   UNL     1      -0.750  12.298  21.906  0.00  0.00    +0.000 A 
ATOM     11  C   UNL     1      -1.204  11.638  23.043  0.00  0.00    +0.000 A 
ATOM     12  C   UNL     1      -0.958  10.280  23.192  0.00  0.00    +0.000 A 
ATOM     13  C   UNL     1      -0.252   9.583  22.206  0.00  0.00    +0.000 A 
ATOM     14  C   UNL     1       0.233  10.224  21.038  0.00  0.00    +0.000 A 
ENDBRANCH   3   5
BRANCH   2  15
ATOM     15  C   UNL     1       2.588   6.196  19.535  0.00  0.00    +0.000 A 
ATOM     16  C   UNL     1       1.818   5.497  20.463  0.00  0.00    +0.000 A 
ATOM     17  C   UNL     1       2.183   4.210  20.848  0.00  0.00    +0.000 A 
ATOM     18  C   UNL     1       3.340   3.627  20.313  0.00  0.00    +0.000 A 
ATOM     19  C   UNL     1       4.131   4.342  19.411  0.00  0.00    +0.000 A 
ATOM     20  C   UNL     1       3.745   5.626  19.012  0.00  0.00    +0.000 A 
BRANCH  19  21
ATOM     21  O   UNL     1       5.280   3.752  18.944  0.00  0.00    +0.000 OA
BRANCH  21  22
ATOM     22  C   UNL     1       6.286   4.690  18.537  0.00  0.00    +0.000 C 
BRANCH  22  23
ATOM     23  C   UNL     1       6.420   4.685  17.050  0.00  0.00    +0.000 A 
ATOM     24  C   UNL     1       5.649   3.825  16.259  0.00  0.00    +0.000 A 
ATOM     25  C   UNL     1       5.807   3.846  14.877  0.00  0.00    +0.000 A 
ATOM     26  C   UNL     1       6.735   4.719  14.343  0.00  0.00    +0.000 A 
ATOM     27  N   UNL     1       7.509   5.549  15.075  0.00  0.00    +0.000 NA
ATOM     28  C   UNL     1       7.330   5.515  16.414  0.00  0.00    +0.000 A 
ENDBRANCH  22  23
ENDBRANCH  21  22
ENDBRANCH  19  21
ENDBRANCH   2  15
TORSDOF 5
ENDMDL
MODEL 6
REMARK VINA RESULT:      -8.3      0.801      1.377
REMARK  Name = 
REMARK  5 active torsions:
REMARK  status: ('A' for Active; 'I' for Inactive)
REMARK    1  A    between atoms: C_2  and  C_14
REMARK    2  A    between atoms: N_3  and  C_4
REMARK    3  A    between atoms: C_18  and  O_19
REMARK    4  A    between atoms: O_19  and  C_20
REMARK    5  A    between atoms: C_20  and  C_21
REMARK                            x       y       z     vdW  Elec       q    Type
REMARK                         _______ _______ _______ _____ _____    ______ ____
ROOT
ATOM      1  O   UNL     1       1.853   8.756  17.408  0.00  0.00    +0.000 OA
ATOM      2  C   UNL     1       1.874   8.429  18.587  0.00  0.00    +0.000 C 
ATOM      3  N   UNL     1       2.458   7.300  19.143  0.00  0.00    +0.000 N 
ATOM      4  H   UNL     1       2.197   7.056  20.093  0.00  0.00    +0.000 HD
ENDROOT
BRANCH   3   5
ATOM      5  C   UNL     1       3.138   6.298  18.380  0.00  0.00    +0.000 A 
ATOM      6  C   UNL     1       4.236   6.664  17.586  0.00  0.00    +0.000 A 
ATOM      7  C   UNL     1       4.867   5.752  16.758  0.00  0.00    +0.000 A 
ATOM      8  C   UNL     1       4.425   4.438  16.729  0.00  0.00    +0.000 A 
ATOM      9  C   UNL     1       3.359   4.022  17.536  0.00  0.00    +0.000 A 
ATOM     10  C   UNL     1       2.935   2.686  17.467  0.00  0.00    +0.000 A 
ATOM     11  C   UNL     1       1.869   2.231  18.237  0.00  0.00    +0.000 A 
ATOM     12  C   UNL     1       1.216   3.107  19.092  0.00  0.00    +0.000 A 
ATOM     13  C   UNL     1       1.624   4.443  19.172  0.00  0.00    +0.000 A 
ATOM     14  C   UNL     1       2.700   4.945  18.397  0.00  0.00    +0.000 A 
ENDBRANCH   3   5
BRANCH   2  15
ATOM     15  C   UNL     1       1.133   9.303  19.513  0.00  0.00    +0.000 A 
ATOM     16  C   UNL     1       1.167   9.001  20.873  0.00  0.00    +0.000 A 
ATOM     17  C   UNL     1       0.437   9.767  21.778  0.00  0.00    +0.000 A 
ATOM     18  C   UNL     1      -0.347  10.831  21.313  0.00  0.00    +0.000 A 
ATOM     19  C   UNL     1      -0.409  11.110  19.946  0.00  0.00    +0.000 A 
ATOM     20  C   UNL     1       0.345  10.350  19.046  0.00  0.00    +0.000 A 
BRANCH  19  21
ATOM     21  O   UNL     1      -1.225  12.133  19.527  0.00  0.00    +0.000 OA
BRANCH  21  22
ATOM     22  C   UNL     1      -1.888  11.869  18.282  0.00  0.00    +0.000 C 
BRANCH  22  23
ATOM     23  C   UNL     1      -3.366  11.816  18.490  0.00  0.00    +0.000 A 
ATOM     24  C   UNL     1      -3.950  12.339  19.650  0.00  0.00    +0.000 A 
ATOM     25  C   UNL     1      -5.331  12.264  19.809  0.00  0.00    +0.000 A 
ATOM     26  C   UNL     1      -6.068  11.664  18.807  0.00  0.00    +0.000 A 
ATOM     27  N   UNL     1      -5.537  11.132  17.684  0.00  0.00    +0.000 NA
ATOM     28  C   UNL     1      -4.196  11.225  17.551  0.00  0.00    +0.000 A 
ENDBRANCH  22  23
ENDBRANCH  21  22
ENDBRANCH  19  21
ENDBRANCH   2  15
TORSDOF 5
ENDMDL
MODEL 7
REMARK VINA RESULT:      -8.2      2.906      9.031
REMARK  Name = 
REMARK  5 active torsions:
REMARK  status: ('A' for Active; 'I' for Inactive)
REMARK    1  A    between atoms: C_2  and  C_14
REMARK    2  A    between atoms: N_3  and  C_4
REMARK    3  A    between atoms: C_18  and  O_19
REMARK    4  A    between atoms: O_19  and  C_20
REMARK    5  A    between atoms: C_20  and  C_21
REMARK                            x       y       z     vdW  Elec       q    Type
REMARK                         _______ _______ _______ _____ _____    ______ ____
ROOT
ATOM      1  O   UNL     1       2.469   9.582  17.427  0.00  0.00    +0.000 OA
ATOM      2  C   UNL     1       2.119   8.635  18.119  0.00  0.00    +0.000 C 
ATOM      3  N   UNL     1       1.205   8.639  19.162  0.00  0.00    +0.000 N 
ATOM      4  H   UNL     1       1.192   7.833  19.779  0.00  0.00    +0.000 HD
ENDROOT
BRANCH   3   5
ATOM      5  C   UNL     1       0.516   9.810  19.612  0.00  0.00    +0.000 A 
ATOM      6  C   UNL     1       0.934  10.443  20.794  0.00  0.00    +0.000 A 
ATOM      7  C   UNL     1       0.243  11.520  21.321  0.00  0.00    +0.000 A 
ATOM      8  C   UNL     1      -0.872  12.007  20.656  0.00  0.00    +0.000 A 
ATOM      9  C   UNL     1      -1.299  11.430  19.453  0.00  0.00    +0.000 A 
ATOM     10  C   UNL     1      -2.440  11.944  18.819  0.00  0.00    +0.000 A 
ATOM     11  C   UNL     1      -2.911  11.393  17.632  0.00  0.00    +0.000 A 
ATOM     12  C   UNL     1      -2.241  10.321  17.059  0.00  0.00    +0.000 A 
ATOM     13  C   UNL     1      -1.103   9.794  17.678  0.00  0.00    +0.000 A 
ATOM     14  C   UNL     1      -0.599  10.324  18.893  0.00  0.00    +0.000 A 
ENDBRANCH   3   5
BRANCH   2  15
ATOM     15  C   UNL     1       2.803   7.357  17.856  0.00  0.00    +0.000 A 
ATOM     16  C   UNL     1       2.190   6.181  18.288  0.00  0.00    +0.000 A 
ATOM     17  C   UNL     1       2.826   4.955  18.111  0.00  0.00    +0.000 A 
ATOM     18  C   UNL     1       4.093   4.910  17.513  0.00  0.00    +0.000 A 
ATOM     19  C   UNL     1       4.721   6.091  17.114  0.00  0.00    +0.000 A 
ATOM     20  C   UNL     1       4.067   7.317  17.276  0.00  0.00    +0.000 A 
BRANCH  19  21
ATOM     21  O   UNL     1       5.981   6.008  16.574  0.00  0.00    +0.000 OA
BRANCH  21  22
ATOM     22  C   UNL     1       6.374   4.671  16.230  0.00  0.00    +0.000 C 
BRANCH  22  23
ATOM     23  C   UNL     1       6.628   4.574  14.762  0.00  0.00    +0.000 A 
ATOM     24  C   UNL     1       5.939   3.647  13.971  0.00  0.00    +0.000 A 
ATOM     25  C   UNL     1       6.208   3.583  12.607  0.00  0.00    +0.000 A 
ATOM     26  C   UNL     1       7.160   4.441  12.093  0.00  0.00    +0.000 A 
ATOM     27  N   UNL     1       7.858   5.334  12.827  0.00  0.00    +0.000 NA
ATOM     28  C   UNL     1       7.572   5.382  14.147  0.00  0.00    +0.000 A 
ENDBRANCH  22  23
ENDBRANCH  21  22
ENDBRANCH  19  21
ENDBRANCH   2  15
TORSDOF 5
ENDMDL
MODEL 8
REMARK VINA RESULT:      -8.2      1.078      1.094
REMARK  Name = 
REMARK  5 active torsions:
REMARK  status: ('A' for Active; 'I' for Inactive)
REMARK    1  A    between atoms: C_2  and  C_14
REMARK    2  A    between atoms: N_3  and  C_4
REMARK    3  A    between atoms: C_18  and  O_19
REMARK    4  A    between atoms: O_19  and  C_20
REMARK    5  A    between atoms: C_20  and  C_21
REMARK                            x       y       z     vdW  Elec       q    Type
REMARK                         _______ _______ _______ _____ _____    ______ ____
ROOT
ATOM      1  O   UNL     1       2.304   6.442  20.922  0.00  0.00    +0.000 OA
ATOM      2  C   UNL     1       2.023   7.240  20.038  0.00  0.00    +0.000 C 
ATOM      3  N   UNL     1       2.361   7.170  18.695  0.00  0.00    +0.000 N 
ATOM      4  H   UNL     1       2.252   8.012  18.138  0.00  0.00    +0.000 HD
ENDROOT
BRANCH   3   5
ATOM      5  C   UNL     1       3.137   6.112  18.123  0.00  0.00    +0.000 A 
ATOM      6  C   UNL     1       4.342   6.416  17.471  0.00  0.00    +0.000 A 
ATOM      7  C   UNL     1       5.079   5.442  16.820  0.00  0.00    +0.000 A 
ATOM      8  C   UNL     1       4.636   4.129  16.833  0.00  0.00    +0.000 A 
ATOM      9  C   UNL     1       3.460   3.776  17.507  0.00  0.00    +0.000 A 
ATOM     10  C   UNL     1       3.040   2.437  17.485  0.00  0.00    +0.000 A 
ATOM     11  C   UNL     1       1.870   2.041  18.126  0.00  0.00    +0.000 A 
ATOM     12  C   UNL     1       1.106   2.982  18.803  0.00  0.00    +0.000 A 
ATOM     13  C   UNL     1       1.509   4.321  18.834  0.00  0.00    +0.000 A 
ATOM     14  C   UNL     1       2.690   4.763  18.185  0.00  0.00    +0.000 A 
ENDBRANCH   3   5
BRANCH   2  15
ATOM     15  C   UNL     1       1.301   8.451  20.467  0.00  0.00    +0.000 A 
ATOM     16  C   UNL     1       1.054   8.623  21.828  0.00  0.00    +0.000 A 
ATOM     17  C   UNL     1       0.327   9.724  22.273  0.00  0.00    +0.000 A 
ATOM     18  C   UNL     1      -0.171  10.649  21.345  0.00  0.00    +0.000 A 
ATOM     19  C   UNL     1       0.046  10.455  19.979  0.00  0.00    +0.000 A 
ATOM     20  C   UNL     1       0.797   9.359  19.541  0.00  0.00    +0.000 A 
BRANCH  19  21
ATOM     21  O   UNL     1      -0.497  11.360  19.099  0.00  0.00    +0.000 OA
BRANCH  21  22
ATOM     22  C   UNL     1      -1.917  11.516  19.235  0.00  0.00    +0.000 C 
BRANCH  22  23
ATOM     23  C   UNL     1      -2.598  11.142  17.959  0.00  0.00    +0.000 A 
ATOM     24  C   UNL     1      -1.974  10.305  17.027  0.00  0.00    +0.000 A 
ATOM     25  C   UNL     1      -2.639   9.985  15.847  0.00  0.00    +0.000 A 
ATOM     26  C   UNL     1      -3.895  10.522  15.645  0.00  0.00    +0.000 A 
ATOM     27  N   UNL     1      -4.520  11.348  16.512  0.00  0.00    +0.000 NA
ATOM     28  C   UNL     1      -3.856  11.635  17.653  0.00  0.00    +0.000 A 
ENDBRANCH  22  23
ENDBRANCH  21  22
ENDBRANCH  19  21
ENDBRANCH   2  15
TORSDOF 5
ENDMDL
MODEL 9
REMARK VINA RESULT:      -8.2      1.361      2.719
REMARK  Name = 
REMARK  5 active torsions:
REMARK  status: ('A' for Active; 'I' for Inactive)
REMARK    1  A    between atoms: C_2  and  C_14
REMARK    2  A    between atoms: N_3  and  C_4
REMARK    3  A    between atoms: C_18  and  O_19
REMARK    4  A    between atoms: O_19  and  C_20
REMARK    5  A    between atoms: C_20  and  C_21
REMARK                            x       y       z     vdW  Elec       q    Type
REMARK                         _______ _______ _______ _____ _____    ______ ____
ROOT
ATOM      1  O   UNL     1       1.885   6.137  20.655  0.00  0.00    +0.000 OA
ATOM      2  C   UNL     1       1.901   7.025  19.813  0.00  0.00    +0.000 C 
ATOM      3  N   UNL     1       2.358   6.945  18.506  0.00  0.00    +0.000 N 
ATOM      4  H   UNL     1       2.514   7.817  18.009  0.00  0.00    +0.000 HD
ENDROOT
BRANCH   3   5
ATOM      5  C   UNL     1       2.919   5.762  17.929  0.00  0.00    +0.000 A 
ATOM      6  C   UNL     1       2.132   4.604  17.830  0.00  0.00    +0.000 A 
ATOM      7  C   UNL     1       2.656   3.409  17.368  0.00  0.00    +0.000 A 
ATOM      8  C   UNL     1       3.983   3.356  16.969  0.00  0.00    +0.000 A 
ATOM      9  C   UNL     1       4.792   4.498  17.014  0.00  0.00    +0.000 A 
ATOM     10  C   UNL     1       6.133   4.398  16.612  0.00  0.00    +0.000 A 
ATOM     11  C   UNL     1       6.979   5.501  16.656  0.00  0.00    +0.000 A 
ATOM     12  C   UNL     1       6.492   6.723  17.098  0.00  0.00    +0.000 A 
ATOM     13  C   UNL     1       5.159   6.841  17.504  0.00  0.00    +0.000 A 
ATOM     14  C   UNL     1       4.269   5.737  17.482  0.00  0.00    +0.000 A 
ENDBRANCH   3   5
BRANCH   2  15
ATOM     15  C   UNL     1       1.444   8.350  20.265  0.00  0.00    +0.000 A 
ATOM     16  C   UNL     1       1.238   8.547  21.630  0.00  0.00    +0.000 A 
ATOM     17  C   UNL     1       0.754   9.766  22.096  0.00  0.00    +0.000 A 
ATOM     18  C   UNL     1       0.455  10.789  21.185  0.00  0.00    +0.000 A 
ATOM     19  C   UNL     1       0.626  10.578  19.815  0.00  0.00    +0.000 A 
ATOM     20  C   UNL     1       1.135   9.358  19.356  0.00  0.00    +0.000 A 
BRANCH  19  21
ATOM     21  O   UNL     1       0.280  11.590  18.953  0.00  0.00    +0.000 OA
BRANCH  21  22
ATOM     22  C   UNL     1      -0.882  12.325  19.363  0.00  0.00    +0.000 C 
BRANCH  22  23
ATOM     23  C   UNL     1      -2.096  11.791  18.676  0.00  0.00    +0.000 A 
ATOM     24  C   UNL     1      -1.986  11.021  17.513  0.00  0.00    +0.000 A 
ATOM     25  C   UNL     1      -3.141  10.547  16.899  0.00  0.00    +0.000 A 
ATOM     26  C   UNL     1      -4.357  10.870  17.467  0.00  0.00    +0.000 A 
ATOM     27  N   UNL     1      -4.503  11.626  18.577  0.00  0.00    +0.000 NA
ATOM     28  C   UNL     1      -3.366  12.067  19.158  0.00  0.00    +0.000 A 
ENDBRANCH  22  23
ENDBRANCH  21  22
ENDBRANCH  19  21
ENDBRANCH   2  15
TORSDOF 5
ENDMDL
