MODEL 1
REMARK VINA RESULT:      -8.7      0.000      0.000
REMARK  Name = 
REMARK  7 active torsions:
REMARK  status: ('A' for Active; 'I' for Inactive)
REMARK    1  A    between atoms: C_1  and  N_2
REMARK    2  A    between atoms: C_6  and  C_7
REMARK    3  A    between atoms: C_7  and  C_8
REMARK    4  A    between atoms: C_8  and  C_9
REMARK    5  A    between atoms: C_13  and  N_14
REMARK    6  A    between atoms: C_15  and  C_17
REMARK    7  A    between atoms: C_21  and  C_22
REMARK                            x       y       z     vdW  Elec       q    Type
REMARK                         _______ _______ _______ _____ _____    ______ ____
ROOT
ATOM      1  C   UNL     1       4.880   4.857  17.336  0.00  0.00    +0.000 A 
ATOM      2  C   UNL     1       6.138   4.992  17.955  0.00  0.00    +0.000 A 
ATOM      3  C   UNL     1       7.311   4.675  17.286  0.00  0.00    +0.000 A 
ATOM      4  C   UNL     1       7.268   4.215  15.976  0.00  0.00    +0.000 A 
ATOM      5  C   UNL     1       6.041   4.078  15.325  0.00  0.00    +0.000 A 
ATOM      6  C   UNL     1       4.875   4.425  16.004  0.00  0.00    +0.000 A 
ENDROOT
BRANCH   1   7
ATOM      7  C   UNL     1       3.500   5.149  18.084  0.00  0.00    +0.000 C 
ATOM      8  C   UNL     1       3.574   5.874  19.462  0.00  0.00    +0.000 C 
ATOM      9  O   UNL     1       2.754   6.967  18.998  0.00  0.00    +0.000 OA
ATOM     10  C   UNL     1       2.755   6.445  17.656  0.00  0.00    +0.000 C 
BRANCH   7  11
ATOM     11  C   UNL     1       2.599   3.901  18.046  0.00  0.00    +0.000 C 
BRANCH  11  17
ATOM     12  C   UNL     1       4.354   2.252  20.096  0.00  0.00    +0.000 C 
ATOM     13  N   UNL     1       2.990   2.670  20.261  0.00  0.00    +0.000 N 
ATOM     14  C   UNL     1       2.207   2.392  21.345  0.00  0.00    +0.000 A 
ATOM     15  N   UNL     1       1.038   2.959  21.190  0.00  0.00    +0.000 NA
ATOM     16  N   UNL     1       1.032   3.590  19.976  0.00  0.00    +0.000 NA
ATOM     17  C   UNL     1       2.208   3.408  19.403  0.00  0.00    +0.000 A 
ENDBRANCH  11  17
ENDBRANCH   7  11
ENDBRANCH   1   7
BRANCH   5  18
ATOM     18  N   UNL     1       5.871   3.579  14.029  0.00  0.00    +0.000 N 
ATOM     19  C   UNL     1       6.582   3.981  12.923  0.00  0.00    +0.000 C 
ATOM     20  O   UNL     1       7.383   4.906  12.895  0.00  0.00    +0.000 OA
ATOM     21  H   UNL     1       5.222   2.803  13.914  0.00  0.00    +0.000 HD
BRANCH  19  22
ATOM     22  C   UNL     1       6.336   3.109  11.758  0.00  0.00    +0.000 C 
ATOM     23  C   UNL     1       6.863   1.889  11.710  0.00  0.00    +0.000 C 
ATOM     24  C   UNL     1       6.744   0.511  11.294  0.00  0.00    +0.000 C 
ATOM     25  C   UNL     1       5.604   1.414  11.089  0.00  0.00    +0.000 C 
ATOM     26  C   UNL     1       5.106   2.651  11.243  0.00  0.00    +0.000 C 
BRANCH  26  27
ATOM     27  C   UNL     1       3.775   3.325  11.010  0.00  0.00    +0.000 C 
ATOM     28  F   UNL     1       2.726   2.587  11.443  0.00  0.00    +0.000 F 
ATOM     29  F   UNL     1       3.708   4.531  11.629  0.00  0.00    +0.000 F 
ATOM     30  F   UNL     1       3.581   3.591   9.691  0.00  0.00    +0.000 F 
ENDBRANCH  26  27
ENDBRANCH  19  22
ENDBRANCH   5  18
TORSDOF 6
ENDMDL
MODEL 2
REMARK VINA RESULT:      -8.4      1.973      2.975
REMARK  Name = 
REMARK  7 active torsions:
REMARK  status: ('A' for Active; 'I' for Inactive)
REMARK    1  A    between atoms: C_1  and  N_2
REMARK    2  A    between atoms: C_6  and  C_7
REMARK    3  A    between atoms: C_7  and  C_8
REMARK    4  A    between atoms: C_8  and  C_9
REMARK    5  A    between atoms: C_13  and  N_14
REMARK    6  A    between atoms: C_15  and  C_17
REMARK    7  A    between atoms: C_21  and  C_22
REMARK                            x       y       z     vdW  Elec       q    Type
REMARK                         _______ _______ _______ _____ _____    ______ ____
ROOT
ATOM      1  C   UNL     1       4.877   4.416  17.523  0.00  0.00    +0.000 A 
ATOM      2  C   UNL     1       6.134   4.742  18.069  0.00  0.00    +0.000 A 
ATOM      3  C   UNL     1       7.294   4.665  17.312  0.00  0.00    +0.000 A 
ATOM      4  C   UNL     1       7.238   4.261  15.984  0.00  0.00    +0.000 A 
ATOM      5  C   UNL     1       6.010   3.941  15.404  0.00  0.00    +0.000 A 
ATOM      6  C   UNL     1       4.853   4.049  16.172  0.00  0.00    +0.000 A 
ENDROOT
BRANCH   1   7
ATOM      7  C   UNL     1       3.524   4.430  18.369  0.00  0.00    +0.000 C 
ATOM      8  C   UNL     1       2.188   4.257  17.585  0.00  0.00    +0.000 C 
ATOM      9  O   UNL     1       1.831   3.078  18.337  0.00  0.00    +0.000 OA
ATOM     10  C   UNL     1       3.106   3.076  19.007  0.00  0.00    +0.000 C 
BRANCH   7  11
ATOM     11  C   UNL     1       3.543   5.589  19.384  0.00  0.00    +0.000 C 
BRANCH  11  17
ATOM     12  C   UNL     1       1.512   7.581  20.764  0.00  0.00    +0.000 C 
ATOM     13  N   UNL     1       2.092   7.701  19.456  0.00  0.00    +0.000 N 
ATOM     14  C   UNL     1       1.831   8.706  18.569  0.00  0.00    +0.000 A 
ATOM     15  N   UNL     1       2.558   8.533  17.495  0.00  0.00    +0.000 NA
ATOM     16  N   UNL     1       3.283   7.383  17.656  0.00  0.00    +0.000 NA
ATOM     17  C   UNL     1       2.996   6.869  18.837  0.00  0.00    +0.000 A 
ENDBRANCH  11  17
ENDBRANCH   7  11
ENDBRANCH   1   7
BRANCH   5  18
ATOM     18  N   UNL     1       5.837   3.477  14.096  0.00  0.00    +0.000 N 
ATOM     19  C   UNL     1       6.493   3.960  12.988  0.00  0.00    +0.000 C 
ATOM     20  O   UNL     1       7.235   4.933  12.974  0.00  0.00    +0.000 OA
ATOM     21  H   UNL     1       5.235   2.667  13.969  0.00  0.00    +0.000 HD
BRANCH  19  22
ATOM     22  C   UNL     1       6.270   3.114  11.799  0.00  0.00    +0.000 C 
ATOM     23  C   UNL     1       6.797   1.895  11.735  0.00  0.00    +0.000 C 
ATOM     24  C   UNL     1       6.686   0.527  11.286  0.00  0.00    +0.000 C 
ATOM     25  C   UNL     1       5.552   1.436  11.077  0.00  0.00    +0.000 C 
ATOM     26  C   UNL     1       5.052   2.670  11.248  0.00  0.00    +0.000 C 
BRANCH  26  27
ATOM     27  C   UNL     1       3.727   3.351  11.002  0.00  0.00    +0.000 C 
ATOM     28  F   UNL     1       3.723   4.651  11.381  0.00  0.00    +0.000 F 
ATOM     29  F   UNL     1       3.376   3.307   9.691  0.00  0.00    +0.000 F 
ATOM     30  F   UNL     1       2.718   2.723  11.661  0.00  0.00    +0.000 F 
ENDBRANCH  26  27
ENDBRANCH  19  22
ENDBRANCH   5  18
TORSDOF 6
ENDMDL
MODEL 3
REMARK VINA RESULT:      -8.3      0.652      1.293
REMARK  Name = 
REMARK  7 active torsions:
REMARK  status: ('A' for Active; 'I' for Inactive)
REMARK    1  A    between atoms: C_1  and  N_2
REMARK    2  A    between atoms: C_6  and  C_7
REMARK    3  A    between atoms: C_7  and  C_8
REMARK    4  A    between atoms: C_8  and  C_9
REMARK    5  A    between atoms: C_13  and  N_14
REMARK    6  A    between atoms: C_15  and  C_17
REMARK    7  A    between atoms: C_21  and  C_22
REMARK                            x       y       z     vdW  Elec       q    Type
REMARK                         _______ _______ _______ _____ _____    ______ ____
ROOT
ATOM      1  C   UNL     1       5.042   4.858  17.190  0.00  0.00    +0.000 A 
ATOM      2  C   UNL     1       6.315   5.245  17.652  0.00  0.00    +0.000 A 
ATOM      3  C   UNL     1       7.444   5.113  16.857  0.00  0.00    +0.000 A 
ATOM      4  C   UNL     1       7.339   4.591  15.574  0.00  0.00    +0.000 A 
ATOM      5  C   UNL     1       6.093   4.207  15.077  0.00  0.00    +0.000 A 
ATOM      6  C   UNL     1       4.967   4.371  15.880  0.00  0.00    +0.000 A 
ENDROOT
BRANCH   1   7
ATOM      7  C   UNL     1       3.725   4.933  18.089  0.00  0.00    +0.000 C 
ATOM      8  C   UNL     1       3.810   5.747  19.416  0.00  0.00    +0.000 C 
ATOM      9  O   UNL     1       2.745   6.633  19.009  0.00  0.00    +0.000 OA
ATOM     10  C   UNL     1       2.698   6.034  17.701  0.00  0.00    +0.000 C 
BRANCH   7  11
ATOM     11  C   UNL     1       3.086   3.537  18.215  0.00  0.00    +0.000 C 
BRANCH  11  17
ATOM     12  C   UNL     1       0.737   3.885  20.304  0.00  0.00    +0.000 C 
ATOM     13  N   UNL     1       1.996   3.226  20.515  0.00  0.00    +0.000 N 
ATOM     14  C   UNL     1       2.397   2.656  21.688  0.00  0.00    +0.000 A 
ATOM     15  N   UNL     1       3.574   2.107  21.521  0.00  0.00    +0.000 NA
ATOM     16  N   UNL     1       3.973   2.348  20.234  0.00  0.00    +0.000 NA
ATOM     17  C   UNL     1       3.026   3.035  19.623  0.00  0.00    +0.000 A 
ENDBRANCH  11  17
ENDBRANCH   7  11
ENDBRANCH   1   7
BRANCH   5  18
ATOM     18  N   UNL     1       5.874   3.626  13.823  0.00  0.00    +0.000 N 
ATOM     19  C   UNL     1       6.578   3.917  12.678  0.00  0.00    +0.000 C 
ATOM     20  O   UNL     1       7.417   4.801  12.570  0.00  0.00    +0.000 OA
ATOM     21  H   UNL     1       5.190   2.874  13.776  0.00  0.00    +0.000 HD
BRANCH  19  22
ATOM     22  C   UNL     1       6.269   2.976  11.583  0.00  0.00    +0.000 C 
ATOM     23  C   UNL     1       6.746   1.736  11.610  0.00  0.00    +0.000 C 
ATOM     24  C   UNL     1       6.563   0.338  11.294  0.00  0.00    +0.000 C 
ATOM     25  C   UNL     1       5.455   1.271  11.051  0.00  0.00    +0.000 C 
ATOM     26  C   UNL     1       5.009   2.535  11.129  0.00  0.00    +0.000 C 
BRANCH  26  27
ATOM     27  C   UNL     1       3.701   3.245  10.877  0.00  0.00    +0.000 C 
ATOM     28  F   UNL     1       3.213   3.029   9.633  0.00  0.00    +0.000 F 
ATOM     29  F   UNL     1       2.745   2.864  11.763  0.00  0.00    +0.000 F 
ATOM     30  F   UNL     1       3.827   4.588  11.047  0.00  0.00    +0.000 F 
ENDBRANCH  26  27
ENDBRANCH  19  22
ENDBRANCH   5  18
TORSDOF 6
ENDMDL
MODEL 4
REMARK VINA RESULT:      -8.3      4.959      9.251
REMARK  Name = 
REMARK  7 active torsions:
REMARK  status: ('A' for Active; 'I' for Inactive)
REMARK    1  A    between atoms: C_1  and  N_2
REMARK    2  A    between atoms: C_6  and  C_7
REMARK    3  A    between atoms: C_7  and  C_8
REMARK    4  A    between atoms: C_8  and  C_9
REMARK    5  A    between atoms: C_13  and  N_14
REMARK    6  A    between atoms: C_15  and  C_17
REMARK    7  A    between atoms: C_21  and  C_22
REMARK                            x       y       z     vdW  Elec       q    Type
REMARK                         _______ _______ _______ _____ _____    ______ ____
ROOT
ATOM      1  C   UNL     1       4.474   4.748  17.243  0.00  0.00    +0.000 A 
ATOM      2  C   UNL     1       3.725   3.556  17.303  0.00  0.00    +0.000 A 
ATOM      3  C   UNL     1       2.414   3.547  17.756  0.00  0.00    +0.000 A 
ATOM      4  C   UNL     1       1.806   4.727  18.163  0.00  0.00    +0.000 A 
ATOM      5  C   UNL     1       2.511   5.930  18.107  0.00  0.00    +0.000 A 
ATOM      6  C   UNL     1       3.818   5.925  17.625  0.00  0.00    +0.000 A 
ENDROOT
BRANCH   1   7
ATOM      7  C   UNL     1       6.003   4.801  16.788  0.00  0.00    +0.000 C 
ATOM      8  C   UNL     1       6.659   6.208  16.649  0.00  0.00    +0.000 C 
ATOM      9  O   UNL     1       7.680   5.893  17.619  0.00  0.00    +0.000 OA
ATOM     10  C   UNL     1       7.056   4.630  17.919  0.00  0.00    +0.000 C 
BRANCH   7  11
ATOM     11  C   UNL     1       6.238   3.847  15.602  0.00  0.00    +0.000 C 
BRANCH  11  17
ATOM     12  C   UNL     1       5.716   3.339  12.525  0.00  0.00    +0.000 C 
ATOM     13  N   UNL     1       6.674   4.237  13.107  0.00  0.00    +0.000 N 
ATOM     14  C   UNL     1       7.552   5.013  12.404  0.00  0.00    +0.000 A 
ATOM     15  N   UNL     1       8.248   5.742  13.240  0.00  0.00    +0.000 NA
ATOM     16  N   UNL     1       7.853   5.420  14.511  0.00  0.00    +0.000 NA
ATOM     17  C   UNL     1       6.909   4.500  14.436  0.00  0.00    +0.000 A 
ENDBRANCH  11  17
ENDBRANCH   7  11
ENDBRANCH   1   7
BRANCH   5  18
ATOM     18  N   UNL     1       2.019   7.169  18.535  0.00  0.00    +0.000 N 
ATOM     19  C   UNL     1       1.702   7.492  19.834  0.00  0.00    +0.000 C 
ATOM     20  O   UNL     1       1.700   6.711  20.776  0.00  0.00    +0.000 OA
ATOM     21  H   UNL     1       1.966   7.909  17.840  0.00  0.00    +0.000 HD
BRANCH  19  22
ATOM     22  C   UNL     1       1.434   8.934  19.996  0.00  0.00    +0.000 C 
ATOM     23  C   UNL     1       0.975   9.650  18.974  0.00  0.00    +0.000 C 
ATOM     24  C   UNL     1       0.151  10.740  18.506  0.00  0.00    +0.000 C 
ATOM     25  C   UNL     1       0.116  10.388  19.931  0.00  0.00    +0.000 C 
ATOM     26  C   UNL     1       0.563   9.574  20.900  0.00  0.00    +0.000 C 
BRANCH  26  27
ATOM     27  C   UNL     1       0.268   9.362  22.366  0.00  0.00    +0.000 C 
ATOM     28  F   UNL     1       1.361   9.001  23.078  0.00  0.00    +0.000 F 
ATOM     29  F   UNL     1      -0.243  10.481  22.942  0.00  0.00    +0.000 F 
ATOM     30  F   UNL     1      -0.680   8.406  22.546  0.00  0.00    +0.000 F 
ENDBRANCH  26  27
ENDBRANCH  19  22
ENDBRANCH   5  18
TORSDOF 6
ENDMDL
MODEL 5
REMARK VINA RESULT:      -8.2      0.840      1.292
REMARK  Name = 
REMARK  7 active torsions:
REMARK  status: ('A' for Active; 'I' for Inactive)
REMARK    1  A    between atoms: C_1  and  N_2
REMARK    2  A    between atoms: C_6  and  C_7
REMARK    3  A    between atoms: C_7  and  C_8
REMARK    4  A    between atoms: C_8  and  C_9
REMARK    5  A    between atoms: C_13  and  N_14
REMARK    6  A    between atoms: C_15  and  C_17
REMARK    7  A    between atoms: C_21  and  C_22
REMARK                            x       y       z     vdW  Elec       q    Type
REMARK                         _______ _______ _______ _____ _____    ______ ____
ROOT
ATOM      1  C   UNL     1       4.856   5.166  17.178  0.00  0.00    +0.000 A 
ATOM      2  C   UNL     1       6.103   5.223  17.832  0.00  0.00    +0.000 A 
ATOM      3  C   UNL     1       7.264   4.782  17.215  0.00  0.00    +0.000 A 
ATOM      4  C   UNL     1       7.220   4.270  15.924  0.00  0.00    +0.000 A 
ATOM      5  C   UNL     1       6.005   4.208  15.239  0.00  0.00    +0.000 A 
ATOM      6  C   UNL     1       4.853   4.680  15.866  0.00  0.00    +0.000 A 
ENDROOT
BRANCH   1   7
ATOM      7  C   UNL     1       3.485   5.604  17.869  0.00  0.00    +0.000 C 
ATOM      8  C   UNL     1       3.535   5.986  19.379  0.00  0.00    +0.000 C 
ATOM      9  O   UNL     1       3.023   7.311  19.121  0.00  0.00    +0.000 OA
ATOM     10  C   UNL     1       3.083   7.096  17.699  0.00  0.00    +0.000 C 
BRANCH   7  11
ATOM     11  C   UNL     1       2.357   4.632  17.476  0.00  0.00    +0.000 C 
BRANCH  11  17
ATOM     12  C   UNL     1       0.830   3.770  20.108  0.00  0.00    +0.000 C 
ATOM     13  N   UNL     1       1.765   2.986  19.350  0.00  0.00    +0.000 N 
ATOM     14  C   UNL     1       2.172   1.723  19.670  0.00  0.00    +0.000 A 
ATOM     15  N   UNL     1       2.991   1.287  18.747  0.00  0.00    +0.000 NA
ATOM     16  N   UNL     1       3.157   2.284  17.824  0.00  0.00    +0.000 NA
ATOM     17  C   UNL     1       2.425   3.320  18.190  0.00  0.00    +0.000 A 
ENDBRANCH  11  17
ENDBRANCH   7  11
ENDBRANCH   1   7
BRANCH   5  18
ATOM     18  N   UNL     1       5.831   3.670  13.960  0.00  0.00    +0.000 N 
ATOM     19  C   UNL     1       6.556   4.020  12.845  0.00  0.00    +0.000 C 
ATOM     20  O   UNL     1       7.375   4.928  12.791  0.00  0.00    +0.000 OA
ATOM     21  H   UNL     1       5.168   2.904  13.868  0.00  0.00    +0.000 HD
BRANCH  19  22
ATOM     22  C   UNL     1       6.297   3.115  11.709  0.00  0.00    +0.000 C 
ATOM     23  C   UNL     1       6.833   1.898  11.686  0.00  0.00    +0.000 C 
ATOM     24  C   UNL     1       6.717   0.508  11.309  0.00  0.00    +0.000 C 
ATOM     25  C   UNL     1       5.568   1.397  11.098  0.00  0.00    +0.000 C 
ATOM     26  C   UNL     1       5.063   2.634  11.226  0.00  0.00    +0.000 C 
BRANCH  26  27
ATOM     27  C   UNL     1       3.724   3.293  10.995  0.00  0.00    +0.000 C 
ATOM     28  F   UNL     1       2.756   2.825  11.819  0.00  0.00    +0.000 F 
ATOM     29  F   UNL     1       3.790   4.638  11.167  0.00  0.00    +0.000 F 
ATOM     30  F   UNL     1       3.301   3.119   9.715  0.00  0.00    +0.000 F 
ENDBRANCH  26  27
ENDBRANCH  19  22
ENDBRANCH   5  18
TORSDOF 6
ENDMDL
MODEL 6
REMARK VINA RESULT:      -8.1      0.850      1.355
REMARK  Name = 
REMARK  7 active torsions:
REMARK  status: ('A' for Active; 'I' for Inactive)
REMARK    1  A    between atoms: C_1  and  N_2
REMARK    2  A    between atoms: C_6  and  C_7
REMARK    3  A    between atoms: C_7  and  C_8
REMARK    4  A    between atoms: C_8  and  C_9
REMARK    5  A    between atoms: C_13  and  N_14
REMARK    6  A    between atoms: C_15  and  C_17
REMARK    7  A    between atoms: C_21  and  C_22
REMARK                            x       y       z     vdW  Elec       q    Type
REMARK                         _______ _______ _______ _____ _____    ______ ____
ROOT
ATOM      1  C   UNL     1       4.860   4.856  17.246  0.00  0.00    +0.000 A 
ATOM      2  C   UNL     1       6.103   5.326  17.713  0.00  0.00    +0.000 A 
ATOM      3  C   UNL     1       7.237   5.287  16.915  0.00  0.00    +0.000 A 
ATOM      4  C   UNL     1       7.168   4.779  15.624  0.00  0.00    +0.000 A 
ATOM      5  C   UNL     1       5.952   4.314  15.122  0.00  0.00    +0.000 A 
ATOM      6  C   UNL     1       4.818   4.384  15.928  0.00  0.00    +0.000 A 
ENDROOT
BRANCH   1   7
ATOM      7  C   UNL     1       3.542   4.823  18.146  0.00  0.00    +0.000 C 
ATOM      8  C   UNL     1       2.350   5.724  17.701  0.00  0.00    +0.000 C 
ATOM      9  O   UNL     1       1.462   4.592  17.585  0.00  0.00    +0.000 OA
ATOM     10  C   UNL     1       2.540   3.674  17.844  0.00  0.00    +0.000 C 
BRANCH   7  11
ATOM     11  C   UNL     1       3.914   4.916  19.638  0.00  0.00    +0.000 C 
BRANCH  11  17
ATOM     12  C   UNL     1       4.544   1.891  20.313  0.00  0.00    +0.000 C 
ATOM     13  N   UNL     1       3.419   2.664  20.759  0.00  0.00    +0.000 N 
ATOM     14  C   UNL     1       2.404   2.195  21.543  0.00  0.00    +0.000 A 
ATOM     15  N   UNL     1       1.569   3.170  21.798  0.00  0.00    +0.000 NA
ATOM     16  N   UNL     1       2.015   4.289  21.146  0.00  0.00    +0.000 NA
ATOM     17  C   UNL     1       3.129   3.985  20.506  0.00  0.00    +0.000 A 
ENDBRANCH  11  17
ENDBRANCH   7  11
ENDBRANCH   1   7
BRANCH   5  18
ATOM     18  N   UNL     1       5.773   3.737  13.860  0.00  0.00    +0.000 N 
ATOM     19  C   UNL     1       6.529   4.014  12.745  0.00  0.00    +0.000 C 
ATOM     20  O   UNL     1       7.389   4.881  12.672  0.00  0.00    +0.000 OA
ATOM     21  H   UNL     1       5.077   2.999  13.785  0.00  0.00    +0.000 HD
BRANCH  19  22
ATOM     22  C   UNL     1       6.246   3.080  11.638  0.00  0.00    +0.000 C 
ATOM     23  C   UNL     1       6.769   1.857  11.642  0.00  0.00    +0.000 C 
ATOM     24  C   UNL     1       6.634   0.459  11.307  0.00  0.00    +0.000 C 
ATOM     25  C   UNL     1       5.491   1.354  11.085  0.00  0.00    +0.000 C 
ATOM     26  C   UNL     1       5.001   2.599  11.185  0.00  0.00    +0.000 C 
BRANCH  26  27
ATOM     27  C   UNL     1       3.666   3.266  10.953  0.00  0.00    +0.000 C 
ATOM     28  F   UNL     1       3.745   4.618  10.947  0.00  0.00    +0.000 F 
ATOM     29  F   UNL     1       3.113   2.884   9.773  0.00  0.00    +0.000 F 
ATOM     30  F   UNL     1       2.763   2.906  11.902  0.00  0.00    +0.000 F 
ENDBRANCH  26  27
ENDBRANCH  19  22
ENDBRANCH   5  18
TORSDOF 6
ENDMDL
MODEL 7
REMARK VINA RESULT:      -7.9      4.719      6.968
REMARK  Name = 
REMARK  7 active torsions:
REMARK  status: ('A' for Active; 'I' for Inactive)
REMARK    1  A    between atoms: C_1  and  N_2
REMARK    2  A    between atoms: C_6  and  C_7
REMARK    3  A    between atoms: C_7  and  C_8
REMARK    4  A    between atoms: C_8  and  C_9
REMARK    5  A    between atoms: C_13  and  N_14
REMARK    6  A    between atoms: C_15  and  C_17
REMARK    7  A    between atoms: C_21  and  C_22
REMARK                            x       y       z     vdW  Elec       q    Type
REMARK                         _______ _______ _______ _____ _____    ______ ____
ROOT
ATOM      1  C   UNL     1       1.655   6.917  20.418  0.00  0.00    +0.000 A 
ATOM      2  C   UNL     1       0.958   5.750  20.790  0.00  0.00    +0.000 A 
ATOM      3  C   UNL     1       1.412   4.490  20.430  0.00  0.00    +0.000 A 
ATOM      4  C   UNL     1       2.578   4.352  19.689  0.00  0.00    +0.000 A 
ATOM      5  C   UNL     1       3.303   5.483  19.311  0.00  0.00    +0.000 A 
ATOM      6  C   UNL     1       2.846   6.739  19.703  0.00  0.00    +0.000 A 
ENDROOT
BRANCH   1   7
ATOM      7  C   UNL     1       1.140   8.390  20.754  0.00  0.00    +0.000 C 
ATOM      8  C   UNL     1      -0.235   8.518  21.478  0.00  0.00    +0.000 C 
ATOM      9  O   UNL     1       0.352   9.217  22.595  0.00  0.00    +0.000 OA
ATOM     10  C   UNL     1       1.678   9.015  22.072  0.00  0.00    +0.000 C 
BRANCH   7  11
ATOM     11  C   UNL     1       1.328   9.311  19.535  0.00  0.00    +0.000 C 
BRANCH  11  17
ATOM     12  C   UNL     1       1.083  12.254  20.666  0.00  0.00    +0.000 C 
ATOM     13  N   UNL     1       0.119  11.547  19.870  0.00  0.00    +0.000 N 
ATOM     14  C   UNL     1      -1.097  12.037  19.489  0.00  0.00    +0.000 A 
ATOM     15  N   UNL     1      -1.702  11.153  18.736  0.00  0.00    +0.000 NA
ATOM     16  N   UNL     1      -0.895  10.051  18.647  0.00  0.00    +0.000 NA
ATOM     17  C   UNL     1       0.205  10.279  19.341  0.00  0.00    +0.000 A 
ENDBRANCH  11  17
ENDBRANCH   7  11
ENDBRANCH   1   7
BRANCH   5  18
ATOM     18  N   UNL     1       4.460   5.469  18.525  0.00  0.00    +0.000 N 
ATOM     19  C   UNL     1       5.457   4.523  18.594  0.00  0.00    +0.000 C 
ATOM     20  O   UNL     1       5.525   3.627  19.424  0.00  0.00    +0.000 OA
ATOM     21  H   UNL     1       4.530   6.173  17.793  0.00  0.00    +0.000 HD
BRANCH  19  22
ATOM     22  C   UNL     1       6.421   4.653  17.484  0.00  0.00    +0.000 C 
ATOM     23  C   UNL     1       6.150   4.123  16.295  0.00  0.00    +0.000 C 
ATOM     24  C   UNL     1       6.265   4.199  14.858  0.00  0.00    +0.000 C 
ATOM     25  C   UNL     1       6.771   5.313  15.669  0.00  0.00    +0.000 C 
ATOM     26  C   UNL     1       6.940   5.825  16.898  0.00  0.00    +0.000 C 
BRANCH  26  27
ATOM     27  C   UNL     1       7.442   7.126  17.476  0.00  0.00    +0.000 C 
ATOM     28  F   UNL     1       8.331   7.754  16.670  0.00  0.00    +0.000 F 
ATOM     29  F   UNL     1       6.426   7.994  17.716  0.00  0.00    +0.000 F 
ATOM     30  F   UNL     1       8.038   6.934  18.682  0.00  0.00    +0.000 F 
ENDBRANCH  26  27
ENDBRANCH  19  22
ENDBRANCH   5  18
TORSDOF 6
ENDMDL
MODEL 8
REMARK VINA RESULT:      -7.9      5.857      8.837
REMARK  Name = 
REMARK  7 active torsions:
REMARK  status: ('A' for Active; 'I' for Inactive)
REMARK    1  A    between atoms: C_1  and  N_2
REMARK    2  A    between atoms: C_6  and  C_7
REMARK    3  A    between atoms: C_7  and  C_8
REMARK    4  A    between atoms: C_8  and  C_9
REMARK    5  A    between atoms: C_13  and  N_14
REMARK    6  A    between atoms: C_15  and  C_17
REMARK    7  A    between atoms: C_21  and  C_22
REMARK                            x       y       z     vdW  Elec       q    Type
REMARK                         _______ _______ _______ _____ _____    ______ ____
ROOT
ATOM      1  C   UNL     1      -0.416  10.212  20.399  0.00  0.00    +0.000 A 
ATOM      2  C   UNL     1      -0.487  10.320  21.802  0.00  0.00    +0.000 A 
ATOM      3  C   UNL     1       0.354   9.587  22.627  0.00  0.00    +0.000 A 
ATOM      4  C   UNL     1       1.294   8.724  22.079  0.00  0.00    +0.000 A 
ATOM      5  C   UNL     1       1.402   8.599  20.693  0.00  0.00    +0.000 A 
ATOM      6  C   UNL     1       0.567   9.361  19.880  0.00  0.00    +0.000 A 
ENDROOT
BRANCH   1   7
ATOM      7  C   UNL     1      -1.402  10.986  19.411  0.00  0.00    +0.000 C 
ATOM      8  C   UNL     1      -2.014  12.328  19.918  0.00  0.00    +0.000 C 
ATOM      9  O   UNL     1      -1.447  13.070  18.817  0.00  0.00    +0.000 OA
ATOM     10  C   UNL     1      -0.725  11.911  18.360  0.00  0.00    +0.000 C 
BRANCH   7  11
ATOM     11  C   UNL     1      -2.407  10.003  18.783  0.00  0.00    +0.000 C 
BRANCH  11  17
ATOM     12  C   UNL     1      -4.779  11.808  17.725  0.00  0.00    +0.000 C 
ATOM     13  N   UNL     1      -3.809  11.100  16.937  0.00  0.00    +0.000 N 
ATOM     14  C   UNL     1      -3.773  11.072  15.573  0.00  0.00    +0.000 A 
ATOM     15  N   UNL     1      -2.739  10.373  15.182  0.00  0.00    +0.000 NA
ATOM     16  N   UNL     1      -2.101   9.902  16.298  0.00  0.00    +0.000 NA
ATOM     17  C   UNL     1      -2.752  10.329  17.364  0.00  0.00    +0.000 A 
ENDBRANCH  11  17
ENDBRANCH   7  11
ENDBRANCH   1   7
BRANCH   5  18
ATOM     18  N   UNL     1       2.275   7.727  20.032  0.00  0.00    +0.000 N 
ATOM     19  C   UNL     1       2.185   6.355  20.039  0.00  0.00    +0.000 C 
ATOM     20  O   UNL     1       1.399   5.702  20.713  0.00  0.00    +0.000 OA
ATOM     21  H   UNL     1       2.985   8.149  19.438  0.00  0.00    +0.000 HD
BRANCH  19  22
ATOM     22  C   UNL     1       3.104   5.734  19.066  0.00  0.00    +0.000 C 
ATOM     23  C   UNL     1       4.383   5.548  19.375  0.00  0.00    +0.000 C 
ATOM     24  C   UNL     1       5.576   4.743  19.252  0.00  0.00    +0.000 C 
ATOM     25  C   UNL     1       4.325   4.252  18.660  0.00  0.00    +0.000 C 
ATOM     26  C   UNL     1       3.017   4.468  18.453  0.00  0.00    +0.000 C 
BRANCH  26  27
ATOM     27  C   UNL     1       1.868   3.696  17.850  0.00  0.00    +0.000 C 
ATOM     28  F   UNL     1       1.179   2.973  18.764  0.00  0.00    +0.000 F 
ATOM     29  F   UNL     1       0.983   4.517  17.228  0.00  0.00    +0.000 F 
ATOM     30  F   UNL     1       2.299   2.842  16.885  0.00  0.00    +0.000 F 
ENDBRANCH  26  27
ENDBRANCH  19  22
ENDBRANCH   5  18
TORSDOF 6
ENDMDL
MODEL 9
REMARK VINA RESULT:      -7.9      6.280      8.487
REMARK  Name = 
REMARK  7 active torsions:
REMARK  status: ('A' for Active; 'I' for Inactive)
REMARK    1  A    between atoms: C_1  and  N_2
REMARK    2  A    between atoms: C_6  and  C_7
REMARK    3  A    between atoms: C_7  and  C_8
REMARK    4  A    between atoms: C_8  and  C_9
REMARK    5  A    between atoms: C_13  and  N_14
REMARK    6  A    between atoms: C_15  and  C_17
REMARK    7  A    between atoms: C_21  and  C_22
REMARK                            x       y       z     vdW  Elec       q    Type
REMARK                         _______ _______ _______ _____ _____    ______ ____
ROOT
ATOM      1  C   UNL     1       6.724   5.681  17.267  0.00  0.00    +0.000 A 
ATOM      2  C   UNL     1       7.302   5.017  18.366  0.00  0.00    +0.000 A 
ATOM      3  C   UNL     1       8.127   5.681  19.262  0.00  0.00    +0.000 A 
ATOM      4  C   UNL     1       8.401   7.032  19.091  0.00  0.00    +0.000 A 
ATOM      5  C   UNL     1       7.838   7.728  18.020  0.00  0.00    +0.000 A 
ATOM      6  C   UNL     1       6.992   7.050  17.146  0.00  0.00    +0.000 A 
ENDROOT
BRANCH   1   7
ATOM      7  C   UNL     1       5.820   4.947  16.176  0.00  0.00    +0.000 C 
ATOM      8  C   UNL     1       5.410   5.769  14.916  0.00  0.00    +0.000 C 
ATOM      9  O   UNL     1       6.035   4.823  14.023  0.00  0.00    +0.000 OA
ATOM     10  C   UNL     1       6.580   4.082  15.131  0.00  0.00    +0.000 C 
BRANCH   7  11
ATOM     11  C   UNL     1       4.672   4.184  16.863  0.00  0.00    +0.000 C 
BRANCH  11  17
ATOM     12  C   UNL     1       3.923   3.379  19.828  0.00  0.00    +0.000 C 
ATOM     13  N   UNL     1       3.607   4.608  19.156  0.00  0.00    +0.000 N 
ATOM     14  C   UNL     1       2.892   5.638  19.696  0.00  0.00    +0.000 A 
ATOM     15  N   UNL     1       2.827   6.618  18.832  0.00  0.00    +0.000 NA
ATOM     16  N   UNL     1       3.474   6.221  17.693  0.00  0.00    +0.000 NA
ATOM     17  C   UNL     1       3.939   5.000  17.879  0.00  0.00    +0.000 A 
ENDBRANCH  11  17
ENDBRANCH   7  11
ENDBRANCH   1   7
BRANCH   5  18
ATOM     18  N   UNL     1       8.081   9.073  17.720  0.00  0.00    +0.000 N 
ATOM     19  C   UNL     1       8.804   9.944  18.502  0.00  0.00    +0.000 C 
ATOM     20  O   UNL     1       9.240   9.696  19.618  0.00  0.00    +0.000 OA
ATOM     21  H   UNL     1       7.761   9.409  16.815  0.00  0.00    +0.000 HD
BRANCH  19  22
ATOM     22  C   UNL     1       9.077  11.216  17.807  0.00  0.00    +0.000 C 
ATOM     23  C   UNL     1       8.089  12.070  17.558  0.00  0.00    +0.000 C 
ATOM     24  C   UNL     1       7.649  13.439  17.423  0.00  0.00    +0.000 C 
ATOM     25  C   UNL     1       9.023  13.178  17.870  0.00  0.00    +0.000 C 
ATOM     26  C   UNL     1       9.949  12.258  18.183  0.00  0.00    +0.000 C 
BRANCH  26  27
ATOM     27  C   UNL     1      11.351  12.272  18.744  0.00  0.00    +0.000 C 
ATOM     28  F   UNL     1      11.383  12.462  20.084  0.00  0.00    +0.000 F 
ATOM     29  F   UNL     1      12.008  11.113  18.481  0.00  0.00    +0.000 F 
ATOM     30  F   UNL     1      12.104  13.246  18.168  0.00  0.00    +0.000 F 
ENDBRANCH  26  27
ENDBRANCH  19  22
ENDBRANCH   5  18
TORSDOF 6
ENDMDL
