MODEL 1
REMARK VINA RESULT:      -8.9      0.000      0.000
REMARK  Name = 
REMARK  5 active torsions:
REMARK  status: ('A' for Active; 'I' for Inactive)
REMARK    1  A    between atoms: C_1  and  S_2
REMARK    2  A    between atoms: S_2  and  C_5
REMARK    3  A    between atoms: C_7  and  C_8
REMARK    4  A    between atoms: C_14  and  C_15
REMARK    5  A    between atoms: C_15  and  C_16
REMARK                            x       y       z     vdW  Elec       q    Type
REMARK                         _______ _______ _______ _____ _____    ______ ____
ROOT
ATOM      1  C   UNL     1       4.487   3.140  19.500  0.00  0.00    +0.000 C 
ATOM      2  O   UNL     1       5.100   2.206  20.022  0.00  0.00    +0.000 OA
ATOM      3  N   UNL     1       3.189   3.450  19.895  0.00  0.00    +0.000 N 
ATOM      4  C   UNL     1       2.487   2.611  20.847  0.00  0.00    +0.000 C 
ATOM      5  C   UNL     1       1.027   2.843  20.510  0.00  0.00    +0.000 C 
ATOM      6  C   UNL     1       0.984   4.317  20.126  0.00  0.00    +0.000 C 
ATOM      7  C   UNL     1       2.381   4.625  19.547  0.00  0.00    +0.000 C 
ENDROOT
BRANCH   1  10
ATOM      8  C   UNL     1       5.555   4.808  16.497  0.00  0.00    +0.000 A 
ATOM      9  N   UNL     1       4.759   3.944  17.108  0.00  0.00    +0.000 NA
ATOM     10  C   UNL     1       5.114   3.966  18.451  0.00  0.00    +0.000 A 
ATOM     11  C   UNL     1       6.151   4.866  18.634  0.00  0.00    +0.000 A 
ATOM     12  C   UNL     1       6.934   5.322  19.736  0.00  0.00    +0.000 A 
ATOM     13  C   UNL     1       7.830   6.309  19.551  0.00  0.00    +0.000 A 
ATOM     14  C   UNL     1       8.026   6.924  18.251  0.00  0.00    +0.000 A 
ATOM     15  C   UNL     1       7.317   6.472  17.202  0.00  0.00    +0.000 A 
ATOM     16  N   UNL     1       6.391   5.442  17.389  0.00  0.00    +0.000 N 
BRANCH   8  18
ATOM     17  C   UNL     1       7.250   4.872  14.272  0.00  0.00    +0.000 C 
ATOM     18  S   UNL     1       5.568   5.127  14.765  0.00  0.00    +0.000 S 
ATOM     19  O   UNL     1       5.248   6.532  14.626  0.00  0.00    +0.000 OA
ATOM     20  O   UNL     1       4.739   4.092  14.177  0.00  0.00    +0.000 OA
ENDBRANCH   8  18
ENDBRANCH   1  10
BRANCH   7  21
ATOM     21  C   UNL     1       2.964   5.924  20.149  0.00  0.00    +0.000 C 
BRANCH  21  22
ATOM     22  C   UNL     1       2.344   7.191  19.608  0.00  0.00    +0.000 A 
ATOM     23  C   UNL     1       2.540   7.552  18.272  0.00  0.00    +0.000 A 
ATOM     24  C   UNL     1       1.987   8.719  17.742  0.00  0.00    +0.000 A 
ATOM     25  C   UNL     1       1.233   9.551  18.562  0.00  0.00    +0.000 A 
ATOM     26  C   UNL     1       1.043   9.205  19.895  0.00  0.00    +0.000 A 
ATOM     27  F   UNL     1       0.323  10.011  20.687  0.00  0.00    +0.000 F 
ATOM     28  C   UNL     1       1.590   8.040  20.425  0.00  0.00    +0.000 A 
ENDBRANCH  21  22
ENDBRANCH   7  21
TORSDOF 4
ENDMDL
MODEL 2
REMARK VINA RESULT:      -8.6      0.761      1.188
REMARK  Name = 
REMARK  5 active torsions:
REMARK  status: ('A' for Active; 'I' for Inactive)
REMARK    1  A    between atoms: C_1  and  S_2
REMARK    2  A    between atoms: S_2  and  C_5
REMARK    3  A    between atoms: C_7  and  C_8
REMARK    4  A    between atoms: C_14  and  C_15
REMARK    5  A    between atoms: C_15  and  C_16
REMARK                            x       y       z     vdW  Elec       q    Type
REMARK                         _______ _______ _______ _____ _____    ______ ____
ROOT
ATOM      1  C   UNL     1       4.413   3.109  19.426  0.00  0.00    +0.000 C 
ATOM      2  O   UNL     1       4.992   2.134  19.909  0.00  0.00    +0.000 OA
ATOM      3  N   UNL     1       3.131   3.457  19.843  0.00  0.00    +0.000 N 
ATOM      4  C   UNL     1       2.404   2.613  20.772  0.00  0.00    +0.000 C 
ATOM      5  C   UNL     1       0.952   2.915  20.456  0.00  0.00    +0.000 C 
ATOM      6  C   UNL     1       0.965   4.402  20.124  0.00  0.00    +0.000 C 
ATOM      7  C   UNL     1       2.369   4.674  19.544  0.00  0.00    +0.000 C 
ENDROOT
BRANCH   1  10
ATOM      8  C   UNL     1       5.541   4.818  16.468  0.00  0.00    +0.000 A 
ATOM      9  N   UNL     1       4.726   3.953  17.053  0.00  0.00    +0.000 NA
ATOM     10  C   UNL     1       5.065   3.945  18.401  0.00  0.00    +0.000 A 
ATOM     11  C   UNL     1       6.111   4.828  18.613  0.00  0.00    +0.000 A 
ATOM     12  C   UNL     1       6.888   5.251  19.733  0.00  0.00    +0.000 A 
ATOM     13  C   UNL     1       7.799   6.229  19.578  0.00  0.00    +0.000 A 
ATOM     14  C   UNL     1       8.020   6.865  18.292  0.00  0.00    +0.000 A 
ATOM     15  C   UNL     1       7.318   6.443  17.226  0.00  0.00    +0.000 A 
ATOM     16  N   UNL     1       6.375   5.423  17.382  0.00  0.00    +0.000 N 
BRANCH   8  18
ATOM     17  C   UNL     1       7.269   4.922  14.270  0.00  0.00    +0.000 C 
ATOM     18  S   UNL     1       5.581   5.169  14.743  0.00  0.00    +0.000 S 
ATOM     19  O   UNL     1       5.264   6.577  14.626  0.00  0.00    +0.000 OA
ATOM     20  O   UNL     1       4.760   4.146  14.124  0.00  0.00    +0.000 OA
ENDBRANCH   8  18
ENDBRANCH   1  10
BRANCH   7  21
ATOM     21  C   UNL     1       3.007   5.927  20.185  0.00  0.00    +0.000 C 
BRANCH  21  22
ATOM     22  C   UNL     1       2.259   7.211  19.916  0.00  0.00    +0.000 A 
ATOM     23  C   UNL     1       1.457   7.776  20.912  0.00  0.00    +0.000 A 
ATOM     24  C   UNL     1       0.747   8.959  20.695  0.00  0.00    +0.000 A 
ATOM     25  C   UNL     1       0.828   9.586  19.456  0.00  0.00    +0.000 A 
ATOM     26  C   UNL     1       1.614   9.024  18.457  0.00  0.00    +0.000 A 
ATOM     27  F   UNL     1       1.685   9.624  17.262  0.00  0.00    +0.000 F 
ATOM     28  C   UNL     1       2.326   7.848  18.673  0.00  0.00    +0.000 A 
ENDBRANCH  21  22
ENDBRANCH   7  21
TORSDOF 4
ENDMDL
MODEL 3
REMARK VINA RESULT:      -7.2      1.719      2.725
REMARK  Name = 
REMARK  5 active torsions:
REMARK  status: ('A' for Active; 'I' for Inactive)
REMARK    1  A    between atoms: C_1  and  S_2
REMARK    2  A    between atoms: S_2  and  C_5
REMARK    3  A    between atoms: C_7  and  C_8
REMARK    4  A    between atoms: C_14  and  C_15
REMARK    5  A    between atoms: C_15  and  C_16
REMARK                            x       y       z     vdW  Elec       q    Type
REMARK                         _______ _______ _______ _____ _____    ______ ____
ROOT
ATOM      1  C   UNL     1       4.554   3.257  19.706  0.00  0.00    +0.000 C 
ATOM      2  O   UNL     1       5.166   2.344  20.263  0.00  0.00    +0.000 OA
ATOM      3  N   UNL     1       3.216   3.504  20.003  0.00  0.00    +0.000 N 
ATOM      4  C   UNL     1       2.482   2.622  20.888  0.00  0.00    +0.000 C 
ATOM      5  C   UNL     1       1.043   2.794  20.441  0.00  0.00    +0.000 C 
ATOM      6  C   UNL     1       0.964   4.270  20.071  0.00  0.00    +0.000 C 
ATOM      7  C   UNL     1       2.386   4.647  19.606  0.00  0.00    +0.000 C 
ENDROOT
BRANCH   1  10
ATOM      8  C   UNL     1       6.482   5.686  17.882  0.00  0.00    +0.000 A 
ATOM      9  N   UNL     1       6.121   5.137  19.032  0.00  0.00    +0.000 NA
ATOM     10  C   UNL     1       5.221   4.125  18.718  0.00  0.00    +0.000 A 
ATOM     11  C   UNL     1       5.047   4.080  17.344  0.00  0.00    +0.000 A 
ATOM     12  C   UNL     1       4.278   3.299  16.431  0.00  0.00    +0.000 A 
ATOM     13  C   UNL     1       4.433   3.483  15.106  0.00  0.00    +0.000 A 
ATOM     14  C   UNL     1       5.363   4.464  14.578  0.00  0.00    +0.000 A 
ATOM     15  C   UNL     1       6.061   5.228  15.436  0.00  0.00    +0.000 A 
ATOM     16  N   UNL     1       5.898   5.045  16.812  0.00  0.00    +0.000 N 
BRANCH   8  18
ATOM     17  C   UNL     1       6.507   8.479  17.739  0.00  0.00    +0.000 C 
ATOM     18  S   UNL     1       7.568   7.062  17.711  0.00  0.00    +0.000 S 
ATOM     19  O   UNL     1       8.147   6.938  16.389  0.00  0.00    +0.000 OA
ATOM     20  O   UNL     1       8.386   7.057  18.908  0.00  0.00    +0.000 OA
ENDBRANCH   8  18
ENDBRANCH   1  10
BRANCH   7  21
ATOM     21  C   UNL     1       2.861   5.962  20.265  0.00  0.00    +0.000 C 
BRANCH  21  22
ATOM     22  C   UNL     1       2.341   7.214  19.599  0.00  0.00    +0.000 A 
ATOM     23  C   UNL     1       2.672   7.489  18.268  0.00  0.00    +0.000 A 
ATOM     24  C   UNL     1       2.213   8.640  17.625  0.00  0.00    +0.000 A 
ATOM     25  C   UNL     1       1.418   9.542  18.323  0.00  0.00    +0.000 A 
ATOM     26  C   UNL     1       1.095   9.282  19.650  0.00  0.00    +0.000 A 
ATOM     27  F   UNL     1       0.336  10.155  20.325  0.00  0.00    +0.000 F 
ATOM     28  C   UNL     1       1.548   8.133  20.293  0.00  0.00    +0.000 A 
ENDBRANCH  21  22
ENDBRANCH   7  21
TORSDOF 4
ENDMDL
MODEL 4
REMARK VINA RESULT:      -7.0      9.558     12.530
REMARK  Name = 
REMARK  5 active torsions:
REMARK  status: ('A' for Active; 'I' for Inactive)
REMARK    1  A    between atoms: C_1  and  S_2
REMARK    2  A    between atoms: S_2  and  C_5
REMARK    3  A    between atoms: C_7  and  C_8
REMARK    4  A    between atoms: C_14  and  C_15
REMARK    5  A    between atoms: C_15  and  C_16
REMARK                            x       y       z     vdW  Elec       q    Type
REMARK                         _______ _______ _______ _____ _____    ______ ____
ROOT
ATOM      1  C   UNL     1      -5.204  12.148  17.421  0.00  0.00    +0.000 C 
ATOM      2  O   UNL     1      -5.791  12.621  16.446  0.00  0.00    +0.000 OA
ATOM      3  N   UNL     1      -4.014  11.443  17.265  0.00  0.00    +0.000 N 
ATOM      4  C   UNL     1      -3.499  11.150  15.942  0.00  0.00    +0.000 C 
ATOM      5  C   UNL     1      -2.671   9.898  16.157  0.00  0.00    +0.000 C 
ATOM      6  C   UNL     1      -2.059  10.113  17.536  0.00  0.00    +0.000 C 
ATOM      7  C   UNL     1      -3.077  10.987  18.298  0.00  0.00    +0.000 C 
ENDROOT
BRANCH   1  10
ATOM      8  C   UNL     1      -6.217  13.252  20.692  0.00  0.00    +0.000 A 
ATOM      9  N   UNL     1      -5.634  13.496  19.528  0.00  0.00    +0.000 NA
ATOM     10  C   UNL     1      -5.736  12.326  18.785  0.00  0.00    +0.000 A 
ATOM     11  C   UNL     1      -6.395  11.366  19.535  0.00  0.00    +0.000 A 
ATOM     12  C   UNL     1      -6.790  10.008  19.346  0.00  0.00    +0.000 A 
ATOM     13  C   UNL     1      -7.522   9.392  20.294  0.00  0.00    +0.000 A 
ATOM     14  C   UNL     1      -7.917  10.073  21.513  0.00  0.00    +0.000 A 
ATOM     15  C   UNL     1      -7.513  11.340  21.711  0.00  0.00    +0.000 A 
ATOM     16  N   UNL     1      -6.749  11.982  20.733  0.00  0.00    +0.000 N 
BRANCH   8  18
ATOM     17  C   UNL     1      -5.311  15.757  21.544  0.00  0.00    +0.000 C 
ATOM     18  S   UNL     1      -6.316  14.385  22.037  0.00  0.00    +0.000 S 
ATOM     19  O   UNL     1      -5.680  13.718  23.154  0.00  0.00    +0.000 OA
ATOM     20  O   UNL     1      -7.703  14.805  22.084  0.00  0.00    +0.000 OA
ENDBRANCH   8  18
ENDBRANCH   1  10
BRANCH   7  21
ATOM     21  C   UNL     1      -2.379  12.171  19.007  0.00  0.00    +0.000 C 
BRANCH  21  22
ATOM     22  C   UNL     1      -1.961  11.883  20.430  0.00  0.00    +0.000 A 
ATOM     23  C   UNL     1      -0.781  11.179  20.685  0.00  0.00    +0.000 A 
ATOM     24  C   UNL     1      -0.369  10.891  21.987  0.00  0.00    +0.000 A 
ATOM     25  C   UNL     1      -1.154  11.302  23.059  0.00  0.00    +0.000 A 
ATOM     26  C   UNL     1      -2.336  11.992  22.813  0.00  0.00    +0.000 A 
ATOM     27  F   UNL     1      -3.096  12.381  23.844  0.00  0.00    +0.000 F 
ATOM     28  C   UNL     1      -2.746  12.284  21.515  0.00  0.00    +0.000 A 
ENDBRANCH  21  22
ENDBRANCH   7  21
TORSDOF 4
ENDMDL
MODEL 5
REMARK VINA RESULT:      -6.9      1.876      2.975
REMARK  Name = 
REMARK  5 active torsions:
REMARK  status: ('A' for Active; 'I' for Inactive)
REMARK    1  A    between atoms: C_1  and  S_2
REMARK    2  A    between atoms: S_2  and  C_5
REMARK    3  A    between atoms: C_7  and  C_8
REMARK    4  A    between atoms: C_14  and  C_15
REMARK    5  A    between atoms: C_15  and  C_16
REMARK                            x       y       z     vdW  Elec       q    Type
REMARK                         _______ _______ _______ _____ _____    ______ ____
ROOT
ATOM      1  C   UNL     1       4.530   3.254  19.581  0.00  0.00    +0.000 C 
ATOM      2  O   UNL     1       5.110   2.291  20.085  0.00  0.00    +0.000 OA
ATOM      3  N   UNL     1       3.212   3.551  19.916  0.00  0.00    +0.000 N 
ATOM      4  C   UNL     1       2.455   2.666  20.780  0.00  0.00    +0.000 C 
ATOM      5  C   UNL     1       1.017   2.925  20.372  0.00  0.00    +0.000 C 
ATOM      6  C   UNL     1       1.001   4.418  20.066  0.00  0.00    +0.000 C 
ATOM      7  C   UNL     1       2.430   4.747  19.586  0.00  0.00    +0.000 C 
ENDROOT
BRANCH   1  10
ATOM      8  C   UNL     1       6.486   5.710  17.823  0.00  0.00    +0.000 A 
ATOM      9  N   UNL     1       6.094   5.156  18.960  0.00  0.00    +0.000 NA
ATOM     10  C   UNL     1       5.219   4.132  18.615  0.00  0.00    +0.000 A 
ATOM     11  C   UNL     1       5.091   4.086  17.237  0.00  0.00    +0.000 A 
ATOM     12  C   UNL     1       4.363   3.296  16.298  0.00  0.00    +0.000 A 
ATOM     13  C   UNL     1       4.559   3.483  14.979  0.00  0.00    +0.000 A 
ATOM     14  C   UNL     1       5.493   4.477  14.483  0.00  0.00    +0.000 A 
ATOM     15  C   UNL     1       6.152   5.249  15.364  0.00  0.00    +0.000 A 
ATOM     16  N   UNL     1       5.947   5.063  16.733  0.00  0.00    +0.000 N 
BRANCH   8  18
ATOM     17  C   UNL     1       6.478   8.503  17.672  0.00  0.00    +0.000 C 
ATOM     18  S   UNL     1       7.559   7.101  17.688  0.00  0.00    +0.000 S 
ATOM     19  O   UNL     1       8.188   6.981  16.390  0.00  0.00    +0.000 OA
ATOM     20  O   UNL     1       8.331   7.110  18.915  0.00  0.00    +0.000 OA
ENDBRANCH   8  18
ENDBRANCH   1  10
BRANCH   7  21
ATOM     21  C   UNL     1       2.980   6.009  20.290  0.00  0.00    +0.000 C 
BRANCH  21  22
ATOM     22  C   UNL     1       2.234   7.280  19.958  0.00  0.00    +0.000 A 
ATOM     23  C   UNL     1       1.432   7.894  20.925  0.00  0.00    +0.000 A 
ATOM     24  C   UNL     1       0.724   9.066  20.649  0.00  0.00    +0.000 A 
ATOM     25  C   UNL     1       0.807   9.632  19.382  0.00  0.00    +0.000 A 
ATOM     26  C   UNL     1       1.594   9.021  18.412  0.00  0.00    +0.000 A 
ATOM     27  F   UNL     1       1.667   9.562  17.190  0.00  0.00    +0.000 F 
ATOM     28  C   UNL     1       2.303   7.855  18.686  0.00  0.00    +0.000 A 
ENDBRANCH  21  22
ENDBRANCH   7  21
TORSDOF 4
ENDMDL
MODEL 6
REMARK VINA RESULT:      -6.8      7.429     10.173
REMARK  Name = 
REMARK  5 active torsions:
REMARK  status: ('A' for Active; 'I' for Inactive)
REMARK    1  A    between atoms: C_1  and  S_2
REMARK    2  A    between atoms: S_2  and  C_5
REMARK    3  A    between atoms: C_7  and  C_8
REMARK    4  A    between atoms: C_14  and  C_15
REMARK    5  A    between atoms: C_15  and  C_16
REMARK                            x       y       z     vdW  Elec       q    Type
REMARK                         _______ _______ _______ _____ _____    ______ ____
ROOT
ATOM      1  C   UNL     1      -1.964  13.725  23.424  0.00  0.00    +0.000 C 
ATOM      2  O   UNL     1      -1.569  14.506  24.292  0.00  0.00    +0.000 OA
ATOM      3  N   UNL     1      -3.317  13.421  23.299  0.00  0.00    +0.000 N 
ATOM      4  C   UNL     1      -4.278  13.930  24.258  0.00  0.00    +0.000 C 
ATOM      5  C   UNL     1      -5.401  12.911  24.202  0.00  0.00    +0.000 C 
ATOM      6  C   UNL     1      -5.442  12.514  22.731  0.00  0.00    +0.000 C 
ATOM      7  C   UNL     1      -3.995  12.688  22.225  0.00  0.00    +0.000 C 
ENDROOT
BRANCH   1  10
ATOM      8  C   UNL     1       0.402  12.863  20.854  0.00  0.00    +0.000 A 
ATOM      9  N   UNL     1      -0.329  13.771  21.483  0.00  0.00    +0.000 NA
ATOM     10  C   UNL     1      -1.017  13.096  22.484  0.00  0.00    +0.000 A 
ATOM     11  C   UNL     1      -0.684  11.752  22.439  0.00  0.00    +0.000 A 
ATOM     12  C   UNL     1      -1.045  10.579  23.167  0.00  0.00    +0.000 A 
ATOM     13  C   UNL     1      -0.431   9.413  22.894  0.00  0.00    +0.000 A 
ATOM     14  C   UNL     1       0.590   9.313  21.867  0.00  0.00    +0.000 A 
ATOM     15  C   UNL     1       0.905  10.408  21.153  0.00  0.00    +0.000 A 
ATOM     16  N   UNL     1       0.266  11.619  21.430  0.00  0.00    +0.000 N 
BRANCH   8  18
ATOM     17  C   UNL     1       0.959  14.793  18.907  0.00  0.00    +0.000 C 
ATOM     18  S   UNL     1       1.426  13.175  19.455  0.00  0.00    +0.000 S 
ATOM     19  O   UNL     1       1.022  12.208  18.455  0.00  0.00    +0.000 OA
ATOM     20  O   UNL     1       2.779  13.221  19.973  0.00  0.00    +0.000 OA
ENDBRANCH   8  18
ENDBRANCH   1  10
BRANCH   7  21
ATOM     21  C   UNL     1      -3.959  13.461  20.886  0.00  0.00    +0.000 C 
BRANCH  21  22
ATOM     22  C   UNL     1      -3.929  12.579  19.661  0.00  0.00    +0.000 A 
ATOM     23  C   UNL     1      -5.111  12.303  18.966  0.00  0.00    +0.000 A 
ATOM     24  C   UNL     1      -5.119  11.487  17.833  0.00  0.00    +0.000 A 
ATOM     25  C   UNL     1      -3.928  10.923  17.389  0.00  0.00    +0.000 A 
ATOM     26  C   UNL     1      -2.750  11.183  18.081  0.00  0.00    +0.000 A 
ATOM     27  F   UNL     1      -1.605  10.633  17.658  0.00  0.00    +0.000 F 
ATOM     28  C   UNL     1      -2.739  11.999  19.208  0.00  0.00    +0.000 A 
ENDBRANCH  21  22
ENDBRANCH   7  21
TORSDOF 4
ENDMDL
MODEL 7
REMARK VINA RESULT:      -6.8      7.130      9.934
REMARK  Name = 
REMARK  5 active torsions:
REMARK  status: ('A' for Active; 'I' for Inactive)
REMARK    1  A    between atoms: C_1  and  S_2
REMARK    2  A    between atoms: S_2  and  C_5
REMARK    3  A    between atoms: C_7  and  C_8
REMARK    4  A    between atoms: C_14  and  C_15
REMARK    5  A    between atoms: C_15  and  C_16
REMARK                            x       y       z     vdW  Elec       q    Type
REMARK                         _______ _______ _______ _____ _____    ______ ____
ROOT
ATOM      1  C   UNL     1      -1.498  13.584  23.303  0.00  0.00    +0.000 C 
ATOM      2  O   UNL     1      -0.943  14.349  24.093  0.00  0.00    +0.000 OA
ATOM      3  N   UNL     1      -2.878  13.402  23.335  0.00  0.00    +0.000 N 
ATOM      4  C   UNL     1      -3.679  14.021  24.374  0.00  0.00    +0.000 C 
ATOM      5  C   UNL     1      -4.886  13.108  24.477  0.00  0.00    +0.000 C 
ATOM      6  C   UNL     1      -5.125  12.677  23.035  0.00  0.00    +0.000 C 
ATOM      7  C   UNL     1      -3.734  12.706  22.368  0.00  0.00    +0.000 C 
ENDROOT
BRANCH   1  10
ATOM      8  C   UNL     1       0.469  12.441  20.516  0.00  0.00    +0.000 A 
ATOM      9  N   UNL     1      -0.111  13.427  21.183  0.00  0.00    +0.000 NA
ATOM     10  C   UNL     1      -0.721  12.847  22.289  0.00  0.00    +0.000 A 
ATOM     11  C   UNL     1      -0.495  11.480  22.270  0.00  0.00    +0.000 A 
ATOM     12  C   UNL     1      -0.849  10.368  23.091  0.00  0.00    +0.000 A 
ATOM     13  C   UNL     1      -0.359   9.148  22.803  0.00  0.00    +0.000 A 
ATOM     14  C   UNL     1       0.520   8.929  21.670  0.00  0.00    +0.000 A 
ATOM     15  C   UNL     1       0.825   9.967  20.872  0.00  0.00    +0.000 A 
ATOM     16  N   UNL     1       0.314  11.235  21.163  0.00  0.00    +0.000 N 
BRANCH   8  18
ATOM     17  C   UNL     1       2.762  13.587  19.396  0.00  0.00    +0.000 C 
ATOM     18  S   UNL     1       1.336  12.617  18.993  0.00  0.00    +0.000 S 
ATOM     19  O   UNL     1       0.466  13.397  18.139  0.00  0.00    +0.000 OA
ATOM     20  O   UNL     1       1.760  11.277  18.635  0.00  0.00    +0.000 OA
ENDBRANCH   8  18
ENDBRANCH   1  10
BRANCH   7  21
ATOM     21  C   UNL     1      -3.779  13.436  21.007  0.00  0.00    +0.000 C 
BRANCH  21  22
ATOM     22  C   UNL     1      -3.927  12.520  19.815  0.00  0.00    +0.000 A 
ATOM     23  C   UNL     1      -2.792  12.030  19.163  0.00  0.00    +0.000 A 
ATOM     24  C   UNL     1      -2.894  11.186  18.055  0.00  0.00    +0.000 A 
ATOM     25  C   UNL     1      -4.151  10.833  17.579  0.00  0.00    +0.000 A 
ATOM     26  C   UNL     1      -5.285  11.326  18.215  0.00  0.00    +0.000 A 
ATOM     27  F   UNL     1      -6.496  10.991  17.752  0.00  0.00    +0.000 F 
ATOM     28  C   UNL     1      -5.186  12.163  19.322  0.00  0.00    +0.000 A 
ENDBRANCH  21  22
ENDBRANCH   7  21
TORSDOF 4
ENDMDL
MODEL 8
REMARK VINA RESULT:      -6.7      7.164      9.963
REMARK  Name = 
REMARK  5 active torsions:
REMARK  status: ('A' for Active; 'I' for Inactive)
REMARK    1  A    between atoms: C_1  and  S_2
REMARK    2  A    between atoms: S_2  and  C_5
REMARK    3  A    between atoms: C_7  and  C_8
REMARK    4  A    between atoms: C_14  and  C_15
REMARK    5  A    between atoms: C_15  and  C_16
REMARK                            x       y       z     vdW  Elec       q    Type
REMARK                         _______ _______ _______ _____ _____    ______ ____
ROOT
ATOM      1  C   UNL     1      -1.497  13.698  23.246  0.00  0.00    +0.000 C 
ATOM      2  O   UNL     1      -0.974  14.501  24.020  0.00  0.00    +0.000 OA
ATOM      3  N   UNL     1      -2.882  13.612  23.133  0.00  0.00    +0.000 N 
ATOM      4  C   UNL     1      -3.741  14.386  24.008  0.00  0.00    +0.000 C 
ATOM      5  C   UNL     1      -5.019  13.571  24.054  0.00  0.00    +0.000 C 
ATOM      6  C   UNL     1      -5.131  13.012  22.641  0.00  0.00    +0.000 C 
ATOM      7  C   UNL     1      -3.677  12.879  22.143  0.00  0.00    +0.000 C 
ENDROOT
BRANCH   1  10
ATOM      8  C   UNL     1       0.323  11.021  21.674  0.00  0.00    +0.000 A 
ATOM      9  N   UNL     1      -0.483  11.453  22.632  0.00  0.00    +0.000 NA
ATOM     10  C   UNL     1      -0.672  12.810  22.404  0.00  0.00    +0.000 A 
ATOM     11  C   UNL     1       0.046  13.188  21.281  0.00  0.00    +0.000 A 
ATOM     12  C   UNL     1       0.263  14.400  20.560  0.00  0.00    +0.000 A 
ATOM     13  C   UNL     1       0.977  14.375  19.419  0.00  0.00    +0.000 A 
ATOM     14  C   UNL     1       1.541  13.141  18.902  0.00  0.00    +0.000 A 
ATOM     15  C   UNL     1       1.371  12.005  19.599  0.00  0.00    +0.000 A 
ATOM     16  N   UNL     1       0.636  12.028  20.787  0.00  0.00    +0.000 N 
BRANCH   8  18
ATOM     17  C   UNL     1      -0.445   8.344  21.931  0.00  0.00    +0.000 C 
ATOM     18  S   UNL     1       0.935   9.377  21.526  0.00  0.00    +0.000 S 
ATOM     19  O   UNL     1       1.940   9.241  22.560  0.00  0.00    +0.000 OA
ATOM     20  O   UNL     1       1.256   9.211  20.121  0.00  0.00    +0.000 OA
ENDBRANCH   8  18
ENDBRANCH   1  10
BRANCH   7  21
ATOM     21  C   UNL     1      -3.515  13.468  20.722  0.00  0.00    +0.000 C 
BRANCH  21  22
ATOM     22  C   UNL     1      -3.592  12.445  19.614  0.00  0.00    +0.000 A 
ATOM     23  C   UNL     1      -4.833  12.073  19.088  0.00  0.00    +0.000 A 
ATOM     24  C   UNL     1      -4.939  11.126  18.067  0.00  0.00    +0.000 A 
ATOM     25  C   UNL     1      -3.787  10.528  17.568  0.00  0.00    +0.000 A 
ATOM     26  C   UNL     1      -2.551  10.884  18.094  0.00  0.00    +0.000 A 
ATOM     27  F   UNL     1      -1.443  10.302  17.618  0.00  0.00    +0.000 F 
ATOM     28  C   UNL     1      -2.442  11.830  19.108  0.00  0.00    +0.000 A 
ENDBRANCH  21  22
ENDBRANCH   7  21
TORSDOF 4
ENDMDL
MODEL 9
REMARK VINA RESULT:      -6.6      6.984      9.736
REMARK  Name = 
REMARK  5 active torsions:
REMARK  status: ('A' for Active; 'I' for Inactive)
REMARK    1  A    between atoms: C_1  and  S_2
REMARK    2  A    between atoms: S_2  and  C_5
REMARK    3  A    between atoms: C_7  and  C_8
REMARK    4  A    between atoms: C_14  and  C_15
REMARK    5  A    between atoms: C_15  and  C_16
REMARK                            x       y       z     vdW  Elec       q    Type
REMARK                         _______ _______ _______ _____ _____    ______ ____
ROOT
ATOM      1  C   UNL     1       0.853  10.106  21.453  0.00  0.00    +0.000 C 
ATOM      2  O   UNL     1       1.455   9.472  22.321  0.00  0.00    +0.000 OA
ATOM      3  N   UNL     1       0.897   9.710  20.119  0.00  0.00    +0.000 N 
ATOM      4  C   UNL     1       1.746   8.609  19.705  0.00  0.00    +0.000 C 
ATOM      5  C   UNL     1       2.032   8.916  18.248  0.00  0.00    +0.000 C 
ATOM      6  C   UNL     1       0.725   9.524  17.752  0.00  0.00    +0.000 C 
ATOM      7  C   UNL     1       0.101  10.203  18.990  0.00  0.00    +0.000 C 
ENDROOT
BRANCH   1  10
ATOM      8  C   UNL     1      -1.529  12.531  22.631  0.00  0.00    +0.000 A 
ATOM      9  N   UNL     1      -1.113  11.277  22.551  0.00  0.00    +0.000 NA
ATOM     10  C   UNL     1       0.057  11.298  21.801  0.00  0.00    +0.000 A 
ATOM     11  C   UNL     1       0.334  12.602  21.425  0.00  0.00    +0.000 A 
ATOM     12  C   UNL     1       1.349  13.260  20.668  0.00  0.00    +0.000 A 
ATOM     13  C   UNL     1       1.347  14.603  20.582  0.00  0.00    +0.000 A 
ATOM     14  C   UNL     1       0.331  15.406  21.237  0.00  0.00    +0.000 A 
ATOM     15  C   UNL     1      -0.649  14.788  21.919  0.00  0.00    +0.000 A 
ATOM     16  N   UNL     1      -0.654  13.393  22.006  0.00  0.00    +0.000 N 
BRANCH   8  18
ATOM     17  C   UNL     1      -4.013  13.712  22.120  0.00  0.00    +0.000 C 
ATOM     18  S   UNL     1      -3.008  13.063  23.425  0.00  0.00    +0.000 S 
ATOM     19  O   UNL     1      -2.612  14.151  24.295  0.00  0.00    +0.000 OA
ATOM     20  O   UNL     1      -3.622  11.855  23.942  0.00  0.00    +0.000 OA
ENDBRANCH   8  18
ENDBRANCH   1  10
BRANCH   7  21
ATOM     21  C   UNL     1      -1.394   9.838  19.135  0.00  0.00    +0.000 C 
BRANCH  21  22
ATOM     22  C   UNL     1      -2.260  10.296  17.985  0.00  0.00    +0.000 A 
ATOM     23  C   UNL     1      -3.324  11.172  18.215  0.00  0.00    +0.000 A 
ATOM     24  C   UNL     1      -4.147  11.610  17.175  0.00  0.00    +0.000 A 
ATOM     25  C   UNL     1      -3.913  11.156  15.881  0.00  0.00    +0.000 A 
ATOM     26  C   UNL     1      -2.864  10.275  15.647  0.00  0.00    +0.000 A 
ATOM     27  F   UNL     1      -2.644   9.833  14.403  0.00  0.00    +0.000 F 
ATOM     28  C   UNL     1      -2.040   9.841  16.681  0.00  0.00    +0.000 A 
ENDBRANCH  21  22
ENDBRANCH   7  21
TORSDOF 4
ENDMDL
