MODEL 1
REMARK VINA RESULT:      -8.6      0.000      0.000
REMARK  Name = 
REMARK  7 active torsions:
REMARK  status: ('A' for Active; 'I' for Inactive)
REMARK    1  A    between atoms: C_1  and  C_2
REMARK    2  A    between atoms: C_2  and  N_3
REMARK    3  A    between atoms: C_2  and  C_24
REMARK    4  A    between atoms: C_4  and  C_6
REMARK    5  A    between atoms: C_9  and  C_10
REMARK    6  A    between atoms: C_10  and  O_11
REMARK    7  A    between atoms: O_11  and  C_12
REMARK                            x       y       z     vdW  Elec       q    Type
REMARK                         _______ _______ _______ _____ _____    ______ ____
ROOT
ATOM      1  C   UNL     1       2.127   7.313  19.378  0.00  0.00    +0.000 A 
ATOM      2  C   UNL     1       1.461   6.789  20.471  0.00  0.00    +0.000 A 
ATOM      3  C   UNL     1       2.085   5.561  20.787  0.00  0.00    +0.000 A 
ATOM      4  C   UNL     1       3.105   5.393  19.873  0.00  0.00    +0.000 A 
ATOM      5  O   UNL     1       3.141   6.459  19.015  0.00  0.00    +0.000 OA
ENDROOT
BRANCH   1   7
ATOM      6  N   UNL     1       1.189   9.494  19.319  0.00  0.00    +0.000 N 
ATOM      7  C   UNL     1       1.913   8.544  18.637  0.00  0.00    +0.000 C 
ATOM      8  O   UNL     1       2.327   8.728  17.495  0.00  0.00    +0.000 OA
ATOM      9  H   UNL     1       0.891   9.247  20.255  0.00  0.00    +0.000 HD
BRANCH   6  11
ATOM     10  C   UNL     1       1.190  11.933  19.729  0.00  0.00    +0.000 C 
ATOM     11  C   UNL     1       0.837  10.792  18.770  0.00  0.00    +0.000 C 
BRANCH  11  12
ATOM     12  C   UNL     1      -0.640  10.811  18.420  0.00  0.00    +0.000 A 
ATOM     13  C   UNL     1      -1.156   9.911  17.471  0.00  0.00    +0.000 A 
ATOM     14  C   UNL     1      -2.524   9.882  17.184  0.00  0.00    +0.000 A 
ATOM     15  C   UNL     1      -3.393  10.752  17.839  0.00  0.00    +0.000 A 
ATOM     16  C   UNL     1      -2.886  11.655  18.763  0.00  0.00    +0.000 A 
ATOM     17  F   UNL     1      -3.718  12.491  19.397  0.00  0.00    +0.000 F 
ATOM     18  C   UNL     1      -1.526  11.697  19.053  0.00  0.00    +0.000 A 
ENDBRANCH  11  12
ENDBRANCH   6  11
ENDBRANCH   1   7
BRANCH   4  19
ATOM     19  C   UNL     1       4.134   4.334  19.695  0.00  0.00    +0.000 C 
BRANCH  19  20
ATOM     20  O   UNL     1       5.412   4.972  19.722  0.00  0.00    +0.000 OA
BRANCH  20  21
ATOM     21  C   UNL     1       6.029   5.164  18.513  0.00  0.00    +0.000 A 
ATOM     22  C   UNL     1       7.014   6.119  18.242  0.00  0.00    +0.000 A 
ATOM     23  C   UNL     1       7.571   6.220  16.963  0.00  0.00    +0.000 A 
ATOM     24  C   UNL     1       7.126   5.380  15.945  0.00  0.00    +0.000 A 
ATOM     25  C   UNL     1       6.148   4.415  16.198  0.00  0.00    +0.000 A 
ATOM     26  C   UNL     1       5.610   4.306  17.489  0.00  0.00    +0.000 A 
ATOM     27  C   UNL     1       5.778   3.455  15.101  0.00  0.00    +0.000 C 
ATOM     28  C   UNL     1       5.852   4.141  13.745  0.00  0.00    +0.000 C 
ATOM     29  C   UNL     1       7.168   4.859  13.558  0.00  0.00    +0.000 C 
ATOM     30  O   UNL     1       7.712   4.970  12.461  0.00  0.00    +0.000 OA
ATOM     31  N   UNL     1       7.672   5.495  14.663  0.00  0.00    +0.000 N 
ATOM     32  H   UNL     1       8.473   6.090  14.502  0.00  0.00    +0.000 HD
ENDBRANCH  20  21
ENDBRANCH  19  20
ENDBRANCH   4  19
TORSDOF 6
ENDMDL
MODEL 2
REMARK VINA RESULT:      -8.5      6.330      8.663
REMARK  Name = 
REMARK  7 active torsions:
REMARK  status: ('A' for Active; 'I' for Inactive)
REMARK    1  A    between atoms: C_1  and  C_2
REMARK    2  A    between atoms: C_2  and  N_3
REMARK    3  A    between atoms: C_2  and  C_24
REMARK    4  A    between atoms: C_4  and  C_6
REMARK    5  A    between atoms: C_9  and  C_10
REMARK    6  A    between atoms: C_10  and  O_11
REMARK    7  A    between atoms: O_11  and  C_12
REMARK                            x       y       z     vdW  Elec       q    Type
REMARK                         _______ _______ _______ _____ _____    ______ ____
ROOT
ATOM      1  C   UNL     1       6.380   6.643  17.681  0.00  0.00    +0.000 A 
ATOM      2  C   UNL     1       7.414   6.063  18.394  0.00  0.00    +0.000 A 
ATOM      3  C   UNL     1       8.383   7.070  18.611  0.00  0.00    +0.000 A 
ATOM      4  C   UNL     1       7.894   8.217  18.022  0.00  0.00    +0.000 A 
ATOM      5  O   UNL     1       6.672   7.968  17.460  0.00  0.00    +0.000 OA
ENDROOT
BRANCH   1   7
ATOM      6  N   UNL     1       4.203   5.829  18.169  0.00  0.00    +0.000 N 
ATOM      7  C   UNL     1       5.135   6.080  17.189  0.00  0.00    +0.000 C 
ATOM      8  O   UNL     1       4.924   5.835  16.003  0.00  0.00    +0.000 OA
ATOM      9  H   UNL     1       4.471   6.065  19.118  0.00  0.00    +0.000 HD
BRANCH   6  11
ATOM     10  C   UNL     1       1.819   6.325  17.738  0.00  0.00    +0.000 C 
ATOM     11  C   UNL     1       2.896   5.250  17.914  0.00  0.00    +0.000 C 
BRANCH  11  12
ATOM     12  C   UNL     1       2.535   4.296  19.038  0.00  0.00    +0.000 A 
ATOM     13  C   UNL     1       1.189   4.081  19.382  0.00  0.00    +0.000 A 
ATOM     14  C   UNL     1       0.844   3.161  20.378  0.00  0.00    +0.000 A 
ATOM     15  C   UNL     1       1.839   2.447  21.042  0.00  0.00    +0.000 A 
ATOM     16  C   UNL     1       3.170   2.670  20.719  0.00  0.00    +0.000 A 
ATOM     17  F   UNL     1       4.129   1.983  21.353  0.00  0.00    +0.000 F 
ATOM     18  C   UNL     1       3.526   3.586  19.735  0.00  0.00    +0.000 A 
ENDBRANCH  11  12
ENDBRANCH   6  11
ENDBRANCH   1   7
BRANCH   4  19
ATOM     19  C   UNL     1       8.419   9.606  17.933  0.00  0.00    +0.000 C 
BRANCH  19  20
ATOM     20  O   UNL     1       9.453   9.736  18.912  0.00  0.00    +0.000 OA
BRANCH  20  21
ATOM     21  C   UNL     1       9.943  10.998  19.126  0.00  0.00    +0.000 A 
ATOM     22  C   UNL     1      10.065  11.626  20.370  0.00  0.00    +0.000 A 
ATOM     23  C   UNL     1      10.581  12.922  20.461  0.00  0.00    +0.000 A 
ATOM     24  C   UNL     1      10.956  13.602  19.306  0.00  0.00    +0.000 A 
ATOM     25  C   UNL     1      10.848  12.989  18.055  0.00  0.00    +0.000 A 
ATOM     26  C   UNL     1      10.349  11.681  17.974  0.00  0.00    +0.000 A 
ATOM     27  C   UNL     1      11.369  13.717  16.845  0.00  0.00    +0.000 C 
ATOM     28  C   UNL     1      11.152  15.215  16.990  0.00  0.00    +0.000 C 
ATOM     29  C   UNL     1      11.662  15.723  18.318  0.00  0.00    +0.000 C 
ATOM     30  O   UNL     1      12.137  16.849  18.458  0.00  0.00    +0.000 OA
ATOM     31  N   UNL     1      11.455  14.905  19.399  0.00  0.00    +0.000 N 
ATOM     32  H   UNL     1      11.667  15.306  20.301  0.00  0.00    +0.000 HD
ENDBRANCH  20  21
ENDBRANCH  19  20
ENDBRANCH   4  19
TORSDOF 6
ENDMDL
MODEL 3
REMARK VINA RESULT:      -8.5      3.518      9.031
REMARK  Name = 
REMARK  7 active torsions:
REMARK  status: ('A' for Active; 'I' for Inactive)
REMARK    1  A    between atoms: C_1  and  C_2
REMARK    2  A    between atoms: C_2  and  N_3
REMARK    3  A    between atoms: C_2  and  C_24
REMARK    4  A    between atoms: C_4  and  C_6
REMARK    5  A    between atoms: C_9  and  C_10
REMARK    6  A    between atoms: C_10  and  O_11
REMARK    7  A    between atoms: O_11  and  C_12
REMARK                            x       y       z     vdW  Elec       q    Type
REMARK                         _______ _______ _______ _____ _____    ______ ____
ROOT
ATOM      1  C   UNL     1       3.900   4.237  18.397  0.00  0.00    +0.000 A 
ATOM      2  C   UNL     1       2.900   3.439  17.873  0.00  0.00    +0.000 A 
ATOM      3  C   UNL     1       1.705   3.772  18.552  0.00  0.00    +0.000 A 
ATOM      4  C   UNL     1       2.033   4.759  19.459  0.00  0.00    +0.000 A 
ATOM      5  O   UNL     1       3.366   5.053  19.366  0.00  0.00    +0.000 OA
ENDROOT
BRANCH   1   7
ATOM      6  N   UNL     1       5.580   4.779  16.807  0.00  0.00    +0.000 N 
ATOM      7  C   UNL     1       5.315   4.318  18.076  0.00  0.00    +0.000 C 
ATOM      8  O   UNL     1       6.207   3.996  18.858  0.00  0.00    +0.000 OA
ATOM      9  H   UNL     1       4.777   5.018  16.237  0.00  0.00    +0.000 HD
BRANCH   6  11
ATOM     10  C   UNL     1       7.531   6.285  16.606  0.00  0.00    +0.000 C 
ATOM     11  C   UNL     1       6.918   4.925  16.262  0.00  0.00    +0.000 C 
BRANCH  11  12
ATOM     12  C   UNL     1       6.881   4.708  14.760  0.00  0.00    +0.000 A 
ATOM     13  C   UNL     1       7.758   5.413  13.919  0.00  0.00    +0.000 A 
ATOM     14  C   UNL     1       7.770   5.179  12.540  0.00  0.00    +0.000 A 
ATOM     15  C   UNL     1       6.905   4.238  11.986  0.00  0.00    +0.000 A 
ATOM     16  C   UNL     1       6.025   3.551  12.810  0.00  0.00    +0.000 A 
ATOM     17  F   UNL     1       5.194   2.644  12.281  0.00  0.00    +0.000 F 
ATOM     18  C   UNL     1       5.999   3.780  14.181  0.00  0.00    +0.000 A 
ENDBRANCH  11  12
ENDBRANCH   6  11
ENDBRANCH   1   7
BRANCH   4  19
ATOM     19  C   UNL     1       1.225   5.540  20.434  0.00  0.00    +0.000 C 
BRANCH  19  20
ATOM     20  O   UNL     1       1.960   6.725  20.745  0.00  0.00    +0.000 OA
BRANCH  20  21
ATOM     21  C   UNL     1       1.634   7.854  20.037  0.00  0.00    +0.000 A 
ATOM     22  C   UNL     1       2.063   8.156  18.741  0.00  0.00    +0.000 A 
ATOM     23  C   UNL     1       1.663   9.344  18.121  0.00  0.00    +0.000 A 
ATOM     24  C   UNL     1       0.851  10.243  18.805  0.00  0.00    +0.000 A 
ATOM     25  C   UNL     1       0.406   9.956  20.099  0.00  0.00    +0.000 A 
ATOM     26  C   UNL     1       0.795   8.753  20.705  0.00  0.00    +0.000 A 
ATOM     27  C   UNL     1      -0.561  10.901  20.758  0.00  0.00    +0.000 C 
ATOM     28  C   UNL     1      -0.269  12.336  20.345  0.00  0.00    +0.000 C 
ATOM     29  C   UNL     1      -0.159  12.468  18.843  0.00  0.00    +0.000 C 
ATOM     30  O   UNL     1      -0.506  13.483  18.241  0.00  0.00    +0.000 OA
ATOM     31  N   UNL     1       0.467  11.438  18.190  0.00  0.00    +0.000 N 
ATOM     32  H   UNL     1       0.665  11.594  17.211  0.00  0.00    +0.000 HD
ENDBRANCH  20  21
ENDBRANCH  19  20
ENDBRANCH   4  19
TORSDOF 6
ENDMDL
MODEL 4
REMARK VINA RESULT:      -8.4      6.273      8.783
REMARK  Name = 
REMARK  7 active torsions:
REMARK  status: ('A' for Active; 'I' for Inactive)
REMARK    1  A    between atoms: C_1  and  C_2
REMARK    2  A    between atoms: C_2  and  N_3
REMARK    3  A    between atoms: C_2  and  C_24
REMARK    4  A    between atoms: C_4  and  C_6
REMARK    5  A    between atoms: C_9  and  C_10
REMARK    6  A    between atoms: C_10  and  O_11
REMARK    7  A    between atoms: O_11  and  C_12
REMARK                            x       y       z     vdW  Elec       q    Type
REMARK                         _______ _______ _______ _____ _____    ______ ____
ROOT
ATOM      1  C   UNL     1       6.460   6.499  17.704  0.00  0.00    +0.000 A 
ATOM      2  C   UNL     1       7.517   6.201  18.544  0.00  0.00    +0.000 A 
ATOM      3  C   UNL     1       8.363   7.334  18.564  0.00  0.00    +0.000 A 
ATOM      4  C   UNL     1       7.780   8.272  17.737  0.00  0.00    +0.000 A 
ATOM      5  O   UNL     1       6.617   7.774  17.214  0.00  0.00    +0.000 OA
ENDROOT
BRANCH   1   7
ATOM      6  N   UNL     1       4.246   5.791  18.189  0.00  0.00    +0.000 N 
ATOM      7  C   UNL     1       5.305   5.708  17.315  0.00  0.00    +0.000 C 
ATOM      8  O   UNL     1       5.269   5.013  16.303  0.00  0.00    +0.000 OA
ATOM      9  H   UNL     1       4.372   6.389  18.997  0.00  0.00    +0.000 HD
BRANCH   6  11
ATOM     10  C   UNL     1       1.822   6.021  17.753  0.00  0.00    +0.000 C 
ATOM     11  C   UNL     1       2.995   5.072  18.015  0.00  0.00    +0.000 C 
BRANCH  11  12
ATOM     12  C   UNL     1       2.734   4.206  19.234  0.00  0.00    +0.000 A 
ATOM     13  C   UNL     1       1.464   4.191  19.836  0.00  0.00    +0.000 A 
ATOM     14  C   UNL     1       1.198   3.354  20.924  0.00  0.00    +0.000 A 
ATOM     15  C   UNL     1       2.197   2.522  21.425  0.00  0.00    +0.000 A 
ATOM     16  C   UNL     1       3.459   2.546  20.845  0.00  0.00    +0.000 A 
ATOM     17  F   UNL     1       4.421   1.746  21.322  0.00  0.00    +0.000 F 
ATOM     18  C   UNL     1       3.737   3.379  19.767  0.00  0.00    +0.000 A 
ENDBRANCH  11  12
ENDBRANCH   6  11
ENDBRANCH   1   7
BRANCH   4  19
ATOM     19  C   UNL     1       8.157   9.663  17.368  0.00  0.00    +0.000 C 
BRANCH  19  20
ATOM     20  O   UNL     1       8.973  10.178  18.422  0.00  0.00    +0.000 OA
BRANCH  20  21
ATOM     21  C   UNL     1       9.661  11.334  18.158  0.00  0.00    +0.000 A 
ATOM     22  C   UNL     1      11.018  11.419  17.831  0.00  0.00    +0.000 A 
ATOM     23  C   UNL     1      11.610  12.662  17.583  0.00  0.00    +0.000 A 
ATOM     24  C   UNL     1      10.851  13.824  17.683  0.00  0.00    +0.000 A 
ATOM     25  C   UNL     1       9.492  13.758  18.002  0.00  0.00    +0.000 A 
ATOM     26  C   UNL     1       8.901  12.507  18.229  0.00  0.00    +0.000 A 
ATOM     27  C   UNL     1       8.684  15.027  17.989  0.00  0.00    +0.000 C 
ATOM     28  C   UNL     1       9.529  16.202  18.457  0.00  0.00    +0.000 C 
ATOM     29  C   UNL     1      10.845  16.267  17.718  0.00  0.00    +0.000 C 
ATOM     30  O   UNL     1      11.408  17.330  17.460  0.00  0.00    +0.000 OA
ATOM     31  N   UNL     1      11.450  15.066  17.452  0.00  0.00    +0.000 N 
ATOM     32  H   UNL     1      12.391  15.118  17.087  0.00  0.00    +0.000 HD
ENDBRANCH  20  21
ENDBRANCH  19  20
ENDBRANCH   4  19
TORSDOF 6
ENDMDL
MODEL 5
REMARK VINA RESULT:      -8.4      5.946      8.270
REMARK  Name = 
REMARK  7 active torsions:
REMARK  status: ('A' for Active; 'I' for Inactive)
REMARK    1  A    between atoms: C_1  and  C_2
REMARK    2  A    between atoms: C_2  and  N_3
REMARK    3  A    between atoms: C_2  and  C_24
REMARK    4  A    between atoms: C_4  and  C_6
REMARK    5  A    between atoms: C_9  and  C_10
REMARK    6  A    between atoms: C_10  and  O_11
REMARK    7  A    between atoms: O_11  and  C_12
REMARK                            x       y       z     vdW  Elec       q    Type
REMARK                         _______ _______ _______ _____ _____    ______ ____
ROOT
ATOM      1  C   UNL     1       6.232   6.560  17.775  0.00  0.00    +0.000 A 
ATOM      2  C   UNL     1       7.256   5.907  18.437  0.00  0.00    +0.000 A 
ATOM      3  C   UNL     1       8.303   6.842  18.605  0.00  0.00    +0.000 A 
ATOM      4  C   UNL     1       7.868   8.023  18.040  0.00  0.00    +0.000 A 
ATOM      5  O   UNL     1       6.604   7.862  17.538  0.00  0.00    +0.000 OA
ENDROOT
BRANCH   1   7
ATOM      6  N   UNL     1       3.873   6.630  18.043  0.00  0.00    +0.000 N 
ATOM      7  C   UNL     1       4.927   6.087  17.345  0.00  0.00    +0.000 C 
ATOM      8  O   UNL     1       4.766   5.266  16.445  0.00  0.00    +0.000 OA
ATOM      9  H   UNL     1       4.107   7.297  18.768  0.00  0.00    +0.000 HD
BRANCH   6  11
ATOM     10  C   UNL     1       1.560   7.503  17.967  0.00  0.00    +0.000 C 
ATOM     11  C   UNL     1       2.481   6.291  17.800  0.00  0.00    +0.000 C 
BRANCH  11  12
ATOM     12  C   UNL     1       2.066   5.159  18.723  0.00  0.00    +0.000 A 
ATOM     13  C   UNL     1       2.221   5.285  20.114  0.00  0.00    +0.000 A 
ATOM     14  C   UNL     1       1.789   4.271  20.976  0.00  0.00    +0.000 A 
ATOM     15  C   UNL     1       1.199   3.120  20.458  0.00  0.00    +0.000 A 
ATOM     16  C   UNL     1       1.061   2.984  19.083  0.00  0.00    +0.000 A 
ATOM     17  F   UNL     1       0.491   1.880  18.582  0.00  0.00    +0.000 F 
ATOM     18  C   UNL     1       1.492   3.981  18.217  0.00  0.00    +0.000 A 
ENDBRANCH  11  12
ENDBRANCH   6  11
ENDBRANCH   1   7
BRANCH   4  19
ATOM     19  C   UNL     1       8.484   9.372  17.924  0.00  0.00    +0.000 C 
BRANCH  19  20
ATOM     20  O   UNL     1       9.178   9.630  19.146  0.00  0.00    +0.000 OA
BRANCH  20  21
ATOM     21  C   UNL     1       9.633  10.910  19.336  0.00  0.00    +0.000 A 
ATOM     22  C   UNL     1      10.638  11.294  20.229  0.00  0.00    +0.000 A 
ATOM     23  C   UNL     1      11.016  12.637  20.335  0.00  0.00    +0.000 A 
ATOM     24  C   UNL     1      10.374  13.601  19.563  0.00  0.00    +0.000 A 
ATOM     25  C   UNL     1       9.372  13.235  18.659  0.00  0.00    +0.000 A 
ATOM     26  C   UNL     1       9.013  11.884  18.545  0.00  0.00    +0.000 A 
ATOM     27  C   UNL     1       8.783  14.292  17.765  0.00  0.00    +0.000 C 
ATOM     28  C   UNL     1       8.717  15.627  18.490  0.00  0.00    +0.000 C 
ATOM     29  C   UNL     1      10.043  15.981  19.122  0.00  0.00    +0.000 C 
ATOM     30  O   UNL     1      10.435  17.142  19.232  0.00  0.00    +0.000 OA
ATOM     31  N   UNL     1      10.742  14.944  19.683  0.00  0.00    +0.000 N 
ATOM     32  H   UNL     1      11.553  15.203  20.226  0.00  0.00    +0.000 HD
ENDBRANCH  20  21
ENDBRANCH  19  20
ENDBRANCH   4  19
TORSDOF 6
ENDMDL
MODEL 6
REMARK VINA RESULT:      -8.3      5.646      8.039
REMARK  Name = 
REMARK  7 active torsions:
REMARK  status: ('A' for Active; 'I' for Inactive)
REMARK    1  A    between atoms: C_1  and  C_2
REMARK    2  A    between atoms: C_2  and  N_3
REMARK    3  A    between atoms: C_2  and  C_24
REMARK    4  A    between atoms: C_4  and  C_6
REMARK    5  A    between atoms: C_9  and  C_10
REMARK    6  A    between atoms: C_10  and  O_11
REMARK    7  A    between atoms: O_11  and  C_12
REMARK                            x       y       z     vdW  Elec       q    Type
REMARK                         _______ _______ _______ _____ _____    ______ ____
ROOT
ATOM      1  C   UNL     1       8.539   9.224  18.278  0.00  0.00    +0.000 A 
ATOM      2  C   UNL     1       7.532   8.978  17.363  0.00  0.00    +0.000 A 
ATOM      3  C   UNL     1       7.133   7.633  17.536  0.00  0.00    +0.000 A 
ATOM      4  C   UNL     1       7.916   7.120  18.550  0.00  0.00    +0.000 A 
ATOM      5  O   UNL     1       8.770   8.084  19.012  0.00  0.00    +0.000 OA
ENDROOT
BRANCH   1   7
ATOM      6  N   UNL     1       9.185  10.906  19.825  0.00  0.00    +0.000 N 
ATOM      7  C   UNL     1       9.310  10.427  18.542  0.00  0.00    +0.000 C 
ATOM      8  O   UNL     1      10.008  10.983  17.697  0.00  0.00    +0.000 OA
ATOM      9  H   UNL     1       8.585  10.378  20.448  0.00  0.00    +0.000 HD
BRANCH   6  11
ATOM     10  C   UNL     1      11.360  11.910  20.439  0.00  0.00    +0.000 C 
ATOM     11  C   UNL     1       9.846  12.105  20.309  0.00  0.00    +0.000 C 
BRANCH  11  12
ATOM     12  C   UNL     1       9.234  12.522  21.634  0.00  0.00    +0.000 A 
ATOM     13  C   UNL     1       9.364  13.845  22.091  0.00  0.00    +0.000 A 
ATOM     14  C   UNL     1       8.756  14.254  23.282  0.00  0.00    +0.000 A 
ATOM     15  C   UNL     1       8.012  13.345  24.032  0.00  0.00    +0.000 A 
ATOM     16  C   UNL     1       7.896  12.033  23.594  0.00  0.00    +0.000 A 
ATOM     17  F   UNL     1       7.179  11.158  24.311  0.00  0.00    +0.000 F 
ATOM     18  C   UNL     1       8.501  11.614  22.415  0.00  0.00    +0.000 A 
ENDBRANCH  11  12
ENDBRANCH   6  11
ENDBRANCH   1   7
BRANCH   4  19
ATOM     19  C   UNL     1       7.960   5.789  19.213  0.00  0.00    +0.000 C 
BRANCH  19  20
ATOM     20  O   UNL     1       7.790   4.799  18.196  0.00  0.00    +0.000 OA
BRANCH  20  21
ATOM     21  C   UNL     1       6.503   4.416  17.921  0.00  0.00    +0.000 A 
ATOM     22  C   UNL     1       5.940   4.307  16.645  0.00  0.00    +0.000 A 
ATOM     23  C   UNL     1       4.609   3.905  16.490  0.00  0.00    +0.000 A 
ATOM     24  C   UNL     1       3.832   3.633  17.613  0.00  0.00    +0.000 A 
ATOM     25  C   UNL     1       4.379   3.730  18.895  0.00  0.00    +0.000 A 
ATOM     26  C   UNL     1       5.720   4.114  19.041  0.00  0.00    +0.000 A 
ATOM     27  C   UNL     1       3.538   3.319  20.073  0.00  0.00    +0.000 C 
ATOM     28  C   UNL     1       2.076   3.664  19.831  0.00  0.00    +0.000 C 
ATOM     29  C   UNL     1       1.602   3.154  18.489  0.00  0.00    +0.000 C 
ATOM     30  O   UNL     1       0.448   2.775  18.295  0.00  0.00    +0.000 OA
ATOM     31  N   UNL     1       2.497   3.249  17.455  0.00  0.00    +0.000 N 
ATOM     32  H   UNL     1       2.131   3.041  16.537  0.00  0.00    +0.000 HD
ENDBRANCH  20  21
ENDBRANCH  19  20
ENDBRANCH   4  19
TORSDOF 6
ENDMDL
MODEL 7
REMARK VINA RESULT:      -8.3      2.849      4.500
REMARK  Name = 
REMARK  7 active torsions:
REMARK  status: ('A' for Active; 'I' for Inactive)
REMARK    1  A    between atoms: C_1  and  C_2
REMARK    2  A    between atoms: C_2  and  N_3
REMARK    3  A    between atoms: C_2  and  C_24
REMARK    4  A    between atoms: C_4  and  C_6
REMARK    5  A    between atoms: C_9  and  C_10
REMARK    6  A    between atoms: C_10  and  O_11
REMARK    7  A    between atoms: O_11  and  C_12
REMARK                            x       y       z     vdW  Elec       q    Type
REMARK                         _______ _______ _______ _____ _____    ______ ____
ROOT
ATOM      1  C   UNL     1      -0.420  10.973  19.713  0.00  0.00    +0.000 A 
ATOM      2  C   UNL     1      -0.173  10.130  20.781  0.00  0.00    +0.000 A 
ATOM      3  C   UNL     1       0.797   9.194  20.356  0.00  0.00    +0.000 A 
ATOM      4  C   UNL     1       1.098   9.510  19.047  0.00  0.00    +0.000 A 
ATOM      5  O   UNL     1       0.367  10.596  18.650  0.00  0.00    +0.000 OA
ENDROOT
BRANCH   1   7
ATOM      6  N   UNL     1      -2.350  12.113  20.498  0.00  0.00    +0.000 N 
ATOM      7  C   UNL     1      -1.319  12.107  19.586  0.00  0.00    +0.000 C 
ATOM      8  O   UNL     1      -1.188  12.985  18.737  0.00  0.00    +0.000 OA
ATOM      9  H   UNL     1      -2.373  11.345  21.158  0.00  0.00    +0.000 HD
BRANCH   6  11
ATOM     10  C   UNL     1      -3.462  13.798  21.926  0.00  0.00    +0.000 C 
ATOM     11  C   UNL     1      -3.380  13.136  20.547  0.00  0.00    +0.000 C 
BRANCH  11  12
ATOM     12  C   UNL     1      -4.715  12.532  20.152  0.00  0.00    +0.000 A 
ATOM     13  C   UNL     1      -4.924  12.070  18.841  0.00  0.00    +0.000 A 
ATOM     14  C   UNL     1      -6.130  11.459  18.482  0.00  0.00    +0.000 A 
ATOM     15  C   UNL     1      -7.142  11.305  19.428  0.00  0.00    +0.000 A 
ATOM     16  C   UNL     1      -6.947  11.776  20.718  0.00  0.00    +0.000 A 
ATOM     17  F   UNL     1      -7.915  11.627  21.631  0.00  0.00    +0.000 F 
ATOM     18  C   UNL     1      -5.754  12.390  21.085  0.00  0.00    +0.000 A 
ENDBRANCH  11  12
ENDBRANCH   6  11
ENDBRANCH   1   7
BRANCH   4  19
ATOM     19  C   UNL     1       2.054   8.930  18.066  0.00  0.00    +0.000 C 
BRANCH  19  20
ATOM     20  O   UNL     1       1.736   7.544  17.928  0.00  0.00    +0.000 OA
BRANCH  20  21
ATOM     21  C   UNL     1       2.790   6.667  17.949  0.00  0.00    +0.000 A 
ATOM     22  C   UNL     1       2.711   5.304  18.252  0.00  0.00    +0.000 A 
ATOM     23  C   UNL     1       3.861   4.508  18.241  0.00  0.00    +0.000 A 
ATOM     24  C   UNL     1       5.096   5.079  17.949  0.00  0.00    +0.000 A 
ATOM     25  C   UNL     1       5.194   6.438  17.637  0.00  0.00    +0.000 A 
ATOM     26  C   UNL     1       4.034   7.224  17.630  0.00  0.00    +0.000 A 
ATOM     27  C   UNL     1       6.530   6.989  17.218  0.00  0.00    +0.000 C 
ATOM     28  C   UNL     1       7.654   6.287  17.964  0.00  0.00    +0.000 C 
ATOM     29  C   UNL     1       7.521   4.784  17.880  0.00  0.00    +0.000 C 
ATOM     30  O   UNL     1       8.495   4.033  17.855  0.00  0.00    +0.000 OA
ATOM     31  N   UNL     1       6.247   4.285  17.957  0.00  0.00    +0.000 N 
ATOM     32  H   UNL     1       6.172   3.281  18.043  0.00  0.00    +0.000 HD
ENDBRANCH  20  21
ENDBRANCH  19  20
ENDBRANCH   4  19
TORSDOF 6
ENDMDL
MODEL 8
REMARK VINA RESULT:      -8.3      1.113      1.502
REMARK  Name = 
REMARK  7 active torsions:
REMARK  status: ('A' for Active; 'I' for Inactive)
REMARK    1  A    between atoms: C_1  and  C_2
REMARK    2  A    between atoms: C_2  and  N_3
REMARK    3  A    between atoms: C_2  and  C_24
REMARK    4  A    between atoms: C_4  and  C_6
REMARK    5  A    between atoms: C_9  and  C_10
REMARK    6  A    between atoms: C_10  and  O_11
REMARK    7  A    between atoms: O_11  and  C_12
REMARK                            x       y       z     vdW  Elec       q    Type
REMARK                         _______ _______ _______ _____ _____    ______ ____
ROOT
ATOM      1  C   UNL     1       2.125   7.099  19.547  0.00  0.00    +0.000 A 
ATOM      2  C   UNL     1       1.459   6.624  20.661  0.00  0.00    +0.000 A 
ATOM      3  C   UNL     1       1.966   5.332  20.929  0.00  0.00    +0.000 A 
ATOM      4  C   UNL     1       2.920   5.079  19.965  0.00  0.00    +0.000 A 
ATOM      5  O   UNL     1       3.028   6.153  19.123  0.00  0.00    +0.000 OA
ENDROOT
BRANCH   1   7
ATOM      6  N   UNL     1       1.150   9.261  19.425  0.00  0.00    +0.000 N 
ATOM      7  C   UNL     1       2.006   8.360  18.835  0.00  0.00    +0.000 C 
ATOM      8  O   UNL     1       2.604   8.609  17.791  0.00  0.00    +0.000 OA
ATOM      9  H   UNL     1       0.702   8.963  20.284  0.00  0.00    +0.000 HD
BRANCH   6  11
ATOM     10  C   UNL     1       1.279  11.696  19.841  0.00  0.00    +0.000 C 
ATOM     11  C   UNL     1       0.860  10.577  18.882  0.00  0.00    +0.000 C 
BRANCH  11  12
ATOM     12  C   UNL     1      -0.617  10.673  18.545  0.00  0.00    +0.000 A 
ATOM     13  C   UNL     1      -1.444  11.580  19.230  0.00  0.00    +0.000 A 
ATOM     14  C   UNL     1      -2.793  11.716  18.887  0.00  0.00    +0.000 A 
ATOM     15  C   UNL     1      -3.332  10.947  17.858  0.00  0.00    +0.000 A 
ATOM     16  C   UNL     1      -2.524  10.037  17.192  0.00  0.00    +0.000 A 
ATOM     17  F   UNL     1      -3.038   9.298  16.200  0.00  0.00    +0.000 F 
ATOM     18  C   UNL     1      -1.183   9.888  17.527  0.00  0.00    +0.000 A 
ENDBRANCH  11  12
ENDBRANCH   6  11
ENDBRANCH   1   7
BRANCH   4  19
ATOM     19  C   UNL     1       3.825   3.924  19.722  0.00  0.00    +0.000 C 
BRANCH  19  20
ATOM     20  O   UNL     1       3.796   3.646  18.321  0.00  0.00    +0.000 OA
BRANCH  20  21
ATOM     21  C   UNL     1       4.824   4.155  17.571  0.00  0.00    +0.000 A 
ATOM     22  C   UNL     1       5.799   5.049  18.024  0.00  0.00    +0.000 A 
ATOM     23  C   UNL     1       6.802   5.501  17.160  0.00  0.00    +0.000 A 
ATOM     24  C   UNL     1       6.818   5.076  15.834  0.00  0.00    +0.000 A 
ATOM     25  C   UNL     1       5.857   4.177  15.365  0.00  0.00    +0.000 A 
ATOM     26  C   UNL     1       4.866   3.713  16.243  0.00  0.00    +0.000 A 
ATOM     27  C   UNL     1       5.977   3.657  13.959  0.00  0.00    +0.000 C 
ATOM     28  C   UNL     1       6.542   4.730  13.040  0.00  0.00    +0.000 C 
ATOM     29  C   UNL     1       7.799   5.344  13.612  0.00  0.00    +0.000 C 
ATOM     30  O   UNL     1       8.720   5.748  12.904  0.00  0.00    +0.000 OA
ATOM     31  N   UNL     1       7.811   5.543  14.968  0.00  0.00    +0.000 N 
ATOM     32  H   UNL     1       8.589   6.080  15.327  0.00  0.00    +0.000 HD
ENDBRANCH  20  21
ENDBRANCH  19  20
ENDBRANCH   4  19
TORSDOF 6
ENDMDL
MODEL 9
REMARK VINA RESULT:      -8.2      3.789     10.215
REMARK  Name = 
REMARK  7 active torsions:
REMARK  status: ('A' for Active; 'I' for Inactive)
REMARK    1  A    between atoms: C_1  and  C_2
REMARK    2  A    between atoms: C_2  and  N_3
REMARK    3  A    between atoms: C_2  and  C_24
REMARK    4  A    between atoms: C_4  and  C_6
REMARK    5  A    between atoms: C_9  and  C_10
REMARK    6  A    between atoms: C_10  and  O_11
REMARK    7  A    between atoms: O_11  and  C_12
REMARK                            x       y       z     vdW  Elec       q    Type
REMARK                         _______ _______ _______ _____ _____    ______ ____
ROOT
ATOM      1  C   UNL     1       1.646   8.383  19.745  0.00  0.00    +0.000 A 
ATOM      2  C   UNL     1       1.138   7.756  20.868  0.00  0.00    +0.000 A 
ATOM      3  C   UNL     1       0.488   8.748  21.639  0.00  0.00    +0.000 A 
ATOM      4  C   UNL     1       0.629   9.934  20.949  0.00  0.00    +0.000 A 
ATOM      5  O   UNL     1       1.327   9.720  19.791  0.00  0.00    +0.000 OA
ENDROOT
BRANCH   1   7
ATOM      6  N   UNL     1       2.866   6.573  18.810  0.00  0.00    +0.000 N 
ATOM      7  C   UNL     1       2.400   7.853  18.622  0.00  0.00    +0.000 C 
ATOM      8  O   UNL     1       2.618   8.487  17.593  0.00  0.00    +0.000 OA
ATOM      9  H   UNL     1       2.635   6.134  19.694  0.00  0.00    +0.000 HD
BRANCH   6  11
ATOM     10  C   UNL     1       3.291   4.363  17.786  0.00  0.00    +0.000 C 
ATOM     11  C   UNL     1       3.659   5.848  17.833  0.00  0.00    +0.000 C 
BRANCH  11  12
ATOM     12  C   UNL     1       5.134   6.036  18.137  0.00  0.00    +0.000 A 
ATOM     13  C   UNL     1       5.752   5.278  19.146  0.00  0.00    +0.000 A 
ATOM     14  C   UNL     1       7.123   5.402  19.396  0.00  0.00    +0.000 A 
ATOM     15  C   UNL     1       7.892   6.285  18.641  0.00  0.00    +0.000 A 
ATOM     16  C   UNL     1       7.283   7.049  17.655  0.00  0.00    +0.000 A 
ATOM     17  F   UNL     1       8.019   7.897  16.925  0.00  0.00    +0.000 F 
ATOM     18  C   UNL     1       5.920   6.939  17.402  0.00  0.00    +0.000 A 
ENDBRANCH  11  12
ENDBRANCH   6  11
ENDBRANCH   1   7
BRANCH   4  19
ATOM     19  C   UNL     1       0.148  11.317  21.213  0.00  0.00    +0.000 C 
BRANCH  19  20
ATOM     20  O   UNL     1      -0.036  11.954  19.947  0.00  0.00    +0.000 OA
BRANCH  20  21
ATOM     21  C   UNL     1      -1.260  11.797  19.351  0.00  0.00    +0.000 A 
ATOM     22  C   UNL     1      -1.501  11.130  18.145  0.00  0.00    +0.000 A 
ATOM     23  C   UNL     1      -2.800  11.035  17.636  0.00  0.00    +0.000 A 
ATOM     24  C   UNL     1      -3.858  11.627  18.320  0.00  0.00    +0.000 A 
ATOM     25  C   UNL     1      -3.638  12.290  19.530  0.00  0.00    +0.000 A 
ATOM     26  C   UNL     1      -2.336  12.363  20.045  0.00  0.00    +0.000 A 
ATOM     27  C   UNL     1      -4.824  12.817  20.292  0.00  0.00    +0.000 C 
ATOM     28  C   UNL     1      -5.902  13.298  19.334  0.00  0.00    +0.000 C 
ATOM     29  C   UNL     1      -6.219  12.256  18.287  0.00  0.00    +0.000 C 
ATOM     30  O   UNL     1      -7.344  12.117  17.810  0.00  0.00    +0.000 OA
ATOM     31  N   UNL     1      -5.153  11.546  17.799  0.00  0.00    +0.000 N 
ATOM     32  H   UNL     1      -5.346  10.954  17.003  0.00  0.00    +0.000 HD
ENDBRANCH  20  21
ENDBRANCH  19  20
ENDBRANCH   4  19
TORSDOF 6
ENDMDL
