MODEL 1
REMARK VINA RESULT:      -8.8      0.000      0.000
REMARK  Name = 
REMARK  5 active torsions:
REMARK  status: ('A' for Active; 'I' for Inactive)
REMARK    1  A    between atoms: C_2  and  C_3
REMARK    2  A    between atoms: C_3  and  N_4
REMARK    3  A    between atoms: C_5  and  C_7
REMARK    4  A    between atoms: N_16  and  C_17
REMARK    5  A    between atoms: C_21  and  N_22
REMARK                            x       y       z     vdW  Elec       q    Type
REMARK                         _______ _______ _______ _____ _____    ______ ____
ROOT
ATOM      1  O   UNL     1       7.115   8.213  16.860  0.00  0.00    +0.000 OA
ATOM      2  C   UNL     1       7.583   7.608  17.822  0.00  0.00    +0.000 C 
ATOM      3  N   UNL     1       7.258   6.320  18.221  0.00  0.00    +0.000 N 
ATOM      4  H   UNL     1       7.490   6.081  19.183  0.00  0.00    +0.000 HD
ENDROOT
BRANCH   3   5
ATOM      5  C   UNL     1       6.515   5.374  17.476  0.00  0.00    +0.000 A 
ATOM      6  C   UNL     1       6.987   4.809  16.292  0.00  0.00    +0.000 A 
ATOM      7  C   UNL     1       6.213   3.885  15.595  0.00  0.00    +0.000 A 
ATOM      8  C   UNL     1       4.966   3.500  16.085  0.00  0.00    +0.000 A 
ATOM      9  C   UNL     1       4.473   4.013  17.288  0.00  0.00    +0.000 A 
ATOM     10  C   UNL     1       5.265   4.960  17.974  0.00  0.00    +0.000 A 
BRANCH   9  11
ATOM     11  N   UNL     1       3.231   3.564  17.820  0.00  0.00    +0.000 N 
ATOM     12  C   UNL     1       2.066   4.410  17.918  0.00  0.00    +0.000 C 
ATOM     13  C   UNL     1       1.206   3.731  18.964  0.00  0.00    +0.000 C 
ATOM     14  C   UNL     1       1.517   2.260  18.781  0.00  0.00    +0.000 C 
ATOM     15  C   UNL     1       2.944   2.268  18.285  0.00  0.00    +0.000 C 
ATOM     16  O   UNL     1       3.642   1.266  18.276  0.00  0.00    +0.000 OA
ENDBRANCH   9  11
ENDBRANCH   3   5
BRANCH   2  17
ATOM     17  C   UNL     1       8.561   8.309  18.766  0.00  0.00    +0.000 C 
BRANCH  17  18
ATOM     18  N   UNL     1       8.956   9.605  18.252  0.00  0.00    +0.000 N 
ATOM     19  C   UNL     1       9.373  10.602  19.102  0.00  0.00    +0.000 C 
ATOM     20  O   UNL     1       9.384  10.459  20.322  0.00  0.00    +0.000 OA
ATOM     21  H   UNL     1       8.926   9.743  17.250  0.00  0.00    +0.000 HD
BRANCH  19  22
ATOM     22  C   UNL     1       9.851  11.868  18.480  0.00  0.00    +0.000 A 
ATOM     23  C   UNL     1      11.031  11.926  17.706  0.00  0.00    +0.000 A 
ATOM     24  C   UNL     1      11.444  13.135  17.130  0.00  0.00    +0.000 A 
ATOM     25  C   UNL     1      10.668  14.252  17.348  0.00  0.00    +0.000 A 
ATOM     26  C   UNL     1       9.516  14.198  18.098  0.00  0.00    +0.000 A 
ATOM     27  C   UNL     1       9.076  13.023  18.671  0.00  0.00    +0.000 A 
ATOM     28  O   UNL     1       8.903  15.408  18.191  0.00  0.00    +0.000 OA
ATOM     29  C   UNL     1       9.816  16.236  17.442  0.00  0.00    +0.000 C 
ATOM     30  O   UNL     1      10.918  15.500  16.870  0.00  0.00    +0.000 OA
ENDBRANCH  19  22
ENDBRANCH  17  18
ENDBRANCH   2  17
TORSDOF 5
ENDMDL
MODEL 2
REMARK VINA RESULT:      -8.7      0.973      1.224
REMARK  Name = 
REMARK  5 active torsions:
REMARK  status: ('A' for Active; 'I' for Inactive)
REMARK    1  A    between atoms: C_2  and  C_3
REMARK    2  A    between atoms: C_3  and  N_4
REMARK    3  A    between atoms: C_5  and  C_7
REMARK    4  A    between atoms: N_16  and  C_17
REMARK    5  A    between atoms: C_21  and  N_22
REMARK                            x       y       z     vdW  Elec       q    Type
REMARK                         _______ _______ _______ _____ _____    ______ ____
ROOT
ATOM      1  O   UNL     1       6.980   8.611  17.062  0.00  0.00    +0.000 OA
ATOM      2  C   UNL     1       7.662   7.945  17.838  0.00  0.00    +0.000 C 
ATOM      3  N   UNL     1       7.545   6.583  18.075  0.00  0.00    +0.000 N 
ATOM      4  H   UNL     1       7.957   6.246  18.943  0.00  0.00    +0.000 HD
ENDROOT
BRANCH   3   5
ATOM      5  C   UNL     1       6.794   5.661  17.310  0.00  0.00    +0.000 A 
ATOM      6  C   UNL     1       7.219   5.190  16.068  0.00  0.00    +0.000 A 
ATOM      7  C   UNL     1       6.439   4.285  15.353  0.00  0.00    +0.000 A 
ATOM      8  C   UNL     1       5.233   3.825  15.881  0.00  0.00    +0.000 A 
ATOM      9  C   UNL     1       4.791   4.242  17.140  0.00  0.00    +0.000 A 
ATOM     10  C   UNL     1       5.587   5.171  17.844  0.00  0.00    +0.000 A 
BRANCH   9  11
ATOM     11  N   UNL     1       3.595   3.715  17.706  0.00  0.00    +0.000 N 
ATOM     12  C   UNL     1       3.466   2.344  18.137  0.00  0.00    +0.000 C 
ATOM     13  C   UNL     1       1.971   2.106  18.164  0.00  0.00    +0.000 C 
ATOM     14  C   UNL     1       1.401   3.460  18.533  0.00  0.00    +0.000 C 
ATOM     15  C   UNL     1       2.408   4.427  17.955  0.00  0.00    +0.000 C 
ATOM     16  O   UNL     1       2.168   5.616  17.811  0.00  0.00    +0.000 OA
ENDBRANCH   9  11
ENDBRANCH   3   5
BRANCH   2  17
ATOM     17  C   UNL     1       8.703   8.629  18.726  0.00  0.00    +0.000 C 
BRANCH  17  18
ATOM     18  N   UNL     1       9.108   9.908  18.176  0.00  0.00    +0.000 N 
ATOM     19  C   UNL     1       9.537  10.923  18.999  0.00  0.00    +0.000 C 
ATOM     20  O   UNL     1       9.551  10.812  20.222  0.00  0.00    +0.000 OA
ATOM     21  H   UNL     1       9.076  10.020  17.172  0.00  0.00    +0.000 HD
BRANCH  19  22
ATOM     22  C   UNL     1      10.024  12.168  18.342  0.00  0.00    +0.000 A 
ATOM     23  C   UNL     1      11.170  12.182  17.516  0.00  0.00    +0.000 A 
ATOM     24  C   UNL     1      11.594  13.372  16.909  0.00  0.00    +0.000 A 
ATOM     25  C   UNL     1      10.861  14.514  17.148  0.00  0.00    +0.000 A 
ATOM     26  C   UNL     1       9.742  14.503  17.948  0.00  0.00    +0.000 A 
ATOM     27  C   UNL     1       9.293  13.347  18.554  0.00  0.00    +0.000 A 
ATOM     28  O   UNL     1       9.169  15.731  18.054  0.00  0.00    +0.000 OA
ATOM     29  C   UNL     1      10.073  16.524  17.256  0.00  0.00    +0.000 C 
ATOM     30  O   UNL     1      11.126  15.749  16.645  0.00  0.00    +0.000 OA
ENDBRANCH  19  22
ENDBRANCH  17  18
ENDBRANCH   2  17
TORSDOF 5
ENDMDL
MODEL 3
REMARK VINA RESULT:      -8.4      7.176      9.290
REMARK  Name = 
REMARK  5 active torsions:
REMARK  status: ('A' for Active; 'I' for Inactive)
REMARK    1  A    between atoms: C_2  and  C_3
REMARK    2  A    between atoms: C_3  and  N_4
REMARK    3  A    between atoms: C_5  and  C_7
REMARK    4  A    between atoms: N_16  and  C_17
REMARK    5  A    between atoms: C_21  and  N_22
REMARK                            x       y       z     vdW  Elec       q    Type
REMARK                         _______ _______ _______ _____ _____    ______ ____
ROOT
ATOM      1  O   UNL     1       1.765   8.244  19.335  0.00  0.00    +0.000 OA
ATOM      2  C   UNL     1       1.747   7.719  20.446  0.00  0.00    +0.000 C 
ATOM      3  N   UNL     1       1.831   6.360  20.715  0.00  0.00    +0.000 N 
ATOM      4  H   UNL     1       1.501   6.068  21.632  0.00  0.00    +0.000 HD
ENDROOT
BRANCH   3   5
ATOM      5  C   UNL     1       2.191   5.345  19.798  0.00  0.00    +0.000 A 
ATOM      6  C   UNL     1       1.345   4.282  19.482  0.00  0.00    +0.000 A 
ATOM      7  C   UNL     1       1.750   3.306  18.576  0.00  0.00    +0.000 A 
ATOM      8  C   UNL     1       2.997   3.392  17.959  0.00  0.00    +0.000 A 
ATOM      9  C   UNL     1       3.858   4.463  18.217  0.00  0.00    +0.000 A 
ATOM     10  C   UNL     1       3.438   5.435  19.151  0.00  0.00    +0.000 A 
BRANCH   9  11
ATOM     11  N   UNL     1       5.100   4.584  17.532  0.00  0.00    +0.000 N 
ATOM     12  C   UNL     1       5.197   4.707  16.098  0.00  0.00    +0.000 C 
ATOM     13  C   UNL     1       6.621   4.292  15.789  0.00  0.00    +0.000 C 
ATOM     14  C   UNL     1       7.395   4.739  17.012  0.00  0.00    +0.000 C 
ATOM     15  C   UNL     1       6.375   4.636  18.122  0.00  0.00    +0.000 C 
ATOM     16  O   UNL     1       6.686   4.654  19.303  0.00  0.00    +0.000 OA
ENDBRANCH   9  11
ENDBRANCH   3   5
BRANCH   2  17
ATOM     17  C   UNL     1       1.527   8.573  21.694  0.00  0.00    +0.000 C 
BRANCH  17  18
ATOM     18  N   UNL     1       0.482   9.556  21.485  0.00  0.00    +0.000 N 
ATOM     19  C   UNL     1      -0.113  10.189  22.552  0.00  0.00    +0.000 C 
ATOM     20  O   UNL     1       0.174   9.919  23.715  0.00  0.00    +0.000 OA
ATOM     21  H   UNL     1       0.219   9.768  20.532  0.00  0.00    +0.000 HD
BRANCH  19  22
ATOM     22  C   UNL     1      -1.108  11.253  22.240  0.00  0.00    +0.000 A 
ATOM     23  C   UNL     1      -1.127  11.921  20.996  0.00  0.00    +0.000 A 
ATOM     24  C   UNL     1      -2.084  12.912  20.737  0.00  0.00    +0.000 A 
ATOM     25  C   UNL     1      -2.991  13.208  21.730  0.00  0.00    +0.000 A 
ATOM     26  C   UNL     1      -2.978  12.556  22.941  0.00  0.00    +0.000 A 
ATOM     27  C   UNL     1      -2.056  11.570  23.226  0.00  0.00    +0.000 A 
ATOM     28  O   UNL     1      -3.953  12.998  23.778  0.00  0.00    +0.000 OA
ATOM     29  C   UNL     1      -4.563  14.027  22.969  0.00  0.00    +0.000 C 
ATOM     30  O   UNL     1      -3.982  14.136  21.652  0.00  0.00    +0.000 OA
ENDBRANCH  19  22
ENDBRANCH  17  18
ENDBRANCH   2  17
TORSDOF 5
ENDMDL
MODEL 4
REMARK VINA RESULT:      -8.3      0.964      1.454
REMARK  Name = 
REMARK  5 active torsions:
REMARK  status: ('A' for Active; 'I' for Inactive)
REMARK    1  A    between atoms: C_2  and  C_3
REMARK    2  A    between atoms: C_3  and  N_4
REMARK    3  A    between atoms: C_5  and  C_7
REMARK    4  A    between atoms: N_16  and  C_17
REMARK    5  A    between atoms: C_21  and  N_22
REMARK                            x       y       z     vdW  Elec       q    Type
REMARK                         _______ _______ _______ _____ _____    ______ ____
ROOT
ATOM      1  O   UNL     1       7.027   8.614  17.047  0.00  0.00    +0.000 OA
ATOM      2  C   UNL     1       7.733   8.024  17.861  0.00  0.00    +0.000 C 
ATOM      3  N   UNL     1       7.618   6.694  18.240  0.00  0.00    +0.000 N 
ATOM      4  H   UNL     1       8.059   6.443  19.122  0.00  0.00    +0.000 HD
ENDROOT
BRANCH   3   5
ATOM      5  C   UNL     1       6.834   5.705  17.599  0.00  0.00    +0.000 A 
ATOM      6  C   UNL     1       7.162   5.175  16.352  0.00  0.00    +0.000 A 
ATOM      7  C   UNL     1       6.354   4.206  15.764  0.00  0.00    +0.000 A 
ATOM      8  C   UNL     1       5.218   3.742  16.425  0.00  0.00    +0.000 A 
ATOM      9  C   UNL     1       4.875   4.219  17.694  0.00  0.00    +0.000 A 
ATOM     10  C   UNL     1       5.698   5.212  18.268  0.00  0.00    +0.000 A 
BRANCH   9  11
ATOM     11  N   UNL     1       3.754   3.690  18.395  0.00  0.00    +0.000 N 
ATOM     12  C   UNL     1       2.390   3.953  18.008  0.00  0.00    +0.000 C 
ATOM     13  C   UNL     1       1.590   3.662  19.261  0.00  0.00    +0.000 C 
ATOM     14  C   UNL     1       2.376   2.556  19.936  0.00  0.00    +0.000 C 
ATOM     15  C   UNL     1       3.798   2.836  19.511  0.00  0.00    +0.000 C 
ATOM     16  O   UNL     1       4.760   2.325  20.063  0.00  0.00    +0.000 OA
ENDBRANCH   9  11
ENDBRANCH   3   5
BRANCH   2  17
ATOM     17  C   UNL     1       8.809   8.785  18.637  0.00  0.00    +0.000 C 
BRANCH  17  18
ATOM     18  N   UNL     1       8.804  10.196  18.302  0.00  0.00    +0.000 N 
ATOM     19  C   UNL     1       9.561  11.091  19.020  0.00  0.00    +0.000 C 
ATOM     20  O   UNL     1      10.228  10.752  19.994  0.00  0.00    +0.000 OA
ATOM     21  H   UNL     1       8.238  10.491  17.517  0.00  0.00    +0.000 HD
BRANCH  19  22
ATOM     22  C   UNL     1       9.570  12.504  18.546  0.00  0.00    +0.000 A 
ATOM     23  C   UNL     1       8.412  13.312  18.572  0.00  0.00    +0.000 A 
ATOM     24  C   UNL     1       8.461  14.639  18.124  0.00  0.00    +0.000 A 
ATOM     25  C   UNL     1       9.666  15.119  17.660  0.00  0.00    +0.000 A 
ATOM     26  C   UNL     1      10.797  14.336  17.637  0.00  0.00    +0.000 A 
ATOM     27  C   UNL     1      10.785  13.029  18.078  0.00  0.00    +0.000 A 
ATOM     28  O   UNL     1      11.875  14.999  17.141  0.00  0.00    +0.000 OA
ATOM     29  C   UNL     1      11.288  16.278  16.824  0.00  0.00    +0.000 C 
ATOM     30  O   UNL     1       9.895  16.373  17.189  0.00  0.00    +0.000 OA
ENDBRANCH  19  22
ENDBRANCH  17  18
ENDBRANCH   2  17
TORSDOF 5
ENDMDL
MODEL 5
REMARK VINA RESULT:      -8.2      1.105      1.725
REMARK  Name = 
REMARK  5 active torsions:
REMARK  status: ('A' for Active; 'I' for Inactive)
REMARK    1  A    between atoms: C_2  and  C_3
REMARK    2  A    between atoms: C_3  and  N_4
REMARK    3  A    between atoms: C_5  and  C_7
REMARK    4  A    between atoms: N_16  and  C_17
REMARK    5  A    between atoms: C_21  and  N_22
REMARK                            x       y       z     vdW  Elec       q    Type
REMARK                         _______ _______ _______ _____ _____    ______ ____
ROOT
ATOM      1  O   UNL     1       7.139   8.447  16.944  0.00  0.00    +0.000 OA
ATOM      2  C   UNL     1       7.697   7.834  17.851  0.00  0.00    +0.000 C 
ATOM      3  N   UNL     1       7.429   6.534  18.253  0.00  0.00    +0.000 N 
ATOM      4  H   UNL     1       7.746   6.282  19.187  0.00  0.00    +0.000 HD
ENDROOT
BRANCH   3   5
ATOM      5  C   UNL     1       6.642   5.587  17.555  0.00  0.00    +0.000 A 
ATOM      6  C   UNL     1       7.026   5.046  16.328  0.00  0.00    +0.000 A 
ATOM      7  C   UNL     1       6.212   4.120  15.682  0.00  0.00    +0.000 A 
ATOM      8  C   UNL     1       5.014   3.709  16.263  0.00  0.00    +0.000 A 
ATOM      9  C   UNL     1       4.613   4.196  17.511  0.00  0.00    +0.000 A 
ATOM     10  C   UNL     1       5.443   5.146  18.145  0.00  0.00    +0.000 A 
BRANCH   9  11
ATOM     11  N   UNL     1       3.424   3.720  18.134  0.00  0.00    +0.000 N 
ATOM     12  C   UNL     1       3.192   2.325  18.420  0.00  0.00    +0.000 C 
ATOM     13  C   UNL     1       1.688   2.227  18.574  0.00  0.00    +0.000 C 
ATOM     14  C   UNL     1       1.301   3.574  19.149  0.00  0.00    +0.000 C 
ATOM     15  C   UNL     1       2.347   4.504  18.582  0.00  0.00    +0.000 C 
ATOM     16  O   UNL     1       2.222   5.719  18.597  0.00  0.00    +0.000 OA
ENDBRANCH   9  11
ENDBRANCH   3   5
BRANCH   2  17
ATOM     17  C   UNL     1       8.739   8.537  18.723  0.00  0.00    +0.000 C 
BRANCH  17  18
ATOM     18  N   UNL     1       8.841   9.945  18.394  0.00  0.00    +0.000 N 
ATOM     19  C   UNL     1       9.274  10.856  19.329  0.00  0.00    +0.000 C 
ATOM     20  O   UNL     1       9.543  10.531  20.483  0.00  0.00    +0.000 OA
ATOM     21  H   UNL     1       8.597  10.227  17.454  0.00  0.00    +0.000 HD
BRANCH  19  22
ATOM     22  C   UNL     1       9.440  12.265  18.876  0.00  0.00    +0.000 A 
ATOM     23  C   UNL     1       8.568  13.295  19.294  0.00  0.00    +0.000 A 
ATOM     24  C   UNL     1       8.760  14.611  18.852  0.00  0.00    +0.000 A 
ATOM     25  C   UNL     1       9.816  14.859  18.002  0.00  0.00    +0.000 A 
ATOM     26  C   UNL     1      10.669  13.858  17.597  0.00  0.00    +0.000 A 
ATOM     27  C   UNL     1      10.514  12.554  18.020  0.00  0.00    +0.000 A 
ATOM     28  O   UNL     1      11.640  14.314  16.761  0.00  0.00    +0.000 OA
ATOM     29  C   UNL     1      11.282  15.708  16.659  0.00  0.00    +0.000 C 
ATOM     30  O   UNL     1      10.149  16.068  17.478  0.00  0.00    +0.000 OA
ENDBRANCH  19  22
ENDBRANCH  17  18
ENDBRANCH   2  17
TORSDOF 5
ENDMDL
MODEL 6
REMARK VINA RESULT:      -8.2      6.280      9.327
REMARK  Name = 
REMARK  5 active torsions:
REMARK  status: ('A' for Active; 'I' for Inactive)
REMARK    1  A    between atoms: C_2  and  C_3
REMARK    2  A    between atoms: C_3  and  N_4
REMARK    3  A    between atoms: C_5  and  C_7
REMARK    4  A    between atoms: N_16  and  C_17
REMARK    5  A    between atoms: C_21  and  N_22
REMARK                            x       y       z     vdW  Elec       q    Type
REMARK                         _______ _______ _______ _____ _____    ______ ____
ROOT
ATOM      1  O   UNL     1       1.878   6.953  17.768  0.00  0.00    +0.000 OA
ATOM      2  C   UNL     1       2.724   7.844  17.746  0.00  0.00    +0.000 C 
ATOM      3  N   UNL     1       4.100   7.672  17.702  0.00  0.00    +0.000 N 
ATOM      4  H   UNL     1       4.658   8.472  17.993  0.00  0.00    +0.000 HD
ENDROOT
BRANCH   3   5
ATOM      5  C   UNL     1       4.785   6.463  17.436  0.00  0.00    +0.000 A 
ATOM      6  C   UNL     1       5.107   5.544  18.434  0.00  0.00    +0.000 A 
ATOM      7  C   UNL     1       5.786   4.370  18.118  0.00  0.00    +0.000 A 
ATOM      8  C   UNL     1       6.134   4.092  16.797  0.00  0.00    +0.000 A 
ATOM      9  C   UNL     1       5.795   4.968  15.762  0.00  0.00    +0.000 A 
ATOM     10  C   UNL     1       5.119   6.160  16.102  0.00  0.00    +0.000 A 
BRANCH   9  11
ATOM     11  N   UNL     1       6.089   4.646  14.406  0.00  0.00    +0.000 N 
ATOM     12  C   UNL     1       5.177   3.921  13.555  0.00  0.00    +0.000 C 
ATOM     13  C   UNL     1       6.061   3.372  12.454  0.00  0.00    +0.000 C 
ATOM     14  C   UNL     1       7.142   4.423  12.308  0.00  0.00    +0.000 C 
ATOM     15  C   UNL     1       7.253   4.998  13.701  0.00  0.00    +0.000 C 
ATOM     16  O   UNL     1       8.200   5.684  14.054  0.00  0.00    +0.000 OA
ENDBRANCH   9  11
ENDBRANCH   3   5
BRANCH   2  17
ATOM     17  C   UNL     1       2.299   9.309  17.862  0.00  0.00    +0.000 C 
BRANCH  17  18
ATOM     18  N   UNL     1       0.871   9.462  17.659  0.00  0.00    +0.000 N 
ATOM     19  C   UNL     1       0.149  10.364  18.405  0.00  0.00    +0.000 C 
ATOM     20  O   UNL     1       0.661  11.035  19.297  0.00  0.00    +0.000 OA
ATOM     21  H   UNL     1       0.434   8.896  16.945  0.00  0.00    +0.000 HD
BRANCH  19  22
ATOM     22  C   UNL     1      -1.292  10.524  18.064  0.00  0.00    +0.000 A 
ATOM     23  C   UNL     1      -1.891   9.830  16.989  0.00  0.00    +0.000 A 
ATOM     24  C   UNL     1      -3.252  10.001  16.703  0.00  0.00    +0.000 A 
ATOM     25  C   UNL     1      -3.975  10.864  17.498  0.00  0.00    +0.000 A 
ATOM     26  C   UNL     1      -3.396  11.538  18.548  0.00  0.00    +0.000 A 
ATOM     27  C   UNL     1      -2.061  11.386  18.862  0.00  0.00    +0.000 A 
ATOM     28  O   UNL     1      -4.281  12.337  19.201  0.00  0.00    +0.000 OA
ATOM     29  C   UNL     1      -5.476  12.115  18.423  0.00  0.00    +0.000 C 
ATOM     30  O   UNL     1      -5.298  11.149  17.365  0.00  0.00    +0.000 OA
ENDBRANCH  19  22
ENDBRANCH  17  18
ENDBRANCH   2  17
TORSDOF 5
ENDMDL
MODEL 7
REMARK VINA RESULT:      -8.2      6.367      9.358
REMARK  Name = 
REMARK  5 active torsions:
REMARK  status: ('A' for Active; 'I' for Inactive)
REMARK    1  A    between atoms: C_2  and  C_3
REMARK    2  A    between atoms: C_3  and  N_4
REMARK    3  A    between atoms: C_5  and  C_7
REMARK    4  A    between atoms: N_16  and  C_17
REMARK    5  A    between atoms: C_21  and  N_22
REMARK                            x       y       z     vdW  Elec       q    Type
REMARK                         _______ _______ _______ _____ _____    ______ ____
ROOT
ATOM      1  O   UNL     1       2.004   7.835  18.439  0.00  0.00    +0.000 OA
ATOM      2  C   UNL     1       1.859   7.810  19.659  0.00  0.00    +0.000 C 
ATOM      3  N   UNL     1       2.082   6.723  20.492  0.00  0.00    +0.000 N 
ATOM      4  H   UNL     1       1.635   6.765  21.406  0.00  0.00    +0.000 HD
ENDROOT
BRANCH   3   5
ATOM      5  C   UNL     1       2.737   5.519  20.142  0.00  0.00    +0.000 A 
ATOM      6  C   UNL     1       2.437   4.297  20.743  0.00  0.00    +0.000 A 
ATOM      7  C   UNL     1       3.116   3.142  20.364  0.00  0.00    +0.000 A 
ATOM      8  C   UNL     1       4.089   3.192  19.367  0.00  0.00    +0.000 A 
ATOM      9  C   UNL     1       4.391   4.390  18.713  0.00  0.00    +0.000 A 
ATOM     10  C   UNL     1       3.704   5.554  19.120  0.00  0.00    +0.000 A 
BRANCH   9  11
ATOM     11  N   UNL     1       5.334   4.423  17.646  0.00  0.00    +0.000 N 
ATOM     12  C   UNL     1       4.955   4.322  16.258  0.00  0.00    +0.000 C 
ATOM     13  C   UNL     1       6.226   3.887  15.560  0.00  0.00    +0.000 C 
ATOM     14  C   UNL     1       7.323   4.530  16.384  0.00  0.00    +0.000 C 
ATOM     15  C   UNL     1       6.725   4.585  17.770  0.00  0.00    +0.000 C 
ATOM     16  O   UNL     1       7.400   4.792  18.767  0.00  0.00    +0.000 OA
ENDBRANCH   9  11
ENDBRANCH   3   5
BRANCH   2  17
ATOM     17  C   UNL     1       1.302   9.032  20.390  0.00  0.00    +0.000 C 
BRANCH  17  18
ATOM     18  N   UNL     1      -0.005   9.401  19.883  0.00  0.00    +0.000 N 
ATOM     19  C   UNL     1      -0.141  10.407  18.955  0.00  0.00    +0.000 C 
ATOM     20  O   UNL     1       0.818  11.063  18.555  0.00  0.00    +0.000 OA
ATOM     21  H   UNL     1      -0.805   8.885  20.224  0.00  0.00    +0.000 HD
BRANCH  19  22
ATOM     22  C   UNL     1      -1.509  10.654  18.419  0.00  0.00    +0.000 A 
ATOM     23  C   UNL     1      -1.969  10.049  17.228  0.00  0.00    +0.000 A 
ATOM     24  C   UNL     1      -3.265  10.300  16.758  0.00  0.00    +0.000 A 
ATOM     25  C   UNL     1      -4.063  11.151  17.491  0.00  0.00    +0.000 A 
ATOM     26  C   UNL     1      -3.619  11.738  18.653  0.00  0.00    +0.000 A 
ATOM     27  C   UNL     1      -2.353  11.506  19.148  0.00  0.00    +0.000 A 
ATOM     28  O   UNL     1      -4.559  12.542  19.218  0.00  0.00    +0.000 OA
ATOM     29  C   UNL     1      -5.634  12.420  18.262  0.00  0.00    +0.000 C 
ATOM     30  O   UNL     1      -5.339  11.506  17.185  0.00  0.00    +0.000 OA
ENDBRANCH  19  22
ENDBRANCH  17  18
ENDBRANCH   2  17
TORSDOF 5
ENDMDL
MODEL 8
REMARK VINA RESULT:      -8.1      5.950      9.084
REMARK  Name = 
REMARK  5 active torsions:
REMARK  status: ('A' for Active; 'I' for Inactive)
REMARK    1  A    between atoms: C_2  and  C_3
REMARK    2  A    between atoms: C_3  and  N_4
REMARK    3  A    between atoms: C_5  and  C_7
REMARK    4  A    between atoms: N_16  and  C_17
REMARK    5  A    between atoms: C_21  and  N_22
REMARK                            x       y       z     vdW  Elec       q    Type
REMARK                         _______ _______ _______ _____ _____    ______ ____
ROOT
ATOM      1  O   UNL     1       2.322   7.787  19.290  0.00  0.00    +0.000 OA
ATOM      2  C   UNL     1       1.837   7.466  20.373  0.00  0.00    +0.000 C 
ATOM      3  N   UNL     1       1.855   6.199  20.939  0.00  0.00    +0.000 N 
ATOM      4  H   UNL     1       1.165   6.029  21.668  0.00  0.00    +0.000 HD
ENDROOT
BRANCH   3   5
ATOM      5  C   UNL     1       2.630   5.098  20.506  0.00  0.00    +0.000 A 
ATOM      6  C   UNL     1       2.326   3.781  20.849  0.00  0.00    +0.000 A 
ATOM      7  C   UNL     1       3.125   2.734  20.399  0.00  0.00    +0.000 A 
ATOM      8  C   UNL     1       4.226   2.989  19.584  0.00  0.00    +0.000 A 
ATOM      9  C   UNL     1       4.542   4.291  19.183  0.00  0.00    +0.000 A 
ATOM     10  C   UNL     1       3.730   5.342  19.662  0.00  0.00    +0.000 A 
BRANCH   9  11
ATOM     11  N   UNL     1       5.624   4.540  18.293  0.00  0.00    +0.000 N 
ATOM     12  C   UNL     1       6.894   5.069  18.727  0.00  0.00    +0.000 C 
ATOM     13  C   UNL     1       7.506   5.639  17.465  0.00  0.00    +0.000 C 
ATOM     14  C   UNL     1       6.980   4.731  16.373  0.00  0.00    +0.000 C 
ATOM     15  C   UNL     1       5.639   4.288  16.910  0.00  0.00    +0.000 C 
ATOM     16  O   UNL     1       4.791   3.762  16.205  0.00  0.00    +0.000 OA
ENDBRANCH   9  11
ENDBRANCH   3   5
BRANCH   2  17
ATOM     17  C   UNL     1       1.046   8.487  21.192  0.00  0.00    +0.000 C 
BRANCH  17  18
ATOM     18  N   UNL     1      -0.077   9.012  20.441  0.00  0.00    +0.000 N 
ATOM     19  C   UNL     1       0.010  10.229  19.806  0.00  0.00    +0.000 C 
ATOM     20  O   UNL     1       1.009  10.939  19.886  0.00  0.00    +0.000 OA
ATOM     21  H   UNL     1      -0.914   8.448  20.389  0.00  0.00    +0.000 HD
BRANCH  19  22
ATOM     22  C   UNL     1      -1.156  10.646  18.979  0.00  0.00    +0.000 A 
ATOM     23  C   UNL     1      -2.104  11.589  19.438  0.00  0.00    +0.000 A 
ATOM     24  C   UNL     1      -3.185  11.962  18.627  0.00  0.00    +0.000 A 
ATOM     25  C   UNL     1      -3.289  11.380  17.383  0.00  0.00    +0.000 A 
ATOM     26  C   UNL     1      -2.366  10.465  16.931  0.00  0.00    +0.000 A 
ATOM     27  C   UNL     1      -1.286  10.083  17.700  0.00  0.00    +0.000 A 
ATOM     28  O   UNL     1      -2.654  10.013  15.682  0.00  0.00    +0.000 OA
ATOM     29  C   UNL     1      -3.881  10.722  15.411  0.00  0.00    +0.000 C 
ATOM     30  O   UNL     1      -4.268  11.622  16.471  0.00  0.00    +0.000 OA
ENDBRANCH  19  22
ENDBRANCH  17  18
ENDBRANCH   2  17
TORSDOF 5
ENDMDL
MODEL 9
REMARK VINA RESULT:      -8.1      7.239     10.017
REMARK  Name = 
REMARK  5 active torsions:
REMARK  status: ('A' for Active; 'I' for Inactive)
REMARK    1  A    between atoms: C_2  and  C_3
REMARK    2  A    between atoms: C_3  and  N_4
REMARK    3  A    between atoms: C_5  and  C_7
REMARK    4  A    between atoms: N_16  and  C_17
REMARK    5  A    between atoms: C_21  and  N_22
REMARK                            x       y       z     vdW  Elec       q    Type
REMARK                         _______ _______ _______ _____ _____    ______ ____
ROOT
ATOM      1  O   UNL     1       1.953   8.830  17.274  0.00  0.00    +0.000 OA
ATOM      2  C   UNL     1       1.656   9.193  18.410  0.00  0.00    +0.000 C 
ATOM      3  N   UNL     1       1.663   8.407  19.553  0.00  0.00    +0.000 N 
ATOM      4  H   UNL     1       1.114   8.755  20.336  0.00  0.00    +0.000 HD
ENDROOT
BRANCH   3   5
ATOM      5  C   UNL     1       2.233   7.118  19.680  0.00  0.00    +0.000 A 
ATOM      6  C   UNL     1       1.670   6.121  20.476  0.00  0.00    +0.000 A 
ATOM      7  C   UNL     1       2.273   4.870  20.569  0.00  0.00    +0.000 A 
ATOM      8  C   UNL     1       3.437   4.594  19.852  0.00  0.00    +0.000 A 
ATOM      9  C   UNL     1       4.011   5.553  19.012  0.00  0.00    +0.000 A 
ATOM     10  C   UNL     1       3.394   6.821  18.941  0.00  0.00    +0.000 A 
BRANCH   9  11
ATOM     11  N   UNL     1       5.158   5.244  18.227  0.00  0.00    +0.000 N 
ATOM     12  C   UNL     1       5.106   5.060  16.797  0.00  0.00    +0.000 C 
ATOM     13  C   UNL     1       6.359   4.271  16.482  0.00  0.00    +0.000 C 
ATOM     14  C   UNL     1       7.353   4.752  17.520  0.00  0.00    +0.000 C 
ATOM     15  C   UNL     1       6.476   5.108  18.697  0.00  0.00    +0.000 C 
ATOM     16  O   UNL     1       6.924   5.281  19.820  0.00  0.00    +0.000 OA
ENDBRANCH   9  11
ENDBRANCH   3   5
BRANCH   2  17
ATOM     17  C   UNL     1       1.139  10.612  18.652  0.00  0.00    +0.000 C 
BRANCH  17  18
ATOM     18  N   UNL     1      -0.223  10.765  18.179  0.00  0.00    +0.000 N 
ATOM     19  C   UNL     1      -1.220  11.184  19.029  0.00  0.00    +0.000 C 
ATOM     20  O   UNL     1      -1.016  11.396  20.222  0.00  0.00    +0.000 OA
ATOM     21  H   UNL     1      -0.408  10.568  17.204  0.00  0.00    +0.000 HD
BRANCH  19  22
ATOM     22  C   UNL     1      -2.568  11.406  18.436  0.00  0.00    +0.000 A 
ATOM     23  C   UNL     1      -2.862  11.074  17.095  0.00  0.00    +0.000 A 
ATOM     24  C   UNL     1      -4.144  11.291  16.574  0.00  0.00    +0.000 A 
ATOM     25  C   UNL     1      -5.096  11.836  17.408  0.00  0.00    +0.000 A 
ATOM     26  C   UNL     1      -4.814  12.157  18.716  0.00  0.00    +0.000 A 
ATOM     27  C   UNL     1      -3.565  11.948  19.262  0.00  0.00    +0.000 A 
ATOM     28  O   UNL     1      -5.888  12.683  19.362  0.00  0.00    +0.000 OA
ATOM     29  C   UNL     1      -6.869  12.688  18.304  0.00  0.00    +0.000 C 
ATOM     30  O   UNL     1      -6.383  12.114  17.072  0.00  0.00    +0.000 OA
ENDBRANCH  19  22
ENDBRANCH  17  18
ENDBRANCH   2  17
TORSDOF 5
ENDMDL
