MODEL 1
REMARK VINA RESULT:      -8.6      0.000      0.000
REMARK  Name = 
REMARK  7 active torsions:
REMARK  status: ('A' for Active; 'I' for Inactive)
REMARK    1  A    between atoms: C_2  and  C_11
REMARK    2  A    between atoms: N_3  and  C_4
REMARK    3  A    between atoms: C_4  and  C_5
REMARK    4  A    between atoms: C_15  and  O_16
REMARK    5  A    between atoms: O_16  and  C_17
REMARK    6  A    between atoms: C_17  and  C_18
REMARK    7  A    between atoms: C_20  and  C_21
REMARK                            x       y       z     vdW  Elec       q    Type
REMARK                         _______ _______ _______ _____ _____    ______ ____
ROOT
ATOM      1  C   UNL     1       3.412   5.152  18.835  0.00  0.00    +0.000 A 
ATOM      2  C   UNL     1       2.777   4.124  18.131  0.00  0.00    +0.000 A 
ATOM      3  C   UNL     1       3.425   3.506  17.061  0.00  0.00    +0.000 A 
ATOM      4  C   UNL     1       4.714   3.906  16.702  0.00  0.00    +0.000 A 
ATOM      5  C   UNL     1       5.362   4.915  17.418  0.00  0.00    +0.000 A 
ATOM      6  C   UNL     1       4.705   5.549  18.478  0.00  0.00    +0.000 A 
ENDROOT
BRANCH   1   8
ATOM      7  O   UNL     1       2.420   5.068  20.960  0.00  0.00    +0.000 OA
ATOM      8  C   UNL     1       2.692   5.760  19.983  0.00  0.00    +0.000 C 
ATOM      9  N   UNL     1       2.337   7.086  19.870  0.00  0.00    +0.000 N 
ATOM     10  H   UNL     1       2.346   7.528  18.961  0.00  0.00    +0.000 HD
BRANCH   9  11
ATOM     11  C   UNL     1       1.539   7.702  20.905  0.00  0.00    +0.000 C 
BRANCH  11  12
ATOM     12  C   UNL     1       0.940   9.009  20.464  0.00  0.00    +0.000 A 
ATOM     13  C   UNL     1       1.118   9.470  19.152  0.00  0.00    +0.000 A 
ATOM     14  C   UNL     1       0.478  10.632  18.716  0.00  0.00    +0.000 A 
ATOM     15  C   UNL     1      -0.341  11.346  19.587  0.00  0.00    +0.000 A 
ATOM     16  C   UNL     1      -0.513  10.909  20.899  0.00  0.00    +0.000 A 
ATOM     17  C   UNL     1       0.125   9.747  21.336  0.00  0.00    +0.000 A 
ENDBRANCH  11  12
ENDBRANCH   9  11
ENDBRANCH   1   8
BRANCH   5  18
ATOM     18  O   UNL     1       6.614   5.390  17.146  0.00  0.00    +0.000 OA
BRANCH  18  19
ATOM     19  C   UNL     1       7.421   5.707  18.283  0.00  0.00    +0.000 C 
BRANCH  19  20
ATOM     20  C   UNL     1       7.760   7.146  18.192  0.00  0.00    +0.000 A 
ATOM     21  N   UNL     1       8.583   7.872  18.915  0.00  0.00    +0.000 NA
ATOM     22  C   UNL     1       8.491   9.111  18.315  0.00  0.00    +0.000 A 
ATOM     23  N   UNL     1       7.663   9.143  17.257  0.00  0.00    +0.000 NA
ATOM     24  O   UNL     1       7.179   7.842  17.173  0.00  0.00    +0.000 OA
BRANCH  22  25
ATOM     25  C   UNL     1       9.245  10.266  18.790  0.00  0.00    +0.000 A 
ATOM     26  C   UNL     1       9.826  11.160  17.875  0.00  0.00    +0.000 A 
ATOM     27  C   UNL     1      10.538  12.274  18.326  0.00  0.00    +0.000 A 
ATOM     28  C   UNL     1      10.674  12.494  19.690  0.00  0.00    +0.000 A 
ATOM     29  F   UNL     1      11.352  13.565  20.122  0.00  0.00    +0.000 F 
ATOM     30  C   UNL     1      10.116  11.619  20.615  0.00  0.00    +0.000 A 
ATOM     31  C   UNL     1       9.402  10.506  20.166  0.00  0.00    +0.000 A 
ENDBRANCH  22  25
ENDBRANCH  19  20
ENDBRANCH  18  19
ENDBRANCH   5  18
TORSDOF 7
ENDMDL
MODEL 2
REMARK VINA RESULT:      -8.5      1.460      1.909
REMARK  Name = 
REMARK  7 active torsions:
REMARK  status: ('A' for Active; 'I' for Inactive)
REMARK    1  A    between atoms: C_2  and  C_11
REMARK    2  A    between atoms: N_3  and  C_4
REMARK    3  A    between atoms: C_4  and  C_5
REMARK    4  A    between atoms: C_15  and  O_16
REMARK    5  A    between atoms: O_16  and  C_17
REMARK    6  A    between atoms: C_17  and  C_18
REMARK    7  A    between atoms: C_20  and  C_21
REMARK                            x       y       z     vdW  Elec       q    Type
REMARK                         _______ _______ _______ _____ _____    ______ ____
ROOT
ATOM      1  C   UNL     1       3.147   6.273  18.287  0.00  0.00    +0.000 A 
ATOM      2  C   UNL     1       2.369   5.154  17.973  0.00  0.00    +0.000 A 
ATOM      3  C   UNL     1       2.914   3.874  18.073  0.00  0.00    +0.000 A 
ATOM      4  C   UNL     1       4.234   3.710  18.500  0.00  0.00    +0.000 A 
ATOM      5  C   UNL     1       5.006   4.823  18.840  0.00  0.00    +0.000 A 
ATOM      6  C   UNL     1       4.467   6.108  18.720  0.00  0.00    +0.000 A 
ENDROOT
BRANCH   1   8
ATOM      7  O   UNL     1       2.635   8.266  17.158  0.00  0.00    +0.000 OA
ATOM      8  C   UNL     1       2.512   7.613  18.190  0.00  0.00    +0.000 C 
ATOM      9  N   UNL     1       1.832   8.066  19.298  0.00  0.00    +0.000 N 
ATOM     10  H   UNL     1       1.982   7.618  20.193  0.00  0.00    +0.000 HD
BRANCH   9  11
ATOM     11  C   UNL     1       1.288   9.404  19.304  0.00  0.00    +0.000 C 
BRANCH  11  12
ATOM     12  C   UNL     1       0.625   9.747  20.610  0.00  0.00    +0.000 A 
ATOM     13  C   UNL     1       0.278  11.072  20.909  0.00  0.00    +0.000 A 
ATOM     14  C   UNL     1      -0.427  11.373  22.076  0.00  0.00    +0.000 A 
ATOM     15  C   UNL     1      -0.787  10.356  22.957  0.00  0.00    +0.000 A 
ATOM     16  C   UNL     1      -0.433   9.037  22.681  0.00  0.00    +0.000 A 
ATOM     17  C   UNL     1       0.271   8.733  21.514  0.00  0.00    +0.000 A 
ENDBRANCH  11  12
ENDBRANCH   9  11
ENDBRANCH   1   8
BRANCH   5  18
ATOM     18  O   UNL     1       6.307   4.778  19.257  0.00  0.00    +0.000 OA
BRANCH  18  19
ATOM     19  C   UNL     1       7.294   4.906  18.231  0.00  0.00    +0.000 C 
BRANCH  19  20
ATOM     20  C   UNL     1       7.506   6.355  18.005  0.00  0.00    +0.000 A 
ATOM     21  N   UNL     1       8.155   7.241  18.727  0.00  0.00    +0.000 NA
ATOM     22  C   UNL     1       8.027   8.390  17.972  0.00  0.00    +0.000 A 
ATOM     23  N   UNL     1       7.347   8.214  16.827  0.00  0.00    +0.000 NA
ATOM     24  O   UNL     1       7.002   6.867  16.847  0.00  0.00    +0.000 OA
BRANCH  22  25
ATOM     25  C   UNL     1       8.601   9.664  18.389  0.00  0.00    +0.000 A 
ATOM     26  C   UNL     1       8.438  10.810  17.593  0.00  0.00    +0.000 A 
ATOM     27  C   UNL     1       8.975  12.036  17.995  0.00  0.00    +0.000 A 
ATOM     28  C   UNL     1       9.678  12.116  19.190  0.00  0.00    +0.000 A 
ATOM     29  F   UNL     1      10.188  13.292  19.578  0.00  0.00    +0.000 F 
ATOM     30  C   UNL     1       9.860  10.996  19.990  0.00  0.00    +0.000 A 
ATOM     31  C   UNL     1       9.322   9.770  19.591  0.00  0.00    +0.000 A 
ENDBRANCH  22  25
ENDBRANCH  19  20
ENDBRANCH  18  19
ENDBRANCH   5  18
TORSDOF 7
ENDMDL
MODEL 3
REMARK VINA RESULT:      -8.5      1.342      1.907
REMARK  Name = 
REMARK  7 active torsions:
REMARK  status: ('A' for Active; 'I' for Inactive)
REMARK    1  A    between atoms: C_2  and  C_11
REMARK    2  A    between atoms: N_3  and  C_4
REMARK    3  A    between atoms: C_4  and  C_5
REMARK    4  A    between atoms: C_15  and  O_16
REMARK    5  A    between atoms: O_16  and  C_17
REMARK    6  A    between atoms: C_17  and  C_18
REMARK    7  A    between atoms: C_20  and  C_21
REMARK                            x       y       z     vdW  Elec       q    Type
REMARK                         _______ _______ _______ _____ _____    ______ ____
ROOT
ATOM      1  C   UNL     1       3.230   6.640  18.451  0.00  0.00    +0.000 A 
ATOM      2  C   UNL     1       2.689   5.595  19.208  0.00  0.00    +0.000 A 
ATOM      3  C   UNL     1       3.415   4.419  19.396  0.00  0.00    +0.000 A 
ATOM      4  C   UNL     1       4.689   4.291  18.839  0.00  0.00    +0.000 A 
ATOM      5  C   UNL     1       5.244   5.341  18.104  0.00  0.00    +0.000 A 
ATOM      6  C   UNL     1       4.508   6.512  17.898  0.00  0.00    +0.000 A 
ENDROOT
BRANCH   1   8
ATOM      7  O   UNL     1       2.488   8.516  17.254  0.00  0.00    +0.000 OA
ATOM      8  C   UNL     1       2.428   7.881  18.303  0.00  0.00    +0.000 C 
ATOM      9  N   UNL     1       1.670   8.271  19.385  0.00  0.00    +0.000 N 
ATOM     10  H   UNL     1       1.857   7.871  20.294  0.00  0.00    +0.000 HD
BRANCH   9  11
ATOM     11  C   UNL     1       0.956   9.526  19.340  0.00  0.00    +0.000 C 
BRANCH  11  12
ATOM     12  C   UNL     1       0.275   9.843  20.644  0.00  0.00    +0.000 A 
ATOM     13  C   UNL     1       0.158   8.868  21.644  0.00  0.00    +0.000 A 
ATOM     14  C   UNL     1      -0.384   9.192  22.890  0.00  0.00    +0.000 A 
ATOM     15  C   UNL     1      -0.817  10.492  23.146  0.00  0.00    +0.000 A 
ATOM     16  C   UNL     1      -0.722  11.466  22.154  0.00  0.00    +0.000 A 
ATOM     17  C   UNL     1      -0.180  11.144  20.909  0.00  0.00    +0.000 A 
ENDBRANCH  11  12
ENDBRANCH   9  11
ENDBRANCH   1   8
BRANCH   5  18
ATOM     18  O   UNL     1       6.474   5.318  17.508  0.00  0.00    +0.000 OA
BRANCH  18  19
ATOM     19  C   UNL     1       7.583   5.634  18.353  0.00  0.00    +0.000 C 
BRANCH  19  20
ATOM     20  C   UNL     1       7.856   7.081  18.194  0.00  0.00    +0.000 A 
ATOM     21  N   UNL     1       8.534   7.906  18.960  0.00  0.00    +0.000 NA
ATOM     22  C   UNL     1       8.462   9.091  18.257  0.00  0.00    +0.000 A 
ATOM     23  N   UNL     1       7.787   8.995  17.099  0.00  0.00    +0.000 NA
ATOM     24  O   UNL     1       7.386   7.664  17.056  0.00  0.00    +0.000 OA
BRANCH  22  25
ATOM     25  C   UNL     1       9.084  10.320  18.734  0.00  0.00    +0.000 A 
ATOM     26  C   UNL     1       9.129  11.459  17.913  0.00  0.00    +0.000 A 
ATOM     27  C   UNL     1       9.712  12.643  18.371  0.00  0.00    +0.000 A 
ATOM     28  C   UNL     1      10.254  12.689  19.649  0.00  0.00    +0.000 A 
ATOM     29  F   UNL     1      10.808  13.825  20.091  0.00  0.00    +0.000 F 
ATOM     30  C   UNL     1      10.229  11.574  20.478  0.00  0.00    +0.000 A 
ATOM     31  C   UNL     1       9.645  10.390  20.021  0.00  0.00    +0.000 A 
ENDBRANCH  22  25
ENDBRANCH  19  20
ENDBRANCH  18  19
ENDBRANCH   5  18
TORSDOF 7
ENDMDL
MODEL 4
REMARK VINA RESULT:      -8.4      6.062     10.516
REMARK  Name = 
REMARK  7 active torsions:
REMARK  status: ('A' for Active; 'I' for Inactive)
REMARK    1  A    between atoms: C_2  and  C_11
REMARK    2  A    between atoms: N_3  and  C_4
REMARK    3  A    between atoms: C_4  and  C_5
REMARK    4  A    between atoms: C_15  and  O_16
REMARK    5  A    between atoms: O_16  and  C_17
REMARK    6  A    between atoms: C_17  and  C_18
REMARK    7  A    between atoms: C_20  and  C_21
REMARK                            x       y       z     vdW  Elec       q    Type
REMARK                         _______ _______ _______ _____ _____    ______ ____
ROOT
ATOM      1  C   UNL     1       0.824   9.768  18.329  0.00  0.00    +0.000 A 
ATOM      2  C   UNL     1      -0.418   9.484  17.751  0.00  0.00    +0.000 A 
ATOM      3  C   UNL     1      -1.436  10.438  17.779  0.00  0.00    +0.000 A 
ATOM      4  C   UNL     1      -1.209  11.681  18.373  0.00  0.00    +0.000 A 
ATOM      5  C   UNL     1       0.038  11.978  18.928  0.00  0.00    +0.000 A 
ATOM      6  C   UNL     1       1.052  11.015  18.918  0.00  0.00    +0.000 A 
ENDROOT
BRANCH   1   8
ATOM      7  O   UNL     1       2.550   8.625  17.223  0.00  0.00    +0.000 OA
ATOM      8  C   UNL     1       1.883   8.729  18.248  0.00  0.00    +0.000 C 
ATOM      9  N   UNL     1       2.040   7.908  19.343  0.00  0.00    +0.000 N 
ATOM     10  H   UNL     1       1.309   7.861  20.040  0.00  0.00    +0.000 HD
BRANCH   9  11
ATOM     11  C   UNL     1       2.978   6.811  19.283  0.00  0.00    +0.000 C 
BRANCH  11  12
ATOM     12  C   UNL     1       2.294   5.471  19.319  0.00  0.00    +0.000 A 
ATOM     13  C   UNL     1       1.834   4.937  20.532  0.00  0.00    +0.000 A 
ATOM     14  C   UNL     1       1.112   3.742  20.550  0.00  0.00    +0.000 A 
ATOM     15  C   UNL     1       0.846   3.068  19.360  0.00  0.00    +0.000 A 
ATOM     16  C   UNL     1       1.312   3.580  18.151  0.00  0.00    +0.000 A 
ATOM     17  C   UNL     1       2.033   4.774  18.130  0.00  0.00    +0.000 A 
ENDBRANCH  11  12
ENDBRANCH   9  11
ENDBRANCH   1   8
BRANCH   5  18
ATOM     18  O   UNL     1       0.363  13.155  19.542  0.00  0.00    +0.000 OA
BRANCH  18  19
ATOM     19  C   UNL     1       0.847  13.045  20.883  0.00  0.00    +0.000 C 
BRANCH  19  20
ATOM     20  C   UNL     1      -0.306  12.673  21.736  0.00  0.00    +0.000 A 
ATOM     21  N   UNL     1      -1.538  13.133  21.745  0.00  0.00    +0.000 NA
ATOM     22  C   UNL     1      -2.133  12.364  22.725  0.00  0.00    +0.000 A 
ATOM     23  N   UNL     1      -1.310  11.459  23.280  0.00  0.00    +0.000 NA
ATOM     24  O   UNL     1      -0.100  11.661  22.625  0.00  0.00    +0.000 OA
BRANCH  22  25
ATOM     25  C   UNL     1      -3.534  12.524  23.097  0.00  0.00    +0.000 A 
ATOM     26  C   UNL     1      -4.497  12.836  22.123  0.00  0.00    +0.000 A 
ATOM     27  C   UNL     1      -5.842  12.977  22.473  0.00  0.00    +0.000 A 
ATOM     28  C   UNL     1      -6.225  12.810  23.798  0.00  0.00    +0.000 A 
ATOM     29  F   UNL     1      -7.515  12.939  24.133  0.00  0.00    +0.000 F 
ATOM     30  C   UNL     1      -5.291  12.509  24.781  0.00  0.00    +0.000 A 
ATOM     31  C   UNL     1      -3.946  12.367  24.432  0.00  0.00    +0.000 A 
ENDBRANCH  22  25
ENDBRANCH  19  20
ENDBRANCH  18  19
ENDBRANCH   5  18
TORSDOF 7
ENDMDL
MODEL 5
REMARK VINA RESULT:      -8.4      2.029      2.825
REMARK  Name = 
REMARK  7 active torsions:
REMARK  status: ('A' for Active; 'I' for Inactive)
REMARK    1  A    between atoms: C_2  and  C_11
REMARK    2  A    between atoms: N_3  and  C_4
REMARK    3  A    between atoms: C_4  and  C_5
REMARK    4  A    between atoms: C_15  and  O_16
REMARK    5  A    between atoms: O_16  and  C_17
REMARK    6  A    between atoms: C_17  and  C_18
REMARK    7  A    between atoms: C_20  and  C_21
REMARK                            x       y       z     vdW  Elec       q    Type
REMARK                         _______ _______ _______ _____ _____    ______ ____
ROOT
ATOM      1  C   UNL     1       2.782   7.784  17.862  0.00  0.00    +0.000 A 
ATOM      2  C   UNL     1       2.307   6.671  18.564  0.00  0.00    +0.000 A 
ATOM      3  C   UNL     1       2.921   5.428  18.401  0.00  0.00    +0.000 A 
ATOM      4  C   UNL     1       4.020   5.301  17.548  0.00  0.00    +0.000 A 
ATOM      5  C   UNL     1       4.513   6.415  16.866  0.00  0.00    +0.000 A 
ATOM      6  C   UNL     1       3.885   7.656  17.012  0.00  0.00    +0.000 A 
ENDROOT
BRANCH   1   8
ATOM      7  O   UNL     1       2.445  10.064  17.422  0.00  0.00    +0.000 OA
ATOM      8  C   UNL     1       2.111   9.089  18.090  0.00  0.00    +0.000 C 
ATOM      9  N   UNL     1       1.152   9.138  19.077  0.00  0.00    +0.000 N 
ATOM     10  H   UNL     1       1.104   8.395  19.762  0.00  0.00    +0.000 HD
BRANCH   9  11
ATOM     11  C   UNL     1       0.544  10.402  19.420  0.00  0.00    +0.000 C 
BRANCH  11  12
ATOM     12  C   UNL     1      -0.805  10.581  18.779  0.00  0.00    +0.000 A 
ATOM     13  C   UNL     1      -1.723  11.507  19.293  0.00  0.00    +0.000 A 
ATOM     14  C   UNL     1      -2.934  11.743  18.638  0.00  0.00    +0.000 A 
ATOM     15  C   UNL     1      -3.240  11.052  17.467  0.00  0.00    +0.000 A 
ATOM     16  C   UNL     1      -2.344  10.116  16.956  0.00  0.00    +0.000 A 
ATOM     17  C   UNL     1      -1.133   9.880  17.608  0.00  0.00    +0.000 A 
ENDBRANCH  11  12
ENDBRANCH   9  11
ENDBRANCH   1   8
BRANCH   5  18
ATOM     18  O   UNL     1       5.571   6.400  16.000  0.00  0.00    +0.000 OA
BRANCH  18  19
ATOM     19  C   UNL     1       6.766   5.785  16.488  0.00  0.00    +0.000 C 
BRANCH  19  20
ATOM     20  C   UNL     1       7.465   6.789  17.325  0.00  0.00    +0.000 A 
ATOM     21  N   UNL     1       7.652   8.075  17.128  0.00  0.00    +0.000 NA
ATOM     22  C   UNL     1       8.326   8.454  18.272  0.00  0.00    +0.000 A 
ATOM     23  N   UNL     1       8.527   7.451  19.142  0.00  0.00    +0.000 NA
ATOM     24  O   UNL     1       7.956   6.347  18.517  0.00  0.00    +0.000 OA
BRANCH  22  25
ATOM     25  C   UNL     1       8.757   9.828  18.503  0.00  0.00    +0.000 A 
ATOM     26  C   UNL     1       9.561  10.143  19.612  0.00  0.00    +0.000 A 
ATOM     27  C   UNL     1       9.987  11.455  19.830  0.00  0.00    +0.000 A 
ATOM     28  C   UNL     1       9.607  12.455  18.943  0.00  0.00    +0.000 A 
ATOM     29  F   UNL     1      10.020  13.712  19.149  0.00  0.00    +0.000 F 
ATOM     30  C   UNL     1       8.806  12.170  17.844  0.00  0.00    +0.000 A 
ATOM     31  C   UNL     1       8.381  10.858  17.624  0.00  0.00    +0.000 A 
ENDBRANCH  22  25
ENDBRANCH  19  20
ENDBRANCH  18  19
ENDBRANCH   5  18
TORSDOF 7
ENDMDL
MODEL 6
REMARK VINA RESULT:      -8.4      3.099      4.179
REMARK  Name = 
REMARK  7 active torsions:
REMARK  status: ('A' for Active; 'I' for Inactive)
REMARK    1  A    between atoms: C_2  and  C_11
REMARK    2  A    between atoms: N_3  and  C_4
REMARK    3  A    between atoms: C_4  and  C_5
REMARK    4  A    between atoms: C_15  and  O_16
REMARK    5  A    between atoms: O_16  and  C_17
REMARK    6  A    between atoms: C_17  and  C_18
REMARK    7  A    between atoms: C_20  and  C_21
REMARK                            x       y       z     vdW  Elec       q    Type
REMARK                         _______ _______ _______ _____ _____    ______ ____
ROOT
ATOM      1  C   UNL     1       5.608   4.045  16.598  0.00  0.00    +0.000 A 
ATOM      2  C   UNL     1       5.631   3.621  15.266  0.00  0.00    +0.000 A 
ATOM      3  C   UNL     1       6.371   4.330  14.319  0.00  0.00    +0.000 A 
ATOM      4  C   UNL     1       7.102   5.455  14.707  0.00  0.00    +0.000 A 
ATOM      5  C   UNL     1       7.104   5.866  16.042  0.00  0.00    +0.000 A 
ATOM      6  C   UNL     1       6.345   5.169  16.986  0.00  0.00    +0.000 A 
ENDROOT
BRANCH   1   8
ATOM      7  O   UNL     1       3.824   2.642  17.194  0.00  0.00    +0.000 OA
ATOM      8  C   UNL     1       4.826   3.241  17.572  0.00  0.00    +0.000 C 
ATOM      9  N   UNL     1       5.265   3.237  18.878  0.00  0.00    +0.000 N 
ATOM     10  H   UNL     1       5.923   3.942  19.184  0.00  0.00    +0.000 HD
BRANCH   9  11
ATOM     11  C   UNL     1       4.485   2.565  19.891  0.00  0.00    +0.000 C 
BRANCH  11  12
ATOM     12  C   UNL     1       3.178   3.259  20.161  0.00  0.00    +0.000 A 
ATOM     13  C   UNL     1       3.123   4.654  20.289  0.00  0.00    +0.000 A 
ATOM     14  C   UNL     1       1.896   5.303  20.439  0.00  0.00    +0.000 A 
ATOM     15  C   UNL     1       0.714   4.566  20.468  0.00  0.00    +0.000 A 
ATOM     16  C   UNL     1       0.756   3.177  20.359  0.00  0.00    +0.000 A 
ATOM     17  C   UNL     1       1.982   2.526  20.208  0.00  0.00    +0.000 A 
ENDBRANCH  11  12
ENDBRANCH   9  11
ENDBRANCH   1   8
BRANCH   5  18
ATOM     18  O   UNL     1       7.772   6.956  16.526  0.00  0.00    +0.000 OA
BRANCH  18  19
ATOM     19  C   UNL     1       7.146   7.636  17.616  0.00  0.00    +0.000 C 
BRANCH  19  20
ATOM     20  C   UNL     1       8.020   8.776  17.981  0.00  0.00    +0.000 A 
ATOM     21  N   UNL     1       8.157   9.954  17.416  0.00  0.00    +0.000 NA
ATOM     22  C   UNL     1       9.078  10.571  18.239  0.00  0.00    +0.000 A 
ATOM     23  N   UNL     1       9.474   9.814  19.276  0.00  0.00    +0.000 NA
ATOM     24  O   UNL     1       8.773   8.625  19.107  0.00  0.00    +0.000 OA
BRANCH  22  25
ATOM     25  C   UNL     1       9.552  11.929  17.998  0.00  0.00    +0.000 A 
ATOM     26  C   UNL     1      10.800  12.149  17.391  0.00  0.00    +0.000 A 
ATOM     27  C   UNL     1      11.252  13.448  17.147  0.00  0.00    +0.000 A 
ATOM     28  C   UNL     1      10.459  14.529  17.512  0.00  0.00    +0.000 A 
ATOM     29  F   UNL     1      10.890  15.774  17.273  0.00  0.00    +0.000 F 
ATOM     30  C   UNL     1       9.225  14.338  18.122  0.00  0.00    +0.000 A 
ATOM     31  C   UNL     1       8.772  13.040  18.365  0.00  0.00    +0.000 A 
ENDBRANCH  22  25
ENDBRANCH  19  20
ENDBRANCH  18  19
ENDBRANCH   5  18
TORSDOF 7
ENDMDL
MODEL 7
REMARK VINA RESULT:      -8.2      0.844      1.486
REMARK  Name = 
REMARK  7 active torsions:
REMARK  status: ('A' for Active; 'I' for Inactive)
REMARK    1  A    between atoms: C_2  and  C_11
REMARK    2  A    between atoms: N_3  and  C_4
REMARK    3  A    between atoms: C_4  and  C_5
REMARK    4  A    between atoms: C_15  and  O_16
REMARK    5  A    between atoms: O_16  and  C_17
REMARK    6  A    between atoms: C_17  and  C_18
REMARK    7  A    between atoms: C_20  and  C_21
REMARK                            x       y       z     vdW  Elec       q    Type
REMARK                         _______ _______ _______ _____ _____    ______ ____
ROOT
ATOM      1  C   UNL     1       3.172   5.149  19.526  0.00  0.00    +0.000 A 
ATOM      2  C   UNL     1       3.222   3.753  19.597  0.00  0.00    +0.000 A 
ATOM      3  C   UNL     1       4.224   3.055  18.922  0.00  0.00    +0.000 A 
ATOM      4  C   UNL     1       5.185   3.753  18.187  0.00  0.00    +0.000 A 
ATOM      5  C   UNL     1       5.154   5.148  18.134  0.00  0.00    +0.000 A 
ATOM      6  C   UNL     1       4.138   5.847  18.793  0.00  0.00    +0.000 A 
ENDROOT
BRANCH   1   8
ATOM      7  O   UNL     1       1.169   5.199  20.748  0.00  0.00    +0.000 OA
ATOM      8  C   UNL     1       2.102   5.848  20.284  0.00  0.00    +0.000 C 
ATOM      9  N   UNL     1       2.207   7.216  20.400  0.00  0.00    +0.000 N 
ATOM     10  H   UNL     1       2.835   7.721  19.789  0.00  0.00    +0.000 HD
BRANCH   9  11
ATOM     11  C   UNL     1       1.143   7.962  21.030  0.00  0.00    +0.000 C 
BRANCH  11  12
ATOM     12  C   UNL     1       0.981   9.337  20.440  0.00  0.00    +0.000 A 
ATOM     13  C   UNL     1       0.687  10.435  21.260  0.00  0.00    +0.000 A 
ATOM     14  C   UNL     1       0.636  11.725  20.726  0.00  0.00    +0.000 A 
ATOM     15  C   UNL     1       0.875  11.928  19.368  0.00  0.00    +0.000 A 
ATOM     16  C   UNL     1       1.151  10.842  18.539  0.00  0.00    +0.000 A 
ATOM     17  C   UNL     1       1.203   9.553  19.072  0.00  0.00    +0.000 A 
ENDBRANCH  11  12
ENDBRANCH   9  11
ENDBRANCH   1   8
BRANCH   5  18
ATOM     18  O   UNL     1       6.034   5.927  17.437  0.00  0.00    +0.000 OA
BRANCH  18  19
ATOM     19  C   UNL     1       7.358   6.002  17.972  0.00  0.00    +0.000 C 
BRANCH  19  20
ATOM     20  C   UNL     1       7.727   7.435  18.028  0.00  0.00    +0.000 A 
ATOM     21  N   UNL     1       8.666   8.044  18.718  0.00  0.00    +0.000 NA
ATOM     22  C   UNL     1       8.532   9.355  18.309  0.00  0.00    +0.000 A 
ATOM     23  N   UNL     1       7.567   9.543  17.394  0.00  0.00    +0.000 NA
ATOM     24  O   UNL     1       7.034   8.272  17.206  0.00  0.00    +0.000 OA
BRANCH  22  25
ATOM     25  C   UNL     1       9.382  10.423  18.823  0.00  0.00    +0.000 A 
ATOM     26  C   UNL     1       9.301  10.808  20.172  0.00  0.00    +0.000 A 
ATOM     27  C   UNL     1      10.123  11.822  20.671  0.00  0.00    +0.000 A 
ATOM     28  C   UNL     1      11.023  12.454  19.823  0.00  0.00    +0.000 A 
ATOM     29  F   UNL     1      11.815  13.421  20.302  0.00  0.00    +0.000 F 
ATOM     30  C   UNL     1      11.116  12.096  18.484  0.00  0.00    +0.000 A 
ATOM     31  C   UNL     1      10.296  11.082  17.984  0.00  0.00    +0.000 A 
ENDBRANCH  22  25
ENDBRANCH  19  20
ENDBRANCH  18  19
ENDBRANCH   5  18
TORSDOF 7
ENDMDL
MODEL 8
REMARK VINA RESULT:      -8.1      5.012      8.785
REMARK  Name = 
REMARK  7 active torsions:
REMARK  status: ('A' for Active; 'I' for Inactive)
REMARK    1  A    between atoms: C_2  and  C_11
REMARK    2  A    between atoms: N_3  and  C_4
REMARK    3  A    between atoms: C_4  and  C_5
REMARK    4  A    between atoms: C_15  and  O_16
REMARK    5  A    between atoms: O_16  and  C_17
REMARK    6  A    between atoms: C_17  and  C_18
REMARK    7  A    between atoms: C_20  and  C_21
REMARK                            x       y       z     vdW  Elec       q    Type
REMARK                         _______ _______ _______ _____ _____    ______ ____
ROOT
ATOM      1  C   UNL     1       3.758   4.348  17.869  0.00  0.00    +0.000 A 
ATOM      2  C   UNL     1       3.347   3.092  17.412  0.00  0.00    +0.000 A 
ATOM      3  C   UNL     1       2.178   2.515  17.909  0.00  0.00    +0.000 A 
ATOM      4  C   UNL     1       1.411   3.200  18.854  0.00  0.00    +0.000 A 
ATOM      5  C   UNL     1       1.804   4.466  19.294  0.00  0.00    +0.000 A 
ATOM      6  C   UNL     1       2.986   5.036  18.812  0.00  0.00    +0.000 A 
ENDROOT
BRANCH   1   8
ATOM      7  O   UNL     1       5.176   6.144  17.347  0.00  0.00    +0.000 OA
ATOM      8  C   UNL     1       4.995   4.931  17.289  0.00  0.00    +0.000 C 
ATOM      9  N   UNL     1       5.874   4.061  16.682  0.00  0.00    +0.000 N 
ATOM     10  H   UNL     1       5.561   3.132  16.431  0.00  0.00    +0.000 HD
BRANCH   9  11
ATOM     11  C   UNL     1       7.039   4.580  16.004  0.00  0.00    +0.000 C 
BRANCH  11  12
ATOM     12  C   UNL     1       6.923   4.478  14.508  0.00  0.00    +0.000 A 
ATOM     13  C   UNL     1       7.746   5.248  13.674  0.00  0.00    +0.000 A 
ATOM     14  C   UNL     1       7.707   5.078  12.288  0.00  0.00    +0.000 A 
ATOM     15  C   UNL     1       6.844   4.142  11.723  0.00  0.00    +0.000 A 
ATOM     16  C   UNL     1       6.008   3.382  12.540  0.00  0.00    +0.000 A 
ATOM     17  C   UNL     1       6.046   3.550  13.925  0.00  0.00    +0.000 A 
ENDBRANCH  11  12
ENDBRANCH   9  11
ENDBRANCH   1   8
BRANCH   5  18
ATOM     18  O   UNL     1       1.137   5.216  20.222  0.00  0.00    +0.000 OA
BRANCH  18  19
ATOM     19  C   UNL     1       1.934   6.142  20.964  0.00  0.00    +0.000 C 
BRANCH  19  20
ATOM     20  C   UNL     1       1.339   7.485  20.771  0.00  0.00    +0.000 A 
ATOM     21  N   UNL     1       0.518   8.169  21.537  0.00  0.00    +0.000 NA
ATOM     22  C   UNL     1       0.371   9.348  20.836  0.00  0.00    +0.000 A 
ATOM     23  N   UNL     1       1.085   9.397  19.699  0.00  0.00    +0.000 NA
ATOM     24  O   UNL     1       1.727   8.164  19.655  0.00  0.00    +0.000 OA
BRANCH  22  25
ATOM     25  C   UNL     1      -0.473  10.438  21.311  0.00  0.00    +0.000 A 
ATOM     26  C   UNL     1      -1.037  11.348  20.402  0.00  0.00    +0.000 A 
ATOM     27  C   UNL     1      -1.857  12.386  20.853  0.00  0.00    +0.000 A 
ATOM     28  C   UNL     1      -2.112  12.517  22.212  0.00  0.00    +0.000 A 
ATOM     29  F   UNL     1      -2.903  13.508  22.643  0.00  0.00    +0.000 F 
ATOM     30  C   UNL     1      -1.560  11.634  23.131  0.00  0.00    +0.000 A 
ATOM     31  C   UNL     1      -0.741  10.595  22.682  0.00  0.00    +0.000 A 
ENDBRANCH  22  25
ENDBRANCH  19  20
ENDBRANCH  18  19
ENDBRANCH   5  18
TORSDOF 7
ENDMDL
MODEL 9
REMARK VINA RESULT:      -8.1      4.915      9.128
REMARK  Name = 
REMARK  7 active torsions:
REMARK  status: ('A' for Active; 'I' for Inactive)
REMARK    1  A    between atoms: C_2  and  C_11
REMARK    2  A    between atoms: N_3  and  C_4
REMARK    3  A    between atoms: C_4  and  C_5
REMARK    4  A    between atoms: C_15  and  O_16
REMARK    5  A    between atoms: O_16  and  C_17
REMARK    6  A    between atoms: C_17  and  C_18
REMARK    7  A    between atoms: C_20  and  C_21
REMARK                            x       y       z     vdW  Elec       q    Type
REMARK                         _______ _______ _______ _____ _____    ______ ____
ROOT
ATOM      1  C   UNL     1       5.851   5.091  17.005  0.00  0.00    +0.000 A 
ATOM      2  C   UNL     1       6.288   4.607  18.242  0.00  0.00    +0.000 A 
ATOM      3  C   UNL     1       5.498   4.780  19.379  0.00  0.00    +0.000 A 
ATOM      4  C   UNL     1       4.264   5.425  19.278  0.00  0.00    +0.000 A 
ATOM      5  C   UNL     1       3.811   5.888  18.040  0.00  0.00    +0.000 A 
ATOM      6  C   UNL     1       4.612   5.733  16.904  0.00  0.00    +0.000 A 
ENDROOT
BRANCH   1   8
ATOM      7  O   UNL     1       7.877   4.496  15.982  0.00  0.00    +0.000 OA
ATOM      8  C   UNL     1       6.715   4.858  15.820  0.00  0.00    +0.000 C 
ATOM      9  N   UNL     1       6.159   5.094  14.582  0.00  0.00    +0.000 N 
ATOM     10  H   UNL     1       5.306   5.633  14.513  0.00  0.00    +0.000 HD
BRANCH   9  11
ATOM     11  C   UNL     1       6.982   4.991  13.399  0.00  0.00    +0.000 C 
BRANCH  11  12
ATOM     12  C   UNL     1       6.557   3.860  12.503  0.00  0.00    +0.000 A 
ATOM     13  C   UNL     1       7.510   3.011  11.924  0.00  0.00    +0.000 A 
ATOM     14  C   UNL     1       7.109   1.903  11.175  0.00  0.00    +0.000 A 
ATOM     15  C   UNL     1       5.754   1.636  10.993  0.00  0.00    +0.000 A 
ATOM     16  C   UNL     1       4.796   2.482  11.548  0.00  0.00    +0.000 A 
ATOM     17  C   UNL     1       5.195   3.590  12.298  0.00  0.00    +0.000 A 
ENDBRANCH  11  12
ENDBRANCH   9  11
ENDBRANCH   1   8
BRANCH   5  18
ATOM     18  O   UNL     1       2.629   6.541  17.831  0.00  0.00    +0.000 OA
BRANCH  18  19
ATOM     19  C   UNL     1       2.693   7.969  17.862  0.00  0.00    +0.000 C 
BRANCH  19  20
ATOM     20  C   UNL     1       1.962   8.413  19.072  0.00  0.00    +0.000 A 
ATOM     21  N   UNL     1       1.252   9.499  19.284  0.00  0.00    +0.000 NA
ATOM     22  C   UNL     1       0.801   9.311  20.575  0.00  0.00    +0.000 A 
ATOM     23  N   UNL     1       1.198   8.152  21.126  0.00  0.00    +0.000 NA
ATOM     24  O   UNL     1       1.967   7.555  20.131  0.00  0.00    +0.000 OA
BRANCH  22  25
ATOM     25  C   UNL     1      -0.044  10.285  21.255  0.00  0.00    +0.000 A 
ATOM     26  C   UNL     1      -0.392  11.489  20.620  0.00  0.00    +0.000 A 
ATOM     27  C   UNL     1      -1.213  12.419  21.263  0.00  0.00    +0.000 A 
ATOM     28  C   UNL     1      -1.682  12.150  22.542  0.00  0.00    +0.000 A 
ATOM     29  F   UNL     1      -2.473  13.039  23.156  0.00  0.00    +0.000 F 
ATOM     30  C   UNL     1      -1.345  10.970  23.194  0.00  0.00    +0.000 A 
ATOM     31  C   UNL     1      -0.527  10.038  22.552  0.00  0.00    +0.000 A 
ENDBRANCH  22  25
ENDBRANCH  19  20
ENDBRANCH  18  19
ENDBRANCH   5  18
TORSDOF 7
ENDMDL
