MODEL 1
REMARK VINA RESULT:      -8.4      0.000      0.000
REMARK  Name = 
REMARK  4 active torsions:
REMARK  status: ('A' for Active; 'I' for Inactive)
REMARK    1  A    between atoms: C_2  and  C_3
REMARK    2  A    between atoms: C_3  and  N_4
REMARK    3  A    between atoms: C_5  and  C_7
REMARK    4  A    between atoms: N_15  and  C_16
REMARK                            x       y       z     vdW  Elec       q    Type
REMARK                         _______ _______ _______ _____ _____    ______ ____
ROOT
ATOM      1  O   UNL     1       1.629   4.741  17.632  0.00  0.00    +0.000 OA
ATOM      2  C   UNL     1       2.788   4.990  17.957  0.00  0.00    +0.000 C 
ATOM      3  N   UNL     1       3.267   6.217  18.397  0.00  0.00    +0.000 N 
ATOM      4  H   UNL     1       4.271   6.364  18.308  0.00  0.00    +0.000 HD
ENDROOT
BRANCH   3   5
ATOM      5  C   UNL     1       2.473   7.335  18.748  0.00  0.00    +0.000 A 
ATOM      6  C   UNL     1       2.070   8.298  17.825  0.00  0.00    +0.000 A 
ATOM      7  C   UNL     1       1.322   9.402  18.238  0.00  0.00    +0.000 A 
ATOM      8  C   UNL     1       0.956   9.572  19.562  0.00  0.00    +0.000 A 
ATOM      9  N   UNL     1       0.269  10.675  19.921  0.00  0.00    +0.000 NA
ATOM     10  C   UNL     1      -0.047  10.786  21.227  0.00  0.00    +0.000 A 
ATOM     11  C   UNL     1       0.297   9.819  22.148  0.00  0.00    +0.000 A 
ATOM     12  N   UNL     1       0.980   8.702  21.805  0.00  0.00    +0.000 NA
ATOM     13  C   UNL     1       1.322   8.579  20.505  0.00  0.00    +0.000 A 
ATOM     14  C   UNL     1       2.058   7.473  20.078  0.00  0.00    +0.000 A 
ENDBRANCH   3   5
BRANCH   2  15
ATOM     15  C   UNL     1       3.876   3.927  17.800  0.00  0.00    +0.000 C 
BRANCH  15  16
ATOM     16  N   UNL     1       4.424   3.918  16.456  0.00  0.00    +0.000 N 
ATOM     17  C   UNL     1       5.484   4.730  16.127  0.00  0.00    +0.000 C 
ATOM     18  O   UNL     1       5.969   5.530  16.919  0.00  0.00    +0.000 OA
ATOM     19  H   UNL     1       4.018   3.276  15.790  0.00  0.00    +0.000 HD
BRANCH  17  20
ATOM     20  C   UNL     1       6.061   4.573  14.765  0.00  0.00    +0.000 A 
ATOM     21  C   UNL     1       7.200   5.271  14.350  0.00  0.00    +0.000 A 
ATOM     22  C   UNL     1       7.695   5.065  13.063  0.00  0.00    +0.000 A 
ATOM     23  F   UNL     1       8.790   5.729  12.670  0.00  0.00    +0.000 F 
ATOM     24  C   UNL     1       7.083   4.183  12.183  0.00  0.00    +0.000 A 
ATOM     25  C   UNL     1       5.955   3.494  12.606  0.00  0.00    +0.000 A 
ATOM     26  F   UNL     1       5.353   2.642  11.769  0.00  0.00    +0.000 F 
ATOM     27  C   UNL     1       5.440   3.676  13.886  0.00  0.00    +0.000 A 
ENDBRANCH  17  20
ENDBRANCH  15  16
ENDBRANCH   2  15
TORSDOF 4
ENDMDL
MODEL 2
REMARK VINA RESULT:      -8.2      0.355      1.680
REMARK  Name = 
REMARK  4 active torsions:
REMARK  status: ('A' for Active; 'I' for Inactive)
REMARK    1  A    between atoms: C_2  and  C_3
REMARK    2  A    between atoms: C_3  and  N_4
REMARK    3  A    between atoms: C_5  and  C_7
REMARK    4  A    between atoms: N_15  and  C_16
REMARK                            x       y       z     vdW  Elec       q    Type
REMARK                         _______ _______ _______ _____ _____    ______ ____
ROOT
ATOM      1  O   UNL     1       2.050   4.369  18.399  0.00  0.00    +0.000 OA
ATOM      2  C   UNL     1       3.193   4.807  18.287  0.00  0.00    +0.000 C 
ATOM      3  N   UNL     1       3.556   6.147  18.279  0.00  0.00    +0.000 N 
ATOM      4  H   UNL     1       4.456   6.364  17.854  0.00  0.00    +0.000 HD
ENDROOT
BRANCH   3   5
ATOM      5  C   UNL     1       2.709   7.233  18.605  0.00  0.00    +0.000 A 
ATOM      6  C   UNL     1       2.341   8.210  17.683  0.00  0.00    +0.000 A 
ATOM      7  C   UNL     1       1.536   9.283  18.073  0.00  0.00    +0.000 A 
ATOM      8  C   UNL     1       1.078   9.406  19.374  0.00  0.00    +0.000 A 
ATOM      9  N   UNL     1       0.339  10.480  19.714  0.00  0.00    +0.000 NA
ATOM     10  C   UNL     1      -0.065  10.546  20.999  0.00  0.00    +0.000 A 
ATOM     11  C   UNL     1       0.244   9.564  21.916  0.00  0.00    +0.000 A 
ATOM     12  N   UNL     1       0.979   8.476  21.590  0.00  0.00    +0.000 NA
ATOM     13  C   UNL     1       1.410   8.397  20.313  0.00  0.00    +0.000 A 
ATOM     14  C   UNL     1       2.204   7.324  19.907  0.00  0.00    +0.000 A 
ENDBRANCH   3   5
BRANCH   2  15
ATOM     15  C   UNL     1       4.361   3.853  18.038  0.00  0.00    +0.000 C 
BRANCH  15  16
ATOM     16  N   UNL     1       4.756   3.845  16.642  0.00  0.00    +0.000 N 
ATOM     17  C   UNL     1       5.809   4.616  16.207  0.00  0.00    +0.000 C 
ATOM     18  O   UNL     1       6.413   5.381  16.950  0.00  0.00    +0.000 OA
ATOM     19  H   UNL     1       4.251   3.232  16.016  0.00  0.00    +0.000 HD
BRANCH  17  20
ATOM     20  C   UNL     1       6.223   4.459  14.787  0.00  0.00    +0.000 A 
ATOM     21  C   UNL     1       5.566   3.591  13.908  0.00  0.00    +0.000 A 
ATOM     22  C   UNL     1       6.000   3.503  12.585  0.00  0.00    +0.000 A 
ATOM     23  F   UNL     1       5.365   2.677  11.744  0.00  0.00    +0.000 F 
ATOM     24  C   UNL     1       7.069   4.257  12.121  0.00  0.00    +0.000 A 
ATOM     25  C   UNL     1       7.711   5.116  13.000  0.00  0.00    +0.000 A 
ATOM     26  F   UNL     1       8.744   5.848  12.568  0.00  0.00    +0.000 F 
ATOM     27  C   UNL     1       7.300   5.229  14.325  0.00  0.00    +0.000 A 
ENDBRANCH  17  20
ENDBRANCH  15  16
ENDBRANCH   2  15
TORSDOF 4
ENDMDL
MODEL 3
REMARK VINA RESULT:      -8.0      1.914      2.901
REMARK  Name = 
REMARK  4 active torsions:
REMARK  status: ('A' for Active; 'I' for Inactive)
REMARK    1  A    between atoms: C_2  and  C_3
REMARK    2  A    between atoms: C_3  and  N_4
REMARK    3  A    between atoms: C_5  and  C_7
REMARK    4  A    between atoms: N_15  and  C_16
REMARK                            x       y       z     vdW  Elec       q    Type
REMARK                         _______ _______ _______ _____ _____    ______ ____
ROOT
ATOM      1  O   UNL     1       0.890   4.901  20.449  0.00  0.00    +0.000 OA
ATOM      2  C   UNL     1       2.075   5.222  20.378  0.00  0.00    +0.000 C 
ATOM      3  N   UNL     1       2.562   6.508  20.189  0.00  0.00    +0.000 N 
ATOM      4  H   UNL     1       3.511   6.578  19.823  0.00  0.00    +0.000 HD
ENDROOT
BRANCH   3   5
ATOM      5  C   UNL     1       1.798   7.697  20.255  0.00  0.00    +0.000 A 
ATOM      6  C   UNL     1       1.653   8.564  19.174  0.00  0.00    +0.000 A 
ATOM      7  C   UNL     1       0.921   9.746  19.310  0.00  0.00    +0.000 A 
ATOM      8  C   UNL     1       0.319  10.089  20.509  0.00  0.00    +0.000 A 
ATOM      9  N   UNL     1      -0.342  11.259  20.605  0.00  0.00    +0.000 NA
ATOM     10  C   UNL     1      -0.895  11.539  21.803  0.00  0.00    +0.000 A 
ATOM     11  C   UNL     1      -0.806  10.671  22.871  0.00  0.00    +0.000 A 
ATOM     12  N   UNL     1      -0.153   9.489  22.791  0.00  0.00    +0.000 NA
ATOM     13  C   UNL     1       0.424   9.196  21.605  0.00  0.00    +0.000 A 
ATOM     14  C   UNL     1       1.147   8.012  21.453  0.00  0.00    +0.000 A 
ENDBRANCH   3   5
BRANCH   2  15
ATOM     15  C   UNL     1       3.163   4.149  20.398  0.00  0.00    +0.000 C 
BRANCH  15  16
ATOM     16  N   UNL     1       4.190   4.411  19.406  0.00  0.00    +0.000 N 
ATOM     17  C   UNL     1       4.083   3.895  18.135  0.00  0.00    +0.000 C 
ATOM     18  O   UNL     1       3.167   3.152  17.803  0.00  0.00    +0.000 OA
ATOM     19  H   UNL     1       4.960   5.007  19.676  0.00  0.00    +0.000 HD
BRANCH  17  20
ATOM     20  C   UNL     1       5.115   4.310  17.147  0.00  0.00    +0.000 A 
ATOM     21  C   UNL     1       5.258   3.680  15.906  0.00  0.00    +0.000 A 
ATOM     22  C   UNL     1       6.238   4.130  15.022  0.00  0.00    +0.000 A 
ATOM     23  F   UNL     1       6.368   3.530  13.831  0.00  0.00    +0.000 F 
ATOM     24  C   UNL     1       7.076   5.188  15.345  0.00  0.00    +0.000 A 
ATOM     25  C   UNL     1       6.924   5.807  16.578  0.00  0.00    +0.000 A 
ATOM     26  F   UNL     1       7.725   6.828  16.905  0.00  0.00    +0.000 F 
ATOM     27  C   UNL     1       5.952   5.384  17.480  0.00  0.00    +0.000 A 
ENDBRANCH  17  20
ENDBRANCH  15  16
ENDBRANCH   2  15
TORSDOF 4
ENDMDL
MODEL 4
REMARK VINA RESULT:      -7.9      1.989      2.629
REMARK  Name = 
REMARK  4 active torsions:
REMARK  status: ('A' for Active; 'I' for Inactive)
REMARK    1  A    between atoms: C_2  and  C_3
REMARK    2  A    between atoms: C_3  and  N_4
REMARK    3  A    between atoms: C_5  and  C_7
REMARK    4  A    between atoms: N_15  and  C_16
REMARK                            x       y       z     vdW  Elec       q    Type
REMARK                         _______ _______ _______ _____ _____    ______ ____
ROOT
ATOM      1  O   UNL     1       0.731   4.973  20.451  0.00  0.00    +0.000 OA
ATOM      2  C   UNL     1       1.918   5.292  20.441  0.00  0.00    +0.000 C 
ATOM      3  N   UNL     1       2.415   6.583  20.320  0.00  0.00    +0.000 N 
ATOM      4  H   UNL     1       3.378   6.663  19.997  0.00  0.00    +0.000 HD
ENDROOT
BRANCH   3   5
ATOM      5  C   UNL     1       1.652   7.771  20.399  0.00  0.00    +0.000 A 
ATOM      6  C   UNL     1       1.513   8.654  19.331  0.00  0.00    +0.000 A 
ATOM      7  C   UNL     1       0.781   9.834  19.479  0.00  0.00    +0.000 A 
ATOM      8  C   UNL     1       0.172  10.160  20.680  0.00  0.00    +0.000 A 
ATOM      9  N   UNL     1      -0.489  11.329  20.789  0.00  0.00    +0.000 NA
ATOM     10  C   UNL     1      -1.048  11.591  21.987  0.00  0.00    +0.000 A 
ATOM     11  C   UNL     1      -0.967  10.708  23.043  0.00  0.00    +0.000 A 
ATOM     12  N   UNL     1      -0.314   9.526  22.949  0.00  0.00    +0.000 NA
ATOM     13  C   UNL     1       0.270   9.251  21.763  0.00  0.00    +0.000 A 
ATOM     14  C   UNL     1       0.993   8.069  21.598  0.00  0.00    +0.000 A 
ENDBRANCH   3   5
BRANCH   2  15
ATOM     15  C   UNL     1       3.003   4.215  20.465  0.00  0.00    +0.000 C 
BRANCH  15  16
ATOM     16  N   UNL     1       4.064   4.504  19.518  0.00  0.00    +0.000 N 
ATOM     17  C   UNL     1       4.006   4.019  18.232  0.00  0.00    +0.000 C 
ATOM     18  O   UNL     1       3.105   3.282  17.849  0.00  0.00    +0.000 OA
ATOM     19  H   UNL     1       4.821   5.096  19.831  0.00  0.00    +0.000 HD
BRANCH  17  20
ATOM     20  C   UNL     1       5.071   4.461  17.293  0.00  0.00    +0.000 A 
ATOM     21  C   UNL     1       5.930   5.526  17.583  0.00  0.00    +0.000 A 
ATOM     22  C   UNL     1       6.917   5.878  16.662  0.00  0.00    +0.000 A 
ATOM     23  F   UNL     1       7.742   6.894  16.945  0.00  0.00    +0.000 F 
ATOM     24  C   UNL     1       7.065   5.195  15.463  0.00  0.00    +0.000 A 
ATOM     25  C   UNL     1       6.210   4.139  15.186  0.00  0.00    +0.000 A 
ATOM     26  F   UNL     1       6.339   3.472  14.033  0.00  0.00    +0.000 F 
ATOM     27  C   UNL     1       5.218   3.762  16.086  0.00  0.00    +0.000 A 
ENDBRANCH  17  20
ENDBRANCH  15  16
ENDBRANCH   2  15
TORSDOF 4
ENDMDL
MODEL 5
REMARK VINA RESULT:      -7.8      5.117      9.089
REMARK  Name = 
REMARK  4 active torsions:
REMARK  status: ('A' for Active; 'I' for Inactive)
REMARK    1  A    between atoms: C_2  and  C_3
REMARK    2  A    between atoms: C_3  and  N_4
REMARK    3  A    between atoms: C_5  and  C_7
REMARK    4  A    between atoms: N_15  and  C_16
REMARK                            x       y       z     vdW  Elec       q    Type
REMARK                         _______ _______ _______ _____ _____    ______ ____
ROOT
ATOM      1  O   UNL     1       1.612   8.301  19.925  0.00  0.00    +0.000 OA
ATOM      2  C   UNL     1       1.936   8.772  18.837  0.00  0.00    +0.000 C 
ATOM      3  N   UNL     1       2.705   8.139  17.871  0.00  0.00    +0.000 N 
ATOM      4  H   UNL     1       3.163   8.748  17.194  0.00  0.00    +0.000 HD
ENDROOT
BRANCH   3   5
ATOM      5  C   UNL     1       3.074   6.773  17.874  0.00  0.00    +0.000 A 
ATOM      6  C   UNL     1       4.355   6.333  17.550  0.00  0.00    +0.000 A 
ATOM      7  C   UNL     1       4.650   4.968  17.530  0.00  0.00    +0.000 A 
ATOM      8  C   UNL     1       3.690   4.017  17.832  0.00  0.00    +0.000 A 
ATOM      9  N   UNL     1       4.010   2.710  17.759  0.00  0.00    +0.000 NA
ATOM     10  C   UNL     1       3.026   1.836  18.055  0.00  0.00    +0.000 A 
ATOM     11  C   UNL     1       1.765   2.250  18.428  0.00  0.00    +0.000 A 
ATOM     12  N   UNL     1       1.429   3.558  18.514  0.00  0.00    +0.000 NA
ATOM     13  C   UNL     1       2.393   4.452  18.205  0.00  0.00    +0.000 A 
ATOM     14  C   UNL     1       2.115   5.819  18.235  0.00  0.00    +0.000 A 
ENDBRANCH   3   5
BRANCH   2  15
ATOM     15  C   UNL     1       1.574  10.215  18.487  0.00  0.00    +0.000 C 
BRANCH  15  16
ATOM     16  N   UNL     1       0.269  10.301  17.859  0.00  0.00    +0.000 N 
ATOM     17  C   UNL     1      -0.851  10.583  18.607  0.00  0.00    +0.000 C 
ATOM     18  O   UNL     1      -0.812  10.711  19.825  0.00  0.00    +0.000 OA
ATOM     19  H   UNL     1       0.223  10.177  16.857  0.00  0.00    +0.000 HD
BRANCH  17  20
ATOM     20  C   UNL     1      -2.129  10.771  17.869  0.00  0.00    +0.000 A 
ATOM     21  C   UNL     1      -3.192  11.515  18.391  0.00  0.00    +0.000 A 
ATOM     22  C   UNL     1      -4.357  11.662  17.639  0.00  0.00    +0.000 A 
ATOM     23  F   UNL     1      -5.371  12.381  18.138  0.00  0.00    +0.000 F 
ATOM     24  C   UNL     1      -4.486  11.085  16.383  0.00  0.00    +0.000 A 
ATOM     25  C   UNL     1      -3.425  10.351  15.873  0.00  0.00    +0.000 A 
ATOM     26  F   UNL     1      -3.535   9.788  14.665  0.00  0.00    +0.000 F 
ATOM     27  C   UNL     1      -2.248  10.190  16.599  0.00  0.00    +0.000 A 
ENDBRANCH  17  20
ENDBRANCH  15  16
ENDBRANCH   2  15
TORSDOF 4
ENDMDL
MODEL 6
REMARK VINA RESULT:      -7.8      6.617      7.822
REMARK  Name = 
REMARK  4 active torsions:
REMARK  status: ('A' for Active; 'I' for Inactive)
REMARK    1  A    between atoms: C_2  and  C_3
REMARK    2  A    between atoms: C_3  and  N_4
REMARK    3  A    between atoms: C_5  and  C_7
REMARK    4  A    between atoms: N_15  and  C_16
REMARK                            x       y       z     vdW  Elec       q    Type
REMARK                         _______ _______ _______ _____ _____    ______ ____
ROOT
ATOM      1  O   UNL     1       7.452   9.175  17.479  0.00  0.00    +0.000 OA
ATOM      2  C   UNL     1       8.141   8.519  18.257  0.00  0.00    +0.000 C 
ATOM      3  N   UNL     1       9.143   9.017  19.078  0.00  0.00    +0.000 N 
ATOM      4  H   UNL     1       9.832   8.341  19.403  0.00  0.00    +0.000 HD
ENDROOT
BRANCH   3   5
ATOM      5  C   UNL     1       9.406  10.386  19.321  0.00  0.00    +0.000 A 
ATOM      6  C   UNL     1       9.278  10.970  20.579  0.00  0.00    +0.000 A 
ATOM      7  C   UNL     1       9.511  12.337  20.751  0.00  0.00    +0.000 A 
ATOM      8  C   UNL     1       9.876  13.146  19.688  0.00  0.00    +0.000 A 
ATOM      9  N   UNL     1      10.050  14.466  19.893  0.00  0.00    +0.000 NA
ATOM     10  C   UNL     1      10.394  15.200  18.815  0.00  0.00    +0.000 A 
ATOM     11  C   UNL     1      10.575  14.633  17.572  0.00  0.00    +0.000 A 
ATOM     12  N   UNL     1      10.413  13.309  17.349  0.00  0.00    +0.000 NA
ATOM     13  C   UNL     1      10.051  12.557  18.410  0.00  0.00    +0.000 A 
ATOM     14  C   UNL     1       9.828  11.188  18.255  0.00  0.00    +0.000 A 
ENDBRANCH   3   5
BRANCH   2  15
ATOM     15  C   UNL     1       8.002   6.997  18.310  0.00  0.00    +0.000 C 
BRANCH  15  16
ATOM     16  N   UNL     1       6.635   6.577  18.061  0.00  0.00    +0.000 N 
ATOM     17  C   UNL     1       6.300   5.242  18.072  0.00  0.00    +0.000 C 
ATOM     18  O   UNL     1       7.133   4.358  18.227  0.00  0.00    +0.000 OA
ATOM     19  H   UNL     1       5.943   7.299  17.913  0.00  0.00    +0.000 HD
BRANCH  17  20
ATOM     20  C   UNL     1       4.858   4.905  17.927  0.00  0.00    +0.000 A 
ATOM     21  C   UNL     1       4.414   3.595  17.719  0.00  0.00    +0.000 A 
ATOM     22  C   UNL     1       3.046   3.348  17.606  0.00  0.00    +0.000 A 
ATOM     23  F   UNL     1       2.623   2.092  17.414  0.00  0.00    +0.000 F 
ATOM     24  C   UNL     1       2.115   4.374  17.693  0.00  0.00    +0.000 A 
ATOM     25  C   UNL     1       2.567   5.669  17.902  0.00  0.00    +0.000 A 
ATOM     26  F   UNL     1       1.681   6.668  17.988  0.00  0.00    +0.000 F 
ATOM     27  C   UNL     1       3.925   5.946  18.023  0.00  0.00    +0.000 A 
ENDBRANCH  17  20
ENDBRANCH  15  16
ENDBRANCH   2  15
TORSDOF 4
ENDMDL
MODEL 7
REMARK VINA RESULT:      -7.8      1.005      2.352
REMARK  Name = 
REMARK  4 active torsions:
REMARK  status: ('A' for Active; 'I' for Inactive)
REMARK    1  A    between atoms: C_2  and  C_3
REMARK    2  A    between atoms: C_3  and  N_4
REMARK    3  A    between atoms: C_5  and  C_7
REMARK    4  A    between atoms: N_15  and  C_16
REMARK                            x       y       z     vdW  Elec       q    Type
REMARK                         _______ _______ _______ _____ _____    ______ ____
ROOT
ATOM      1  O   UNL     1       1.926   3.775  18.438  0.00  0.00    +0.000 OA
ATOM      2  C   UNL     1       3.101   4.138  18.409  0.00  0.00    +0.000 C 
ATOM      3  N   UNL     1       3.562   5.427  18.638  0.00  0.00    +0.000 N 
ATOM      4  H   UNL     1       4.484   5.645  18.261  0.00  0.00    +0.000 HD
ENDROOT
BRANCH   3   5
ATOM      5  C   UNL     1       2.794   6.500  19.147  0.00  0.00    +0.000 A 
ATOM      6  C   UNL     1       2.177   6.465  20.395  0.00  0.00    +0.000 A 
ATOM      7  C   UNL     1       1.396   7.539  20.828  0.00  0.00    +0.000 A 
ATOM      8  C   UNL     1       1.214   8.663  20.040  0.00  0.00    +0.000 A 
ATOM      9  N   UNL     1       0.418   9.656  20.482  0.00  0.00    +0.000 NA
ATOM     10  C   UNL     1       0.273  10.717  19.662  0.00  0.00    +0.000 A 
ATOM     11  C   UNL     1       0.915  10.795  18.444  0.00  0.00    +0.000 A 
ATOM     12  N   UNL     1       1.724   9.811  17.988  0.00  0.00    +0.000 NA
ATOM     13  C   UNL     1       1.869   8.730  18.785  0.00  0.00    +0.000 A 
ATOM     14  C   UNL     1       2.658   7.657  18.370  0.00  0.00    +0.000 A 
ENDBRANCH   3   5
BRANCH   2  15
ATOM     15  C   UNL     1       4.198   3.155  18.000  0.00  0.00    +0.000 C 
BRANCH  15  16
ATOM     16  N   UNL     1       4.612   3.359  16.624  0.00  0.00    +0.000 N 
ATOM     17  C   UNL     1       5.756   4.066  16.335  0.00  0.00    +0.000 C 
ATOM     18  O   UNL     1       6.434   4.601  17.204  0.00  0.00    +0.000 OA
ATOM     19  H   UNL     1       4.048   2.938  15.899  0.00  0.00    +0.000 HD
BRANCH  17  20
ATOM     20  C   UNL     1       6.172   4.127  14.908  0.00  0.00    +0.000 A 
ATOM     21  C   UNL     1       5.520   3.398  13.907  0.00  0.00    +0.000 A 
ATOM     22  C   UNL     1       5.955   3.513  12.587  0.00  0.00    +0.000 A 
ATOM     23  F   UNL     1       5.325   2.821  11.630  0.00  0.00    +0.000 F 
ATOM     24  C   UNL     1       7.021   4.334  12.243  0.00  0.00    +0.000 A 
ATOM     25  C   UNL     1       7.658   5.053  13.244  0.00  0.00    +0.000 A 
ATOM     26  F   UNL     1       8.688   5.847  12.928  0.00  0.00    +0.000 F 
ATOM     27  C   UNL     1       7.246   4.962  14.570  0.00  0.00    +0.000 A 
ENDBRANCH  17  20
ENDBRANCH  15  16
ENDBRANCH   2  15
TORSDOF 4
ENDMDL
MODEL 8
REMARK VINA RESULT:      -7.7      6.608      7.768
REMARK  Name = 
REMARK  4 active torsions:
REMARK  status: ('A' for Active; 'I' for Inactive)
REMARK    1  A    between atoms: C_2  and  C_3
REMARK    2  A    between atoms: C_3  and  N_4
REMARK    3  A    between atoms: C_5  and  C_7
REMARK    4  A    between atoms: N_15  and  C_16
REMARK                            x       y       z     vdW  Elec       q    Type
REMARK                         _______ _______ _______ _____ _____    ______ ____
ROOT
ATOM      1  O   UNL     1       7.422   9.150  17.459  0.00  0.00    +0.000 OA
ATOM      2  C   UNL     1       8.126   8.491  18.221  0.00  0.00    +0.000 C 
ATOM      3  N   UNL     1       9.149   8.985  19.019  0.00  0.00    +0.000 N 
ATOM      4  H   UNL     1       9.842   8.306  19.328  0.00  0.00    +0.000 HD
ENDROOT
BRANCH   3   5
ATOM      5  C   UNL     1       9.424  10.353  19.255  0.00  0.00    +0.000 A 
ATOM      6  C   UNL     1       9.287  10.948  20.507  0.00  0.00    +0.000 A 
ATOM      7  C   UNL     1       9.533  12.313  20.672  0.00  0.00    +0.000 A 
ATOM      8  C   UNL     1       9.920  13.110  19.608  0.00  0.00    +0.000 A 
ATOM      9  N   UNL     1      10.106  14.430  19.806  0.00  0.00    +0.000 NA
ATOM     10  C   UNL     1      10.470  15.152  18.726  0.00  0.00    +0.000 A 
ATOM     11  C   UNL     1      10.661  14.574  17.489  0.00  0.00    +0.000 A 
ATOM     12  N   UNL     1      10.487  13.250  17.274  0.00  0.00    +0.000 NA
ATOM     13  C   UNL     1      10.103  12.510  18.337  0.00  0.00    +0.000 A 
ATOM     14  C   UNL     1       9.868  11.143  18.188  0.00  0.00    +0.000 A 
ENDBRANCH   3   5
BRANCH   2  15
ATOM     15  C   UNL     1       7.981   6.970  18.278  0.00  0.00    +0.000 C 
BRANCH  15  16
ATOM     16  N   UNL     1       6.615   6.554  18.017  0.00  0.00    +0.000 N 
ATOM     17  C   UNL     1       6.223   5.256  18.248  0.00  0.00    +0.000 C 
ATOM     18  O   UNL     1       7.006   4.389  18.618  0.00  0.00    +0.000 OA
ATOM     19  H   UNL     1       5.965   7.258  17.693  0.00  0.00    +0.000 HD
BRANCH  17  20
ATOM     20  C   UNL     1       4.779   4.942  18.069  0.00  0.00    +0.000 A 
ATOM     21  C   UNL     1       3.792   5.933  18.081  0.00  0.00    +0.000 A 
ATOM     22  C   UNL     1       2.458   5.569  17.894  0.00  0.00    +0.000 A 
ATOM     23  F   UNL     1       1.515   6.520  17.898  0.00  0.00    +0.000 F 
ATOM     24  C   UNL     1       2.089   4.246  17.696  0.00  0.00    +0.000 A 
ATOM     25  C   UNL     1       3.077   3.272  17.684  0.00  0.00    +0.000 A 
ATOM     26  F   UNL     1       2.736   1.992  17.496  0.00  0.00    +0.000 F 
ATOM     27  C   UNL     1       4.416   3.604  17.864  0.00  0.00    +0.000 A 
ENDBRANCH  17  20
ENDBRANCH  15  16
ENDBRANCH   2  15
TORSDOF 4
ENDMDL
MODEL 9
REMARK VINA RESULT:      -7.7      6.362      7.483
REMARK  Name = 
REMARK  4 active torsions:
REMARK  status: ('A' for Active; 'I' for Inactive)
REMARK    1  A    between atoms: C_2  and  C_3
REMARK    2  A    between atoms: C_3  and  N_4
REMARK    3  A    between atoms: C_5  and  C_7
REMARK    4  A    between atoms: N_15  and  C_16
REMARK                            x       y       z     vdW  Elec       q    Type
REMARK                         _______ _______ _______ _____ _____    ______ ____
ROOT
ATOM      1  O   UNL     1       7.329   8.248  17.245  0.00  0.00    +0.000 OA
ATOM      2  C   UNL     1       7.969   7.782  18.186  0.00  0.00    +0.000 C 
ATOM      3  N   UNL     1       8.867   8.477  18.985  0.00  0.00    +0.000 N 
ATOM      4  H   UNL     1       9.551   7.911  19.485  0.00  0.00    +0.000 HD
ENDROOT
BRANCH   3   5
ATOM      5  C   UNL     1       9.047   9.881  18.995  0.00  0.00    +0.000 A 
ATOM      6  C   UNL     1       9.016  10.657  17.839  0.00  0.00    +0.000 A 
ATOM      7  C   UNL     1       9.242  12.033  17.906  0.00  0.00    +0.000 A 
ATOM      8  C   UNL     1       9.499  12.665  19.111  0.00  0.00    +0.000 A 
ATOM      9  N   UNL     1       9.753  13.989  19.121  0.00  0.00    +0.000 NA
ATOM     10  C   UNL     1      10.007  14.540  20.325  0.00  0.00    +0.000 A 
ATOM     11  C   UNL     1       9.993  13.800  21.488  0.00  0.00    +0.000 A 
ATOM     12  N   UNL     1       9.732  12.472  21.498  0.00  0.00    +0.000 NA
ATOM     13  C   UNL     1       9.493  11.895  20.301  0.00  0.00    +0.000 A 
ATOM     14  C   UNL     1       9.252  10.522  20.222  0.00  0.00    +0.000 A 
ENDBRANCH   3   5
BRANCH   2  15
ATOM     15  C   UNL     1       7.891   6.289  18.504  0.00  0.00    +0.000 C 
BRANCH  15  16
ATOM     16  N   UNL     1       6.524   5.867  18.749  0.00  0.00    +0.000 N 
ATOM     17  C   UNL     1       5.896   4.995  17.890  0.00  0.00    +0.000 C 
ATOM     18  O   UNL     1       6.427   4.589  16.862  0.00  0.00    +0.000 OA
ATOM     19  H   UNL     1       6.070   6.211  19.584  0.00  0.00    +0.000 HD
BRANCH  17  20
ATOM     20  C   UNL     1       4.540   4.520  18.277  0.00  0.00    +0.000 A 
ATOM     21  C   UNL     1       3.398   4.829  17.532  0.00  0.00    +0.000 A 
ATOM     22  C   UNL     1       2.160   4.338  17.946  0.00  0.00    +0.000 A 
ATOM     23  F   UNL     1       1.068   4.630  17.227  0.00  0.00    +0.000 F 
ATOM     24  C   UNL     1       2.035   3.551  19.082  0.00  0.00    +0.000 A 
ATOM     25  C   UNL     1       3.175   3.249  19.813  0.00  0.00    +0.000 A 
ATOM     26  F   UNL     1       3.071   2.492  20.912  0.00  0.00    +0.000 F 
ATOM     27  C   UNL     1       4.425   3.720  19.423  0.00  0.00    +0.000 A 
ENDBRANCH  17  20
ENDBRANCH  15  16
ENDBRANCH   2  15
TORSDOF 4
ENDMDL
